MODEL 1
REMARK VINA RESULT:      -6.0      0.000      0.000
REMARK  Name = 
REMARK  4 active torsions:
REMARK  status: ('A' for Active; 'I' for Inactive)
REMARK    1  A    between atoms: C_2  and  C_3
REMARK    2  A    between atoms: N_5  and  C_6
REMARK    3  A    between atoms: C_6  and  C_7
REMARK    4  A    between atoms: C_7  and  C_9
REMARK                            x       y       z     vdW  Elec       q    Type
REMARK                         _______ _______ _______ _____ _____    ______ ____
ROOT
ATOM      1  C   UNL     1      25.713  24.772  25.887  0.00  0.00    +0.000 C 
ATOM      2  O   UNL     1      25.508  26.042  25.953  0.00  0.00    +0.000 OA
ENDROOT
BRANCH   1   3
ATOM      3  C   UNL     1      26.108  24.267  24.585  0.00  0.00    +0.000 A 
ATOM      4  C   UNL     1      25.377  23.354  23.813  0.00  0.00    +0.000 A 
ATOM      5  N   UNL     1      26.093  23.092  22.713  0.00  0.00    +0.000 NA
ATOM      6  C   UNL     1      27.243  23.779  22.725  0.00  0.00    +0.000 A 
ATOM      7  C   UNL     1      28.306  23.861  21.816  0.00  0.00    +0.000 A 
ATOM      8  C   UNL     1      29.381  24.683  22.084  0.00  0.00    +0.000 A 
ATOM      9  C   UNL     1      29.402  25.418  23.238  0.00  0.00    +0.000 A 
ATOM     10  C   UNL     1      28.358  25.356  24.160  0.00  0.00    +0.000 A 
ATOM     11  C   UNL     1      27.272  24.517  23.882  0.00  0.00    +0.000 A 
ENDBRANCH   1   3
BRANCH   1  12
ATOM     12  C   UNL     1      25.521  24.028  27.109  0.00  0.00    +0.000 C 
BRANCH  12  15
ATOM     13  C   UNL     1      28.829  22.612  27.612  0.00  0.00    +0.000 A 
ATOM     14  N   UNL     1      27.738  23.083  27.029  0.00  0.00    +0.000 NA
ATOM     15  N   UNL     1      26.747  23.470  27.709  0.00  0.00    +0.000 N 
ATOM     16  C   UNL     1      26.834  23.387  29.061  0.00  0.00    +0.000 A 
ATOM     17  N   UNL     1      25.831  23.766  30.027  0.00  0.00    +0.000 NA
ATOM     18  S   UNL     1      28.399  22.734  29.259  0.00  0.00    +0.000 S 
BRANCH  13  20
ATOM     19  C   UNL     1      30.164  22.345  25.537  0.00  0.00    +0.000 C 
ATOM     20  C   UNL     1      30.112  22.098  27.006  0.00  0.00    +0.000 C 
ENDBRANCH  13  20
ENDBRANCH  12  15
ENDBRANCH   1  12
TORSDOF 4
ENDMDL
MODEL 2
REMARK VINA RESULT:      -6.0     33.111     34.129
REMARK  Name = 
REMARK  4 active torsions:
REMARK  status: ('A' for Active; 'I' for Inactive)
REMARK    1  A    between atoms: C_2  and  C_3
REMARK    2  A    between atoms: N_5  and  C_6
REMARK    3  A    between atoms: C_6  and  C_7
REMARK    4  A    between atoms: C_7  and  C_9
REMARK                            x       y       z     vdW  Elec       q    Type
REMARK                         _______ _______ _______ _____ _____    ______ ____
ROOT
ATOM      1  C   UNL     1      17.283  -9.256  27.410  0.00  0.00    +0.000 C 
ATOM      2  O   UNL     1      17.397  -9.578  28.652  0.00  0.00    +0.000 OA
ENDROOT
BRANCH   1   3
ATOM      3  C   UNL     1      17.834  -7.966  27.043  0.00  0.00    +0.000 A 
ATOM      4  C   UNL     1      17.182  -6.734  27.188  0.00  0.00    +0.000 A 
ATOM      5  N   UNL     1      17.987  -5.790  26.686  0.00  0.00    +0.000 NA
ATOM      6  C   UNL     1      19.122  -6.334  26.225  0.00  0.00    +0.000 A 
ATOM      7  C   UNL     1      20.264  -5.782  25.633  0.00  0.00    +0.000 A 
ATOM      8  C   UNL     1      21.314  -6.598  25.265  0.00  0.00    +0.000 A 
ATOM      9  C   UNL     1      21.233  -7.946  25.483  0.00  0.00    +0.000 A 
ATOM     10  C   UNL     1      20.109  -8.523  26.070  0.00  0.00    +0.000 A 
ATOM     11  C   UNL     1      19.047  -7.688  26.438  0.00  0.00    +0.000 A 
ENDBRANCH   1   3
BRANCH   1  12
ATOM     12  C   UNL     1      16.625 -10.218  26.558  0.00  0.00    +0.000 C 
BRANCH  12  15
ATOM     13  C   UNL     1      13.538  -8.866  25.200  0.00  0.00    +0.000 A 
ATOM     14  N   UNL     1      14.424  -9.384  26.036  0.00  0.00    +0.000 NA
ATOM     15  N   UNL     1      15.594  -9.667  25.659  0.00  0.00    +0.000 N 
ATOM     16  C   UNL     1      15.919  -9.425  24.364  0.00  0.00    +0.000 A 
ATOM     17  N   UNL     1      17.186  -9.672  23.719  0.00  0.00    +0.000 NA
ATOM     18  S   UNL     1      14.456  -8.781  23.764  0.00  0.00    +0.000 S 
BRANCH  13  20
ATOM     19  C   UNL     1      11.589  -8.971  26.732  0.00  0.00    +0.000 C 
ATOM     20  C   UNL     1      12.103  -8.459  25.430  0.00  0.00    +0.000 C 
ENDBRANCH  13  20
ENDBRANCH  12  15
ENDBRANCH   1  12
TORSDOF 4
ENDMDL
MODEL 3
REMARK VINA RESULT:      -5.8      2.666      4.190
REMARK  Name = 
REMARK  4 active torsions:
REMARK  status: ('A' for Active; 'I' for Inactive)
REMARK    1  A    between atoms: C_2  and  C_3
REMARK    2  A    between atoms: N_5  and  C_6
REMARK    3  A    between atoms: C_6  and  C_7
REMARK    4  A    between atoms: C_7  and  C_9
REMARK                            x       y       z     vdW  Elec       q    Type
REMARK                         _______ _______ _______ _____ _____    ______ ____
ROOT
ATOM      1  C   UNL     1      30.254  22.761  26.461  0.00  0.00    +0.000 C 
ATOM      2  O   UNL     1      30.597  21.534  26.654  0.00  0.00    +0.000 OA
ENDROOT
BRANCH   1   3
ATOM      3  C   UNL     1      29.665  23.051  25.168  0.00  0.00    +0.000 A 
ATOM      4  C   UNL     1      30.375  23.404  24.013  0.00  0.00    +0.000 A 
ATOM      5  N   UNL     1      29.481  23.649  23.047  0.00  0.00    +0.000 NA
ATOM      6  C   UNL     1      28.234  23.474  23.506  0.00  0.00    +0.000 A 
ATOM      7  C   UNL     1      26.977  23.589  22.898  0.00  0.00    +0.000 A 
ATOM      8  C   UNL     1      25.833  23.327  23.622  0.00  0.00    +0.000 A 
ATOM      9  C   UNL     1      25.933  22.954  24.935  0.00  0.00    +0.000 A 
ATOM     10  C   UNL     1      27.169  22.832  25.566  0.00  0.00    +0.000 A 
ATOM     11  C   UNL     1      28.326  23.102  24.824  0.00  0.00    +0.000 A 
ENDBRANCH   1   3
BRANCH   1  12
ATOM     12  C   UNL     1      30.503  23.674  27.551  0.00  0.00    +0.000 C 
BRANCH  12  15
ATOM     13  C   UNL     1      27.983  22.950  30.067  0.00  0.00    +0.000 A 
ATOM     14  N   UNL     1      28.559  23.266  28.917  0.00  0.00    +0.000 NA
ATOM     15  N   UNL     1      29.814  23.354  28.815  0.00  0.00    +0.000 N 
ATOM     16  C   UNL     1      30.559  23.115  29.923  0.00  0.00    +0.000 A 
ATOM     17  N   UNL     1      31.996  23.162  30.038  0.00  0.00    +0.000 NA
ATOM     18  S   UNL     1      29.348  22.767  31.076  0.00  0.00    +0.000 S 
BRANCH  13  20
ATOM     19  C   UNL     1      26.151  21.361  30.591  0.00  0.00    +0.000 C 
ATOM     20  C   UNL     1      26.523  22.794  30.415  0.00  0.00    +0.000 C 
ENDBRANCH  13  20
ENDBRANCH  12  15
ENDBRANCH   1  12
TORSDOF 4
ENDMDL
MODEL 4
REMARK VINA RESULT:      -5.7      2.285      5.059
REMARK  Name = 
REMARK  4 active torsions:
REMARK  status: ('A' for Active; 'I' for Inactive)
REMARK    1  A    between atoms: C_2  and  C_3
REMARK    2  A    between atoms: N_5  and  C_6
REMARK    3  A    between atoms: C_6  and  C_7
REMARK    4  A    between atoms: C_7  and  C_9
REMARK                            x       y       z     vdW  Elec       q    Type
REMARK                         _______ _______ _______ _____ _____    ______ ____
ROOT
ATOM      1  C   UNL     1      26.130  23.778  24.897  0.00  0.00    +0.000 C 
ATOM      2  O   UNL     1      25.565  22.633  24.726  0.00  0.00    +0.000 OA
ENDROOT
BRANCH   1   3
ATOM      3  C   UNL     1      25.565  24.606  25.946  0.00  0.00    +0.000 A 
ATOM      4  C   UNL     1      24.798  25.761  25.743  0.00  0.00    +0.000 A 
ATOM      5  N   UNL     1      24.513  26.274  26.946  0.00  0.00    +0.000 NA
ATOM      6  C   UNL     1      25.048  25.520  27.917  0.00  0.00    +0.000 A 
ATOM      7  C   UNL     1      25.024  25.619  29.314  0.00  0.00    +0.000 A 
ATOM      8  C   UNL     1      25.661  24.669  30.084  0.00  0.00    +0.000 A 
ATOM      9  C   UNL     1      26.314  23.631  29.478  0.00  0.00    +0.000 A 
ATOM     10  C   UNL     1      26.354  23.507  28.091  0.00  0.00    +0.000 A 
ATOM     11  C   UNL     1      25.707  24.477  27.315  0.00  0.00    +0.000 A 
ENDBRANCH   1   3
BRANCH   1  12
ATOM     12  C   UNL     1      27.241  24.079  24.026  0.00  0.00    +0.000 C 
BRANCH  12  15
ATOM     13  C   UNL     1      29.935  22.586  25.953  0.00  0.00    +0.000 A 
ATOM     14  N   UNL     1      28.749  23.063  25.609  0.00  0.00    +0.000 NA
ATOM     15  N   UNL     1      28.549  23.561  24.466  0.00  0.00    +0.000 N 
ATOM     16  C   UNL     1      29.591  23.594  23.598  0.00  0.00    +0.000 A 
ATOM     17  N   UNL     1      29.593  24.117  22.253  0.00  0.00    +0.000 NA
ATOM     18  S   UNL     1      30.829  22.876  24.528  0.00  0.00    +0.000 S 
BRANCH  13  20
ATOM     19  C   UNL     1      30.144  22.853  28.411  0.00  0.00    +0.000 C 
ATOM     20  C   UNL     1      30.394  21.958  27.245  0.00  0.00    +0.000 C 
ENDBRANCH  13  20
ENDBRANCH  12  15
ENDBRANCH   1  12
TORSDOF 4
ENDMDL
MODEL 5
REMARK VINA RESULT:      -5.7      3.601      6.257
REMARK  Name = 
REMARK  4 active torsions:
REMARK  status: ('A' for Active; 'I' for Inactive)
REMARK    1  A    between atoms: C_2  and  C_3
REMARK    2  A    between atoms: N_5  and  C_6
REMARK    3  A    between atoms: C_6  and  C_7
REMARK    4  A    between atoms: C_7  and  C_9
REMARK                            x       y       z     vdW  Elec       q    Type
REMARK                         _______ _______ _______ _____ _____    ______ ____
ROOT
ATOM      1  C   UNL     1      27.393  23.777  22.334  0.00  0.00    +0.000 C 
ATOM      2  O   UNL     1      26.386  23.433  21.608  0.00  0.00    +0.000 OA
ENDROOT
BRANCH   1   3
ATOM      3  C   UNL     1      27.341  23.354  23.720  0.00  0.00    +0.000 A 
ATOM      4  C   UNL     1      26.185  23.302  24.509  0.00  0.00    +0.000 A 
ATOM      5  N   UNL     1      26.552  22.922  25.739  0.00  0.00    +0.000 NA
ATOM      6  C   UNL     1      27.877  22.723  25.795  0.00  0.00    +0.000 A 
ATOM      7  C   UNL     1      28.730  22.313  26.827  0.00  0.00    +0.000 A 
ATOM      8  C   UNL     1      30.082  22.174  26.591  0.00  0.00    +0.000 A 
ATOM      9  C   UNL     1      30.583  22.436  25.345  0.00  0.00    +0.000 A 
ATOM     10  C   UNL     1      29.758  22.846  24.300  0.00  0.00    +0.000 A 
ATOM     11  C   UNL     1      28.387  22.987  24.548  0.00  0.00    +0.000 A 
ENDBRANCH   1   3
BRANCH   1  12
ATOM     12  C   UNL     1      28.430  24.532  21.671  0.00  0.00    +0.000 C 
BRANCH  12  15
ATOM     13  C   UNL     1      27.151  27.903  22.116  0.00  0.00    +0.000 A 
ATOM     14  N   UNL     1      27.326  26.597  22.243  0.00  0.00    +0.000 NA
ATOM     15  N   UNL     1      28.178  25.980  21.546  0.00  0.00    +0.000 N 
ATOM     16  C   UNL     1      28.912  26.697  20.659  0.00  0.00    +0.000 A 
ATOM     17  N   UNL     1      29.930  26.203  19.765  0.00  0.00    +0.000 NA
ATOM     18  S   UNL     1      28.296  28.270  20.905  0.00  0.00    +0.000 S 
BRANCH  13  20
ATOM     19  C   UNL     1      26.671  29.139  24.214  0.00  0.00    +0.000 C 
ATOM     20  C   UNL     1      26.202  28.833  22.832  0.00  0.00    +0.000 C 
ENDBRANCH  13  20
ENDBRANCH  12  15
ENDBRANCH   1  12
TORSDOF 4
ENDMDL
MODEL 6
REMARK VINA RESULT:      -5.6      3.005      4.430
REMARK  Name = 
REMARK  4 active torsions:
REMARK  status: ('A' for Active; 'I' for Inactive)
REMARK    1  A    between atoms: C_2  and  C_3
REMARK    2  A    between atoms: N_5  and  C_6
REMARK    3  A    between atoms: C_6  and  C_7
REMARK    4  A    between atoms: C_7  and  C_9
REMARK                            x       y       z     vdW  Elec       q    Type
REMARK                         _______ _______ _______ _____ _____    ______ ____
ROOT
ATOM      1  C   UNL     1      28.878  24.682  21.731  0.00  0.00    +0.000 C 
ATOM      2  O   UNL     1      29.750  24.454  20.811  0.00  0.00    +0.000 OA
ENDROOT
BRANCH   1   3
ATOM      3  C   UNL     1      28.855  26.036  22.252  0.00  0.00    +0.000 A 
ATOM      4  C   UNL     1      28.080  27.087  21.745  0.00  0.00    +0.000 A 
ATOM      5  N   UNL     1      28.377  28.185  22.451  0.00  0.00    +0.000 NA
ATOM      6  C   UNL     1      29.298  27.909  23.385  0.00  0.00    +0.000 A 
ATOM      7  C   UNL     1      29.916  28.695  24.366  0.00  0.00    +0.000 A 
ATOM      8  C   UNL     1      30.837  28.130  25.224  0.00  0.00    +0.000 A 
ATOM      9  C   UNL     1      31.140  26.800  25.113  0.00  0.00    +0.000 A 
ATOM     10  C   UNL     1      30.540  25.995  24.147  0.00  0.00    +0.000 A 
ATOM     11  C   UNL     1      29.609  26.576  23.278  0.00  0.00    +0.000 A 
ENDBRANCH   1   3
BRANCH   1  12
ATOM     12  C   UNL     1      28.047  23.566  22.117  0.00  0.00    +0.000 C 
BRANCH  12  15
ATOM     13  C   UNL     1      29.089  22.607  25.463  0.00  0.00    +0.000 A 
ATOM     14  N   UNL     1      29.112  22.876  24.167  0.00  0.00    +0.000 NA
ATOM     15  N   UNL     1      28.067  23.228  23.552  0.00  0.00    +0.000 N 
ATOM     16  C   UNL     1      26.915  23.320  24.261  0.00  0.00    +0.000 A 
ATOM     17  N   UNL     1      25.612  23.696  23.768  0.00  0.00    +0.000 NA
ATOM     18  S   UNL     1      27.443  22.878  25.823  0.00  0.00    +0.000 S 
BRANCH  13  20
ATOM     19  C   UNL     1      31.273  23.203  26.477  0.00  0.00    +0.000 C 
ATOM     20  C   UNL     1      30.199  22.173  26.388  0.00  0.00    +0.000 C 
ENDBRANCH  13  20
ENDBRANCH  12  15
ENDBRANCH   1  12
TORSDOF 4
ENDMDL
MODEL 7
REMARK VINA RESULT:      -5.6     20.157     21.612
REMARK  Name = 
REMARK  4 active torsions:
REMARK  status: ('A' for Active; 'I' for Inactive)
REMARK    1  A    between atoms: C_2  and  C_3
REMARK    2  A    between atoms: N_5  and  C_6
REMARK    3  A    between atoms: C_6  and  C_7
REMARK    4  A    between atoms: C_7  and  C_9
REMARK                            x       y       z     vdW  Elec       q    Type
REMARK                         _______ _______ _______ _____ _____    ______ ____
ROOT
ATOM      1  C   UNL     1      25.963   4.858  14.279  0.00  0.00    +0.000 C 
ATOM      2  O   UNL     1      26.800   4.129  13.625  0.00  0.00    +0.000 OA
ENDROOT
BRANCH   1   3
ATOM      3  C   UNL     1      24.842   4.151  14.868  0.00  0.00    +0.000 A 
ATOM      4  C   UNL     1      23.664   3.796  14.197  0.00  0.00    +0.000 A 
ATOM      5  N   UNL     1      22.852   3.213  15.088  0.00  0.00    +0.000 NA
ATOM      6  C   UNL     1      23.433   3.168  16.295  0.00  0.00    +0.000 A 
ATOM      7  C   UNL     1      23.012   2.656  17.529  0.00  0.00    +0.000 A 
ATOM      8  C   UNL     1      23.843   2.733  18.627  0.00  0.00    +0.000 A 
ATOM      9  C   UNL     1      25.078   3.309  18.504  0.00  0.00    +0.000 A 
ATOM     10  C   UNL     1      25.522   3.827  17.290  0.00  0.00    +0.000 A 
ATOM     11  C   UNL     1      24.672   3.747  16.180  0.00  0.00    +0.000 A 
ENDBRANCH   1   3
BRANCH   1  12
ATOM     12  C   UNL     1      26.254   6.271  14.335  0.00  0.00    +0.000 C 
BRANCH  12  15
ATOM     13  C   UNL     1      28.009   7.062  17.417  0.00  0.00    +0.000 A 
ATOM     14  N   UNL     1      27.054   6.725  16.564  0.00  0.00    +0.000 NA
ATOM     15  N   UNL     1      27.275   6.669  15.322  0.00  0.00    +0.000 N 
ATOM     16  C   UNL     1      28.524   6.966  14.886  0.00  0.00    +0.000 A 
ATOM     17  N   UNL     1      28.997   6.971  13.523  0.00  0.00    +0.000 NA
ATOM     18  S   UNL     1      29.321   7.317  16.355  0.00  0.00    +0.000 S 
BRANCH  13  20
ATOM     19  C   UNL     1      27.833   5.867  19.585  0.00  0.00    +0.000 C 
ATOM     20  C   UNL     1      27.970   7.195  18.919  0.00  0.00    +0.000 C 
ENDBRANCH  13  20
ENDBRANCH  12  15
ENDBRANCH   1  12
TORSDOF 4
ENDMDL
MODEL 8
REMARK VINA RESULT:      -5.6     23.600     25.764
REMARK  Name = 
REMARK  4 active torsions:
REMARK  status: ('A' for Active; 'I' for Inactive)
REMARK    1  A    between atoms: C_2  and  C_3
REMARK    2  A    between atoms: N_5  and  C_6
REMARK    3  A    between atoms: C_6  and  C_7
REMARK    4  A    between atoms: C_7  and  C_9
REMARK                            x       y       z     vdW  Elec       q    Type
REMARK                         _______ _______ _______ _____ _____    ______ ____
ROOT
ATOM      1  C   UNL     1      34.530   1.775  37.672  0.00  0.00    +0.000 C 
ATOM      2  O   UNL     1      35.795   1.529  37.693  0.00  0.00    +0.000 OA
ENDROOT
BRANCH   1   3
ATOM      3  C   UNL     1      34.159   3.115  37.261  0.00  0.00    +0.000 A 
ATOM      4  C   UNL     1      33.995   4.211  38.119  0.00  0.00    +0.000 A 
ATOM      5  N   UNL     1      33.595   5.250  37.376  0.00  0.00    +0.000 NA
ATOM      6  C   UNL     1      33.491   4.895  36.088  0.00  0.00    +0.000 A 
ATOM      7  C   UNL     1      33.133   5.607  34.936  0.00  0.00    +0.000 A 
ATOM      8  C   UNL     1      33.128   4.977  33.709  0.00  0.00    +0.000 A 
ATOM      9  C   UNL     1      33.477   3.656  33.624  0.00  0.00    +0.000 A 
ATOM     10  C   UNL     1      33.838   2.924  34.753  0.00  0.00    +0.000 A 
ATOM     11  C   UNL     1      33.838   3.570  35.995  0.00  0.00    +0.000 A 
ENDBRANCH   1   3
BRANCH   1  12
ATOM     12  C   UNL     1      33.661   0.689  38.058  0.00  0.00    +0.000 C 
BRANCH  12  15
ATOM     13  C   UNL     1      33.704  -1.478  35.142  0.00  0.00    +0.000 A 
ATOM     14  N   UNL     1      33.661  -0.397  35.906  0.00  0.00    +0.000 NA
ATOM     15  N   UNL     1      33.678  -0.485  37.165  0.00  0.00    +0.000 N 
ATOM     16  C   UNL     1      33.741  -1.723  37.714  0.00  0.00    +0.000 A 
ATOM     17  N   UNL     1      33.767  -2.058  39.118  0.00  0.00    +0.000 NA
ATOM     18  S   UNL     1      33.773  -2.710  36.321  0.00  0.00    +0.000 S 
BRANCH  13  20
ATOM     19  C   UNL     1      34.157  -0.357  32.974  0.00  0.00    +0.000 C 
ATOM     20  C   UNL     1      33.692  -1.608  33.638  0.00  0.00    +0.000 C 
ENDBRANCH  13  20
ENDBRANCH  12  15
ENDBRANCH   1  12
TORSDOF 4
ENDMDL
MODEL 9
REMARK VINA RESULT:      -5.4     32.544     33.463
REMARK  Name = 
REMARK  4 active torsions:
REMARK  status: ('A' for Active; 'I' for Inactive)
REMARK    1  A    between atoms: C_2  and  C_3
REMARK    2  A    between atoms: N_5  and  C_6
REMARK    3  A    between atoms: C_6  and  C_7
REMARK    4  A    between atoms: C_7  and  C_9
REMARK                            x       y       z     vdW  Elec       q    Type
REMARK                         _______ _______ _______ _____ _____    ______ ____
ROOT
ATOM      1  C   UNL     1      17.710  -7.480  27.142  0.00  0.00    +0.000 C 
ATOM      2  O   UNL     1      17.983  -8.110  28.233  0.00  0.00    +0.000 OA
ENDROOT
BRANCH   1   3
ATOM      3  C   UNL     1      18.828  -6.804  26.512  0.00  0.00    +0.000 A 
ATOM      4  C   UNL     1      18.901  -5.430  26.249  0.00  0.00    +0.000 A 
ATOM      5  N   UNL     1      20.055  -5.202  25.610  0.00  0.00    +0.000 NA
ATOM      6  C   UNL     1      20.735  -6.345  25.443  0.00  0.00    +0.000 A 
ATOM      7  C   UNL     1      21.975  -6.632  24.860  0.00  0.00    +0.000 A 
ATOM      8  C   UNL     1      22.447  -7.928  24.843  0.00  0.00    +0.000 A 
ATOM      9  C   UNL     1      21.698  -8.929  25.400  0.00  0.00    +0.000 A 
ATOM     10  C   UNL     1      20.461  -8.673  25.987  0.00  0.00    +0.000 A 
ATOM     11  C   UNL     1      19.988  -7.355  25.998  0.00  0.00    +0.000 A 
ENDBRANCH   1   3
BRANCH   1  12
ATOM     12  C   UNL     1      16.337  -7.534  26.700  0.00  0.00    +0.000 C 
BRANCH  12  15
ATOM     13  C   UNL     1      16.650 -10.056  24.103  0.00  0.00    +0.000 A 
ATOM     14  N   UNL     1      16.952  -9.174  25.044  0.00  0.00    +0.000 NA
ATOM     15  N   UNL     1      16.054  -8.505  25.627  0.00  0.00    +0.000 N 
ATOM     16  C   UNL     1      14.766  -8.716  25.259  0.00  0.00    +0.000 A 
ATOM     17  N   UNL     1      13.589  -8.067  25.784  0.00  0.00    +0.000 NA
ATOM     18  S   UNL     1      14.950  -9.911  24.054  0.00  0.00    +0.000 S 
BRANCH  13  20
ATOM     19  C   UNL     1      18.871 -10.317  23.028  0.00  0.00    +0.000 C 
ATOM     20  C   UNL     1      17.546 -10.951  23.284  0.00  0.00    +0.000 C 
ENDBRANCH  13  20
ENDBRANCH  12  15
ENDBRANCH   1  12
TORSDOF 4
ENDMDL
MODEL 10
REMARK VINA RESULT:      -5.4     26.884     28.949
REMARK  Name = 
REMARK  4 active torsions:
REMARK  status: ('A' for Active; 'I' for Inactive)
REMARK    1  A    between atoms: C_2  and  C_3
REMARK    2  A    between atoms: N_5  and  C_6
REMARK    3  A    between atoms: C_6  and  C_7
REMARK    4  A    between atoms: C_7  and  C_9
REMARK                            x       y       z     vdW  Elec       q    Type
REMARK                         _______ _______ _______ _____ _____    ______ ____
ROOT
ATOM      1  C   UNL     1      33.299  -3.297  34.954  0.00  0.00    +0.000 C 
ATOM      2  O   UNL     1      32.158  -3.888  34.852  0.00  0.00    +0.000 OA
ENDROOT
BRANCH   1   3
ATOM      3  C   UNL     1      33.245  -1.865  35.178  0.00  0.00    +0.000 A 
ATOM      4  C   UNL     1      32.803  -1.244  36.353  0.00  0.00    +0.000 A 
ATOM      5  N   UNL     1      32.848   0.079  36.153  0.00  0.00    +0.000 NA
ATOM      6  C   UNL     1      33.293   0.352  34.918  0.00  0.00    +0.000 A 
ATOM      7  C   UNL     1      33.529   1.556  34.243  0.00  0.00    +0.000 A 
ATOM      8  C   UNL     1      34.017   1.540  32.952  0.00  0.00    +0.000 A 
ATOM      9  C   UNL     1      34.269   0.343  32.339  0.00  0.00    +0.000 A 
ATOM     10  C   UNL     1      34.043  -0.870  32.986  0.00  0.00    +0.000 A 
ATOM     11  C   UNL     1      33.546  -0.844  34.295  0.00  0.00    +0.000 A 
ENDBRANCH   1   3
BRANCH   1  12
ATOM     12  C   UNL     1      34.467  -4.137  34.833  0.00  0.00    +0.000 C 
BRANCH  12  15
ATOM     13  C   UNL     1      34.040  -5.330  31.427  0.00  0.00    +0.000 A 
ATOM     14  N   UNL     1      33.897  -4.631  32.543  0.00  0.00    +0.000 NA
ATOM     15  N   UNL     1      34.568  -4.903  33.576  0.00  0.00    +0.000 N 
ATOM     16  C   UNL     1      35.443  -5.937  33.511  0.00  0.00    +0.000 A 
ATOM     17  N   UNL     1      36.303  -6.424  34.562  0.00  0.00    +0.000 NA
ATOM     18  S   UNL     1      35.226  -6.462  31.900  0.00  0.00    +0.000 S 
BRANCH  13  20
ATOM     19  C   UNL     1      34.116  -5.858  29.004  0.00  0.00    +0.000 C 
ATOM     20  C   UNL     1      33.350  -5.186  30.093  0.00  0.00    +0.000 C 
ENDBRANCH  13  20
ENDBRANCH  12  15
ENDBRANCH   1  12
TORSDOF 4
ENDMDL
