MODEL 1
REMARK VINA RESULT:      -7.2      0.000      0.000
REMARK  Name = 
REMARK  4 active torsions:
REMARK  status: ('A' for Active; 'I' for Inactive)
REMARK    1  A    between atoms: C_5  and  N_6
REMARK    2  A    between atoms: C_7  and  C_9
REMARK    3  A    between atoms: C_9  and  C_10
REMARK    4  A    between atoms: C_13  and  N_14
REMARK                            x       y       z     vdW  Elec       q    Type
REMARK                         _______ _______ _______ _____ _____    ______ ____
ROOT
ATOM      1  N   UNL     1      15.906  11.153  35.689  0.00  0.00    +0.000 NA
ATOM      2  C   UNL     1      16.927  11.688  36.517  0.00  0.00    +0.000 C 
ATOM      3  O   UNL     1      17.366  12.831  36.175  0.00  0.00    +0.000 OA
ENDROOT
BRANCH   1   8
ATOM      4  C   UNL     1      13.683  14.129  31.418  0.00  0.00    +0.000 C 
ATOM      5  C   UNL     1      14.303  13.308  32.490  0.00  0.00    +0.000 A 
ATOM      6  C   UNL     1      13.914  13.585  33.788  0.00  0.00    +0.000 A 
ATOM      7  C   UNL     1      14.466  12.848  34.804  0.00  0.00    +0.000 A 
ATOM      8  C   UNL     1      15.402  11.836  34.551  0.00  0.00    +0.000 A 
ATOM      9  C   UNL     1      15.769  11.582  33.261  0.00  0.00    +0.000 A 
ATOM     10  C   UNL     1      16.766  10.490  33.035  0.00  0.00    +0.000 C 
ATOM     11  C   UNL     1      15.235  12.301  32.214  0.00  0.00    +0.000 A 
ENDBRANCH   1   8
BRANCH   2  12
ATOM     12  C   UNL     1      17.507  11.063  37.707  0.00  0.00    +0.000 C 
BRANCH  12  13
ATOM     13  C   UNL     1      18.960  10.895  37.653  0.00  0.00    +0.000 A 
ATOM     14  C   UNL     1      19.877  11.623  38.384  0.00  0.00    +0.000 A 
ATOM     15  C   UNL     1      21.249  11.392  38.221  0.00  0.00    +0.000 A 
ATOM     16  C   UNL     1      21.701  10.432  37.325  0.00  0.00    +0.000 A 
ATOM     17  C   UNL     1      20.783   9.715  36.604  0.00  0.00    +0.000 A 
ATOM     18  C   UNL     1      19.458   9.956  36.779  0.00  0.00    +0.000 A 
BRANCH  16  19
ATOM     19  N   UNL     1      23.099  10.195  37.142  0.00  0.00    +0.000 N 
ATOM     20  O   UNL     1      23.482   9.004  36.957  0.00  0.00    +0.000 OA
ATOM     21  O   UNL     1      23.976  11.232  37.167  0.00  0.00    +0.000 OA
ENDBRANCH  16  19
ENDBRANCH  12  13
ENDBRANCH   2  12
TORSDOF 4
ENDMDL
MODEL 2
REMARK VINA RESULT:      -7.1      2.759      3.460
REMARK  Name = 
REMARK  4 active torsions:
REMARK  status: ('A' for Active; 'I' for Inactive)
REMARK    1  A    between atoms: C_5  and  N_6
REMARK    2  A    between atoms: C_7  and  C_9
REMARK    3  A    between atoms: C_9  and  C_10
REMARK    4  A    between atoms: C_13  and  N_14
REMARK                            x       y       z     vdW  Elec       q    Type
REMARK                         _______ _______ _______ _____ _____    ______ ____
ROOT
ATOM      1  N   UNL     1      15.058  12.454  36.185  0.00  0.00    +0.000 NA
ATOM      2  C   UNL     1      14.229  11.657  37.018  0.00  0.00    +0.000 C 
ATOM      3  O   UNL     1      13.186  11.187  36.463  0.00  0.00    +0.000 OA
ENDROOT
BRANCH   1   8
ATOM      4  C   UNL     1      13.629  13.853  30.889  0.00  0.00    +0.000 C 
ATOM      5  C   UNL     1      14.042  13.429  32.253  0.00  0.00    +0.000 A 
ATOM      6  C   UNL     1      13.550  14.173  33.310  0.00  0.00    +0.000 A 
ATOM      7  C   UNL     1      13.909  13.812  34.583  0.00  0.00    +0.000 A 
ATOM      8  C   UNL     1      14.753  12.718  34.824  0.00  0.00    +0.000 A 
ATOM      9  C   UNL     1      15.224  12.000  33.764  0.00  0.00    +0.000 A 
ATOM     10  C   UNL     1      16.117  10.838  34.065  0.00  0.00    +0.000 C 
ATOM     11  C   UNL     1      14.884  12.333  32.470  0.00  0.00    +0.000 A 
ENDBRANCH   1   8
BRANCH   2  12
ATOM     12  C   UNL     1      14.460  11.328  38.426  0.00  0.00    +0.000 C 
BRANCH  12  13
ATOM     13  C   UNL     1      15.704  10.601  38.680  0.00  0.00    +0.000 A 
ATOM     14  C   UNL     1      16.752  10.472  37.790  0.00  0.00    +0.000 A 
ATOM     15  C   UNL     1      17.881   9.721  38.137  0.00  0.00    +0.000 A 
ATOM     16  C   UNL     1      17.960   9.099  39.376  0.00  0.00    +0.000 A 
ATOM     17  C   UNL     1      16.916   9.233  40.252  0.00  0.00    +0.000 A 
ATOM     18  C   UNL     1      15.831   9.966  39.894  0.00  0.00    +0.000 A 
BRANCH  16  19
ATOM     19  N   UNL     1      19.103   8.320  39.738  0.00  0.00    +0.000 N 
ATOM     20  O   UNL     1      20.201   8.921  39.921  0.00  0.00    +0.000 OA
ATOM     21  O   UNL     1      18.995   6.973  39.877  0.00  0.00    +0.000 OA
ENDBRANCH  16  19
ENDBRANCH  12  13
ENDBRANCH   2  12
TORSDOF 4
ENDMDL
MODEL 3
REMARK VINA RESULT:      -6.9      1.694      2.340
REMARK  Name = 
REMARK  4 active torsions:
REMARK  status: ('A' for Active; 'I' for Inactive)
REMARK    1  A    between atoms: C_5  and  N_6
REMARK    2  A    between atoms: C_7  and  C_9
REMARK    3  A    between atoms: C_9  and  C_10
REMARK    4  A    between atoms: C_13  and  N_14
REMARK                            x       y       z     vdW  Elec       q    Type
REMARK                         _______ _______ _______ _____ _____    ______ ____
ROOT
ATOM      1  N   UNL     1      17.680  11.225  35.913  0.00  0.00    +0.000 NA
ATOM      2  C   UNL     1      17.969  10.018  36.603  0.00  0.00    +0.000 C 
ATOM      3  O   UNL     1      17.440   8.970  36.117  0.00  0.00    +0.000 OA
ENDROOT
BRANCH   1   8
ATOM      4  C   UNL     1      14.669  11.160  31.120  0.00  0.00    +0.000 C 
ATOM      5  C   UNL     1      15.408  11.219  32.409  0.00  0.00    +0.000 A 
ATOM      6  C   UNL     1      16.636  10.583  32.451  0.00  0.00    +0.000 A 
ATOM      7  C   UNL     1      17.346  10.615  33.623  0.00  0.00    +0.000 A 
ATOM      8  C   UNL     1      16.854  11.272  34.760  0.00  0.00    +0.000 A 
ATOM      9  C   UNL     1      15.640  11.893  34.692  0.00  0.00    +0.000 A 
ATOM     10  C   UNL     1      15.156  12.586  35.926  0.00  0.00    +0.000 C 
ATOM     11  C   UNL     1      14.898  11.881  33.531  0.00  0.00    +0.000 A 
ENDBRANCH   1   8
BRANCH   2  12
ATOM     12  C   UNL     1      18.807   9.869  37.794  0.00  0.00    +0.000 C 
BRANCH  12  13
ATOM     13  C   UNL     1      20.199  10.278  37.608  0.00  0.00    +0.000 A 
ATOM     14  C   UNL     1      20.839  11.283  38.305  0.00  0.00    +0.000 A 
ATOM     15  C   UNL     1      22.170  11.605  38.013  0.00  0.00    +0.000 A 
ATOM     16  C   UNL     1      22.860  10.921  37.021  0.00  0.00    +0.000 A 
ATOM     17  C   UNL     1      22.217   9.924  36.335  0.00  0.00    +0.000 A 
ATOM     18  C   UNL     1      20.926   9.629  36.635  0.00  0.00    +0.000 A 
BRANCH  16  19
ATOM     19  N   UNL     1      24.215  11.248  36.706  0.00  0.00    +0.000 N 
ATOM     20  O   UNL     1      24.879  10.429  36.006  0.00  0.00    +0.000 OA
ATOM     21  O   UNL     1      24.758  12.410  37.152  0.00  0.00    +0.000 OA
ENDBRANCH  16  19
ENDBRANCH  12  13
ENDBRANCH   2  12
TORSDOF 4
ENDMDL
MODEL 4
REMARK VINA RESULT:      -6.7      2.695      7.866
REMARK  Name = 
REMARK  4 active torsions:
REMARK  status: ('A' for Active; 'I' for Inactive)
REMARK    1  A    between atoms: C_5  and  N_6
REMARK    2  A    between atoms: C_7  and  C_9
REMARK    3  A    between atoms: C_9  and  C_10
REMARK    4  A    between atoms: C_13  and  N_14
REMARK                            x       y       z     vdW  Elec       q    Type
REMARK                         _______ _______ _______ _____ _____    ______ ____
ROOT
ATOM      1  N   UNL     1      19.497  10.876  37.449  0.00  0.00    +0.000 NA
ATOM      2  C   UNL     1      18.317  10.086  37.475  0.00  0.00    +0.000 C 
ATOM      3  O   UNL     1      18.485   8.864  37.779  0.00  0.00    +0.000 OA
ENDROOT
BRANCH   1   8
ATOM      4  C   UNL     1      24.677   8.716  38.185  0.00  0.00    +0.000 C 
ATOM      5  C   UNL     1      23.313   9.293  38.064  0.00  0.00    +0.000 A 
ATOM      6  C   UNL     1      22.766   9.333  36.794  0.00  0.00    +0.000 A 
ATOM      7  C   UNL     1      21.509   9.859  36.643  0.00  0.00    +0.000 A 
ATOM      8  C   UNL     1      20.782  10.348  37.739  0.00  0.00    +0.000 A 
ATOM      9  C   UNL     1      21.344  10.296  38.981  0.00  0.00    +0.000 A 
ATOM     10  C   UNL     1      20.533  10.824  40.123  0.00  0.00    +0.000 C 
ATOM     11  C   UNL     1      22.605   9.774  39.172  0.00  0.00    +0.000 A 
ENDBRANCH   1   8
BRANCH   2  12
ATOM     12  C   UNL     1      16.954  10.539  37.194  0.00  0.00    +0.000 C 
BRANCH  12  13
ATOM     13  C   UNL     1      16.659  10.720  35.772  0.00  0.00    +0.000 A 
ATOM     14  C   UNL     1      17.348  10.132  34.730  0.00  0.00    +0.000 A 
ATOM     15  C   UNL     1      16.991  10.411  33.405  0.00  0.00    +0.000 A 
ATOM     16  C   UNL     1      15.943  11.278  33.124  0.00  0.00    +0.000 A 
ATOM     17  C   UNL     1      15.265  11.856  34.165  0.00  0.00    +0.000 A 
ATOM     18  C   UNL     1      15.629  11.572  35.442  0.00  0.00    +0.000 A 
BRANCH  16  19
ATOM     19  N   UNL     1      15.576  11.579  31.776  0.00  0.00    +0.000 N 
ATOM     20  O   UNL     1      14.589  10.966  31.276  0.00  0.00    +0.000 OA
ATOM     21  O   UNL     1      16.279  12.500  31.066  0.00  0.00    +0.000 OA
ENDBRANCH  16  19
ENDBRANCH  12  13
ENDBRANCH   2  12
TORSDOF 4
ENDMDL
MODEL 5
REMARK VINA RESULT:      -6.6      1.743      2.451
REMARK  Name = 
REMARK  4 active torsions:
REMARK  status: ('A' for Active; 'I' for Inactive)
REMARK    1  A    between atoms: C_5  and  N_6
REMARK    2  A    between atoms: C_7  and  C_9
REMARK    3  A    between atoms: C_9  and  C_10
REMARK    4  A    between atoms: C_13  and  N_14
REMARK                            x       y       z     vdW  Elec       q    Type
REMARK                         _______ _______ _______ _____ _____    ______ ____
ROOT
ATOM      1  N   UNL     1      17.175  10.011  36.986  0.00  0.00    +0.000 NA
ATOM      2  C   UNL     1      18.308  10.414  37.740  0.00  0.00    +0.000 C 
ATOM      3  O   UNL     1      18.507  11.669  37.798  0.00  0.00    +0.000 OA
ENDROOT
BRANCH   1   8
ATOM      4  C   UNL     1      13.580  13.773  34.758  0.00  0.00    +0.000 C 
ATOM      5  C   UNL     1      14.553  12.776  35.276  0.00  0.00    +0.000 A 
ATOM      6  C   UNL     1      14.458  12.456  36.619  0.00  0.00    +0.000 A 
ATOM      7  C   UNL     1      15.340  11.540  37.133  0.00  0.00    +0.000 A 
ATOM      8  C   UNL     1      16.318  10.934  36.332  0.00  0.00    +0.000 A 
ATOM      9  C   UNL     1      16.389  11.266  35.010  0.00  0.00    +0.000 A 
ATOM     10  C   UNL     1      17.444  10.592  34.190  0.00  0.00    +0.000 C 
ATOM     11  C   UNL     1      15.520  12.182  34.458  0.00  0.00    +0.000 A 
ENDBRANCH   1   8
BRANCH   2  12
ATOM     12  C   UNL     1      19.245   9.542  38.449  0.00  0.00    +0.000 C 
BRANCH  12  13
ATOM     13  C   UNL     1      20.629   9.639  37.984  0.00  0.00    +0.000 A 
ATOM     14  C   UNL     1      21.025   9.759  36.666  0.00  0.00    +0.000 A 
ATOM     15  C   UNL     1      22.386   9.811  36.343  0.00  0.00    +0.000 A 
ATOM     16  C   UNL     1      23.351   9.742  37.339  0.00  0.00    +0.000 A 
ATOM     17  C   UNL     1      22.949   9.623  38.643  0.00  0.00    +0.000 A 
ATOM     18  C   UNL     1      21.623   9.575  38.933  0.00  0.00    +0.000 A 
BRANCH  16  19
ATOM     19  N   UNL     1      24.744   9.782  37.020  0.00  0.00    +0.000 N 
ATOM     20  O   UNL     1      25.561   9.302  37.858  0.00  0.00    +0.000 OA
ATOM     21  O   UNL     1      25.160  10.324  35.846  0.00  0.00    +0.000 OA
ENDBRANCH  16  19
ENDBRANCH  12  13
ENDBRANCH   2  12
TORSDOF 4
ENDMDL
MODEL 6
REMARK VINA RESULT:      -6.5     16.983     18.796
REMARK  Name = 
REMARK  4 active torsions:
REMARK  status: ('A' for Active; 'I' for Inactive)
REMARK    1  A    between atoms: C_5  and  N_6
REMARK    2  A    between atoms: C_7  and  C_9
REMARK    3  A    between atoms: C_9  and  C_10
REMARK    4  A    between atoms: C_13  and  N_14
REMARK                            x       y       z     vdW  Elec       q    Type
REMARK                         _______ _______ _______ _____ _____    ______ ____
ROOT
ATOM      1  N   UNL     1      34.546   4.366  34.771  0.00  0.00    +0.000 NA
ATOM      2  C   UNL     1      33.568   4.090  33.780  0.00  0.00    +0.000 C 
ATOM      3  O   UNL     1      32.506   4.785  33.851  0.00  0.00    +0.000 OA
ENDROOT
BRANCH   1   8
ATOM      4  C   UNL     1      33.872   8.573  38.497  0.00  0.00    +0.000 C 
ATOM      5  C   UNL     1      34.037   7.421  37.573  0.00  0.00    +0.000 A 
ATOM      6  C   UNL     1      34.373   7.718  36.265  0.00  0.00    +0.000 A 
ATOM      7  C   UNL     1      34.533   6.680  35.382  0.00  0.00    +0.000 A 
ATOM      8  C   UNL     1      34.363   5.347  35.781  0.00  0.00    +0.000 A 
ATOM      9  C   UNL     1      34.031   5.081  37.078  0.00  0.00    +0.000 A 
ATOM     10  C   UNL     1      33.864   3.644  37.462  0.00  0.00    +0.000 C 
ATOM     11  C   UNL     1      33.863   6.097  37.992  0.00  0.00    +0.000 A 
ENDBRANCH   1   8
BRANCH   2  12
ATOM     12  C   UNL     1      33.667   3.104  32.702  0.00  0.00    +0.000 C 
BRANCH  12  13
ATOM     13  C   UNL     1      33.543   1.714  33.143  0.00  0.00    +0.000 A 
ATOM     14  C   UNL     1      32.735   1.269  34.170  0.00  0.00    +0.000 A 
ATOM     15  C   UNL     1      32.727  -0.087  34.522  0.00  0.00    +0.000 A 
ATOM     16  C   UNL     1      33.531  -0.996  33.845  0.00  0.00    +0.000 A 
ATOM     17  C   UNL     1      34.329  -0.544  32.827  0.00  0.00    +0.000 A 
ATOM     18  C   UNL     1      34.320   0.775  32.504  0.00  0.00    +0.000 A 
BRANCH  16  19
ATOM     19  N   UNL     1      33.540  -2.380  34.202  0.00  0.00    +0.000 N 
ATOM     20  O   UNL     1      33.296  -3.230  33.298  0.00  0.00    +0.000 OA
ATOM     21  O   UNL     1      33.807  -2.753  35.481  0.00  0.00    +0.000 OA
ENDBRANCH  16  19
ENDBRANCH  12  13
ENDBRANCH   2  12
TORSDOF 4
ENDMDL
MODEL 7
REMARK VINA RESULT:      -6.5      3.823      8.083
REMARK  Name = 
REMARK  4 active torsions:
REMARK  status: ('A' for Active; 'I' for Inactive)
REMARK    1  A    between atoms: C_5  and  N_6
REMARK    2  A    between atoms: C_7  and  C_9
REMARK    3  A    between atoms: C_9  and  C_10
REMARK    4  A    between atoms: C_13  and  N_14
REMARK                            x       y       z     vdW  Elec       q    Type
REMARK                         _______ _______ _______ _____ _____    ______ ____
ROOT
ATOM      1  N   UNL     1      17.746  10.121  39.195  0.00  0.00    +0.000 NA
ATOM      2  C   UNL     1      17.727  10.232  37.780  0.00  0.00    +0.000 C 
ATOM      3  O   UNL     1      17.669   9.132  37.145  0.00  0.00    +0.000 OA
ENDROOT
BRANCH   1   8
ATOM      4  C   UNL     1      17.969   5.056  41.712  0.00  0.00    +0.000 C 
ATOM      5  C   UNL     1      17.846   6.397  41.084  0.00  0.00    +0.000 A 
ATOM      6  C   UNL     1      18.853   6.769  40.212  0.00  0.00    +0.000 A 
ATOM      7  C   UNL     1      18.775   8.001  39.614  0.00  0.00    +0.000 A 
ATOM      8  C   UNL     1      17.706   8.872  39.869  0.00  0.00    +0.000 A 
ATOM      9  C   UNL     1      16.725   8.481  40.732  0.00  0.00    +0.000 A 
ATOM     10  C   UNL     1      15.601   9.439  40.972  0.00  0.00    +0.000 C 
ATOM     11  C   UNL     1      16.770   7.251  41.352  0.00  0.00    +0.000 A 
ENDBRANCH   1   8
BRANCH   2  12
ATOM     12  C   UNL     1      17.762  11.469  36.998  0.00  0.00    +0.000 C 
BRANCH  12  13
ATOM     13  C   UNL     1      17.047  11.398  35.723  0.00  0.00    +0.000 A 
ATOM     14  C   UNL     1      17.509  10.776  34.580  0.00  0.00    +0.000 A 
ATOM     15  C   UNL     1      16.744  10.803  33.407  0.00  0.00    +0.000 A 
ATOM     16  C   UNL     1      15.518  11.454  33.379  0.00  0.00    +0.000 A 
ATOM     17  C   UNL     1      15.068  12.068  34.519  0.00  0.00    +0.000 A 
ATOM     18  C   UNL     1      15.826  12.028  35.644  0.00  0.00    +0.000 A 
BRANCH  16  19
ATOM     19  N   UNL     1      14.733  11.499  32.185  0.00  0.00    +0.000 N 
ATOM     20  O   UNL     1      14.283  12.620  31.809  0.00  0.00    +0.000 OA
ATOM     21  O   UNL     1      14.489  10.360  31.486  0.00  0.00    +0.000 OA
ENDBRANCH  16  19
ENDBRANCH  12  13
ENDBRANCH   2  12
TORSDOF 4
ENDMDL
MODEL 8
REMARK VINA RESULT:      -6.4     16.707     19.615
REMARK  Name = 
REMARK  4 active torsions:
REMARK  status: ('A' for Active; 'I' for Inactive)
REMARK    1  A    between atoms: C_5  and  N_6
REMARK    2  A    between atoms: C_7  and  C_9
REMARK    3  A    between atoms: C_9  and  C_10
REMARK    4  A    between atoms: C_13  and  N_14
REMARK                            x       y       z     vdW  Elec       q    Type
REMARK                         _______ _______ _______ _____ _____    ______ ____
ROOT
ATOM      1  N   UNL     1      34.305  -0.220  33.773  0.00  0.00    +0.000 NA
ATOM      2  C   UNL     1      33.398   0.843  33.522  0.00  0.00    +0.000 C 
ATOM      3  O   UNL     1      32.192   0.625  33.860  0.00  0.00    +0.000 OA
ENDROOT
BRANCH   1   8
ATOM      4  C   UNL     1      32.672  -5.281  35.712  0.00  0.00    +0.000 C 
ATOM      5  C   UNL     1      33.107  -3.930  35.272  0.00  0.00    +0.000 A 
ATOM      6  C   UNL     1      33.126  -3.697  33.909  0.00  0.00    +0.000 A 
ATOM      7  C   UNL     1      33.524  -2.462  33.465  0.00  0.00    +0.000 A 
ATOM      8  C   UNL     1      33.905  -1.450  34.358  0.00  0.00    +0.000 A 
ATOM      9  C   UNL     1      33.876  -1.705  35.698  0.00  0.00    +0.000 A 
ATOM     10  C   UNL     1      34.286  -0.596  36.616  0.00  0.00    +0.000 C 
ATOM     11  C   UNL     1      33.482  -2.934  36.181  0.00  0.00    +0.000 A 
ENDBRANCH   1   8
BRANCH   2  12
ATOM     12  C   UNL     1      33.715   2.143  32.927  0.00  0.00    +0.000 C 
BRANCH  12  13
ATOM     13  C   UNL     1      33.642   3.267  33.860  0.00  0.00    +0.000 A 
ATOM     14  C   UNL     1      33.086   4.501  33.586  0.00  0.00    +0.000 A 
ATOM     15  C   UNL     1      33.107   5.513  34.554  0.00  0.00    +0.000 A 
ATOM     16  C   UNL     1      33.684   5.288  35.797  0.00  0.00    +0.000 A 
ATOM     17  C   UNL     1      34.233   4.061  36.060  0.00  0.00    +0.000 A 
ATOM     18  C   UNL     1      34.202   3.095  35.106  0.00  0.00    +0.000 A 
BRANCH  16  19
ATOM     19  N   UNL     1      33.721   6.316  36.789  0.00  0.00    +0.000 N 
ATOM     20  O   UNL     1      34.084   7.475  36.434  0.00  0.00    +0.000 OA
ATOM     21  O   UNL     1      33.371   6.039  38.072  0.00  0.00    +0.000 OA
ENDBRANCH  16  19
ENDBRANCH  12  13
ENDBRANCH   2  12
TORSDOF 4
ENDMDL
MODEL 9
REMARK VINA RESULT:      -6.4      2.743      7.708
REMARK  Name = 
REMARK  4 active torsions:
REMARK  status: ('A' for Active; 'I' for Inactive)
REMARK    1  A    between atoms: C_5  and  N_6
REMARK    2  A    between atoms: C_7  and  C_9
REMARK    3  A    between atoms: C_9  and  C_10
REMARK    4  A    between atoms: C_13  and  N_14
REMARK                            x       y       z     vdW  Elec       q    Type
REMARK                         _______ _______ _______ _____ _____    ______ ____
ROOT
ATOM      1  N   UNL     1      20.979  10.540  37.247  0.00  0.00    +0.000 NA
ATOM      2  C   UNL     1      20.207   9.806  38.185  0.00  0.00    +0.000 C 
ATOM      3  O   UNL     1      20.754   9.621  39.318  0.00  0.00    +0.000 OA
ENDROOT
BRANCH   1   8
ATOM      4  C   UNL     1      25.964  12.840  38.628  0.00  0.00    +0.000 C 
ATOM      5  C   UNL     1      24.691  12.183  38.231  0.00  0.00    +0.000 A 
ATOM      6  C   UNL     1      23.521  12.832  38.582  0.00  0.00    +0.000 A 
ATOM      7  C   UNL     1      22.327  12.255  38.234  0.00  0.00    +0.000 A 
ATOM      8  C   UNL     1      22.276  11.038  37.540  0.00  0.00    +0.000 A 
ATOM      9  C   UNL     1      23.445  10.418  37.205  0.00  0.00    +0.000 A 
ATOM     10  C   UNL     1      23.345   9.124  36.460  0.00  0.00    +0.000 C 
ATOM     11  C   UNL     1      24.663  10.968  37.537  0.00  0.00    +0.000 A 
ENDBRANCH   1   8
BRANCH   2  12
ATOM     12  C   UNL     1      18.866   9.257  37.978  0.00  0.00    +0.000 C 
BRANCH  12  13
ATOM     13  C   UNL     1      18.131   9.863  36.867  0.00  0.00    +0.000 A 
ATOM     14  C   UNL     1      17.362  11.007  36.947  0.00  0.00    +0.000 A 
ATOM     15  C   UNL     1      16.676  11.473  35.818  0.00  0.00    +0.000 A 
ATOM     16  C   UNL     1      16.761  10.792  34.610  0.00  0.00    +0.000 A 
ATOM     17  C   UNL     1      17.527   9.659  34.542  0.00  0.00    +0.000 A 
ATOM     18  C   UNL     1      18.183   9.226  35.649  0.00  0.00    +0.000 A 
BRANCH  16  19
ATOM     19  N   UNL     1      16.057  11.252  33.454  0.00  0.00    +0.000 N 
ATOM     20  O   UNL     1      16.361  10.751  32.333  0.00  0.00    +0.000 OA
ATOM     21  O   UNL     1      15.091  12.200  33.575  0.00  0.00    +0.000 OA
ENDBRANCH  16  19
ENDBRANCH  12  13
ENDBRANCH   2  12
TORSDOF 4
ENDMDL
MODEL 10
REMARK VINA RESULT:      -6.4     20.143     21.958
REMARK  Name = 
REMARK  4 active torsions:
REMARK  status: ('A' for Active; 'I' for Inactive)
REMARK    1  A    between atoms: C_5  and  N_6
REMARK    2  A    between atoms: C_7  and  C_9
REMARK    3  A    between atoms: C_9  and  C_10
REMARK    4  A    between atoms: C_13  and  N_14
REMARK                            x       y       z     vdW  Elec       q    Type
REMARK                         _______ _______ _______ _____ _____    ______ ____
ROOT
ATOM      1  N   UNL     1      25.402   4.990  18.163  0.00  0.00    +0.000 NA
ATOM      2  C   UNL     1      25.363   3.572  18.096  0.00  0.00    +0.000 C 
ATOM      3  O   UNL     1      26.157   3.043  17.256  0.00  0.00    +0.000 OA
ENDROOT
BRANCH   1   8
ATOM      4  C   UNL     1      28.528   8.106  14.619  0.00  0.00    +0.000 C 
ATOM      5  C   UNL     1      27.760   7.294  15.599  0.00  0.00    +0.000 A 
ATOM      6  C   UNL     1      26.553   6.777  15.166  0.00  0.00    +0.000 A 
ATOM      7  C   UNL     1      25.815   6.023  16.044  0.00  0.00    +0.000 A 
ATOM      8  C   UNL     1      26.261   5.775  17.350  0.00  0.00    +0.000 A 
ATOM      9  C   UNL     1      27.456   6.297  17.752  0.00  0.00    +0.000 A 
ATOM     10  C   UNL     1      27.895   6.003  19.152  0.00  0.00    +0.000 C 
ATOM     11  C   UNL     1      28.224   7.058  16.898  0.00  0.00    +0.000 A 
ENDBRANCH   1   8
BRANCH   2  12
ATOM     12  C   UNL     1      24.517   2.680  18.890  0.00  0.00    +0.000 C 
BRANCH  12  13
ATOM     13  C   UNL     1      23.223   2.373  18.279  0.00  0.00    +0.000 A 
ATOM     14  C   UNL     1      22.110   3.189  18.308  0.00  0.00    +0.000 A 
ATOM     15  C   UNL     1      20.914   2.769  17.712  0.00  0.00    +0.000 A 
ATOM     16  C   UNL     1      20.834   1.530  17.090  0.00  0.00    +0.000 A 
ATOM     17  C   UNL     1      21.944   0.728  17.066  0.00  0.00    +0.000 A 
ATOM     18  C   UNL     1      23.092   1.156  17.650  0.00  0.00    +0.000 A 
BRANCH  16  19
ATOM     19  N   UNL     1      19.615   1.086  16.489  0.00  0.00    +0.000 N 
ATOM     20  O   UNL     1      18.531   1.602  16.886  0.00  0.00    +0.000 OA
ATOM     21  O   UNL     1      19.640   0.135  15.518  0.00  0.00    +0.000 OA
ENDBRANCH  16  19
ENDBRANCH  12  13
ENDBRANCH   2  12
TORSDOF 4
ENDMDL
