MODEL 1
REMARK VINA RESULT:      -7.1      0.000      0.000
REMARK  Name = 
REMARK  3 active torsions:
REMARK  status: ('A' for Active; 'I' for Inactive)
REMARK    1  A    between atoms: O_2  and  C_3
REMARK    2  A    between atoms: C_8  and  O_9
REMARK    3  A    between atoms: C_14  and  C_15
REMARK                            x       y       z     vdW  Elec       q    Type
REMARK                         _______ _______ _______ _____ _____    ______ ____
ROOT
ATOM      1  C   UNL     1      14.400  13.168  33.885  0.00  0.00    +0.000 A 
ATOM      2  C   UNL     1      14.767  12.879  35.220  0.00  0.00    +0.000 A 
ATOM      3  C   UNL     1      15.526  11.782  35.503  0.00  0.00    +0.000 A 
ATOM      4  C   UNL     1      15.919  10.987  34.525  0.00  0.00    +0.000 A 
ATOM      5  C   UNL     1      15.592  11.211  33.177  0.00  0.00    +0.000 A 
ATOM      6  C   UNL     1      14.819  12.327  32.877  0.00  0.00    +0.000 A 
ATOM      7  C   UNL     1      16.799   9.688  34.716  0.00  0.00    +0.000 C 
ATOM      8  C   UNL     1      18.202  10.430  34.285  0.00  0.00    +0.000 C 
ATOM      9  O   UNL     1      17.042   9.612  36.174  0.00  0.00    +0.000 OA
ATOM     10  C   UNL     1      16.660  10.390  37.150  0.00  0.00    +0.000 C 
ATOM     11  C   UNL     1      15.935  11.426  36.816  0.00  0.00    +0.000 C 
ENDROOT
BRANCH  10  12
ATOM     12  C   UNL     1      17.020  10.123  38.539  0.00  0.00    +0.000 A 
ATOM     13  C   UNL     1      16.079   9.911  39.497  0.00  0.00    +0.000 A 
ATOM     14  C   UNL     1      16.348   9.657  40.814  0.00  0.00    +0.000 A 
ATOM     15  C   UNL     1      17.635   9.604  41.230  0.00  0.00    +0.000 A 
ATOM     16  O   UNL     1      18.036   9.354  42.541  0.00  0.00    +0.000 OA
ATOM     17  C   UNL     1      18.639   9.810  40.312  0.00  0.00    +0.000 A 
ATOM     18  C   UNL     1      18.332  10.069  38.969  0.00  0.00    +0.000 A 
ENDBRANCH  10  12
BRANCH   1  20
ATOM     19  C   UNL     1      12.865  14.953  34.606  0.00  0.00    +0.000 C 
ATOM     20  O   UNL     1      13.632  14.283  33.626  0.00  0.00    +0.000 OA
ENDBRANCH   1  20
BRANCH   6  21
ATOM     21  O   UNL     1      14.479  12.571  31.530  0.00  0.00    +0.000 OA
ATOM     22  C   UNL     1      15.374  13.226  30.681  0.00  0.00    +0.000 C 
ENDBRANCH   6  21
TORSDOF 3
ENDMDL
MODEL 2
REMARK VINA RESULT:      -6.8      2.101      3.377
REMARK  Name = 
REMARK  3 active torsions:
REMARK  status: ('A' for Active; 'I' for Inactive)
REMARK    1  A    between atoms: O_2  and  C_3
REMARK    2  A    between atoms: C_8  and  O_9
REMARK    3  A    between atoms: C_14  and  C_15
REMARK                            x       y       z     vdW  Elec       q    Type
REMARK                         _______ _______ _______ _____ _____    ______ ____
ROOT
ATOM      1  C   UNL     1      15.095  11.836  36.239  0.00  0.00    +0.000 A 
ATOM      2  C   UNL     1      14.924  11.417  37.579  0.00  0.00    +0.000 A 
ATOM      3  C   UNL     1      15.885  10.671  38.195  0.00  0.00    +0.000 A 
ATOM      4  C   UNL     1      16.979  10.338  37.535  0.00  0.00    +0.000 A 
ATOM      5  C   UNL     1      17.216  10.717  36.203  0.00  0.00    +0.000 A 
ATOM      6  C   UNL     1      16.243  11.478  35.566  0.00  0.00    +0.000 A 
ATOM      7  C   UNL     1      18.166   9.479  38.129  0.00  0.00    +0.000 C 
ATOM      8  C   UNL     1      19.109  10.788  38.454  0.00  0.00    +0.000 C 
ATOM      9  O   UNL     1      17.748   9.174  39.517  0.00  0.00    +0.000 OA
ATOM     10  C   UNL     1      16.672   9.497  40.180  0.00  0.00    +0.000 C 
ATOM     11  C   UNL     1      15.787  10.214  39.536  0.00  0.00    +0.000 C 
ENDROOT
BRANCH  10  12
ATOM     12  C   UNL     1      16.462   9.083  41.564  0.00  0.00    +0.000 A 
ATOM     13  C   UNL     1      16.014   7.839  41.881  0.00  0.00    +0.000 A 
ATOM     14  C   UNL     1      15.796   7.388  43.154  0.00  0.00    +0.000 A 
ATOM     15  C   UNL     1      16.033   8.214  44.200  0.00  0.00    +0.000 A 
ATOM     16  O   UNL     1      15.850   7.873  45.539  0.00  0.00    +0.000 OA
ATOM     17  C   UNL     1      16.488   9.489  43.951  0.00  0.00    +0.000 A 
ATOM     18  C   UNL     1      16.701   9.922  42.635  0.00  0.00    +0.000 A 
ENDBRANCH  10  12
BRANCH   1  20
ATOM     19  C   UNL     1      12.950  13.042  36.310  0.00  0.00    +0.000 C 
ATOM     20  O   UNL     1      14.108  12.589  35.640  0.00  0.00    +0.000 OA
ENDBRANCH   1  20
BRANCH   6  21
ATOM     21  O   UNL     1      16.461  11.870  34.228  0.00  0.00    +0.000 OA
ATOM     22  C   UNL     1      16.010  11.073  33.175  0.00  0.00    +0.000 C 
ENDBRANCH   6  21
TORSDOF 3
ENDMDL
MODEL 3
REMARK VINA RESULT:      -6.5     18.801     20.814
REMARK  Name = 
REMARK  3 active torsions:
REMARK  status: ('A' for Active; 'I' for Inactive)
REMARK    1  A    between atoms: O_2  and  C_3
REMARK    2  A    between atoms: C_8  and  O_9
REMARK    3  A    between atoms: C_14  and  C_15
REMARK                            x       y       z     vdW  Elec       q    Type
REMARK                         _______ _______ _______ _____ _____    ______ ____
ROOT
ATOM      1  C   UNL     1      28.284  23.316  23.661  0.00  0.00    +0.000 A 
ATOM      2  C   UNL     1      28.397  22.939  25.020  0.00  0.00    +0.000 A 
ATOM      3  C   UNL     1      29.587  23.073  25.674  0.00  0.00    +0.000 A 
ATOM      4  C   UNL     1      30.636  23.554  25.034  0.00  0.00    +0.000 A 
ATOM      5  C   UNL     1      30.597  23.947  23.685  0.00  0.00    +0.000 A 
ATOM      6  C   UNL     1      29.389  23.816  23.009  0.00  0.00    +0.000 A 
ATOM      7  C   UNL     1      32.067  23.759  25.672  0.00  0.00    +0.000 C 
ATOM      8  C   UNL     1      31.852  25.369  25.933  0.00  0.00    +0.000 C 
ATOM      9  O   UNL     1      31.922  23.299  27.072  0.00  0.00    +0.000 OA
ATOM     10  C   UNL     1      30.892  22.823  27.716  0.00  0.00    +0.000 C 
ATOM     11  C   UNL     1      29.779  22.719  27.036  0.00  0.00    +0.000 C 
ENDROOT
BRANCH  10  12
ATOM     12  C   UNL     1      30.972  22.425  29.118  0.00  0.00    +0.000 A 
ATOM     13  C   UNL     1      32.038  21.738  29.609  0.00  0.00    +0.000 A 
ATOM     14  C   UNL     1      32.175  21.334  30.910  0.00  0.00    +0.000 A 
ATOM     15  C   UNL     1      31.198  21.625  31.801  0.00  0.00    +0.000 A 
ATOM     16  O   UNL     1      31.222  21.270  33.149  0.00  0.00    +0.000 OA
ATOM     17  C   UNL     1      30.090  22.318  31.370  0.00  0.00    +0.000 A 
ATOM     18  C   UNL     1      29.978  22.717  30.031  0.00  0.00    +0.000 A 
ENDBRANCH  10  12
BRANCH   1  20
ATOM     19  C   UNL     1      25.823  23.224  23.686  0.00  0.00    +0.000 C 
ATOM     20  O   UNL     1      27.070  23.170  23.024  0.00  0.00    +0.000 OA
ENDBRANCH   1  20
BRANCH   6  21
ATOM     21  O   UNL     1      29.328  24.204  21.654  0.00  0.00    +0.000 OA
ATOM     22  C   UNL     1      29.238  25.553  21.308  0.00  0.00    +0.000 C 
ENDBRANCH   6  21
TORSDOF 3
ENDMDL
MODEL 4
REMARK VINA RESULT:      -6.5     17.621     20.519
REMARK  Name = 
REMARK  3 active torsions:
REMARK  status: ('A' for Active; 'I' for Inactive)
REMARK    1  A    between atoms: O_2  and  C_3
REMARK    2  A    between atoms: C_8  and  O_9
REMARK    3  A    between atoms: C_14  and  C_15
REMARK                            x       y       z     vdW  Elec       q    Type
REMARK                         _______ _______ _______ _____ _____    ______ ____
ROOT
ATOM      1  C   UNL     1      31.246  22.604  30.139  0.00  0.00    +0.000 A 
ATOM      2  C   UNL     1      30.789  22.718  28.805  0.00  0.00    +0.000 A 
ATOM      3  C   UNL     1      29.453  22.785  28.539  0.00  0.00    +0.000 A 
ATOM      4  C   UNL     1      28.585  22.743  29.532  0.00  0.00    +0.000 A 
ATOM      5  C   UNL     1      28.966  22.630  30.880  0.00  0.00    +0.000 A 
ATOM      6  C   UNL     1      30.325  22.561  31.162  0.00  0.00    +0.000 A 
ATOM      7  C   UNL     1      27.015  22.811  29.363  0.00  0.00    +0.000 C 
ATOM      8  C   UNL     1      26.923  24.411  29.735  0.00  0.00    +0.000 C 
ATOM      9  O   UNL     1      26.801  22.925  27.902  0.00  0.00    +0.000 OA
ATOM     10  C   UNL     1      27.650  22.968  26.911  0.00  0.00    +0.000 C 
ATOM     11  C   UNL     1      28.917  22.900  27.229  0.00  0.00    +0.000 C 
ENDROOT
BRANCH  10  12
ATOM     12  C   UNL     1      27.214  23.085  25.523  0.00  0.00    +0.000 A 
ATOM     13  C   UNL     1      28.098  23.248  24.504  0.00  0.00    +0.000 A 
ATOM     14  C   UNL     1      27.756  23.365  23.184  0.00  0.00    +0.000 A 
ATOM     15  C   UNL     1      26.450  23.317  22.830  0.00  0.00    +0.000 A 
ATOM     16  O   UNL     1      25.977  23.424  21.523  0.00  0.00    +0.000 OA
ATOM     17  C   UNL     1      25.501  23.154  23.813  0.00  0.00    +0.000 A 
ATOM     18  C   UNL     1      25.883  23.038  25.157  0.00  0.00    +0.000 A 
ENDBRANCH  10  12
BRANCH   1  20
ATOM     19  C   UNL     1      33.328  21.328  30.456  0.00  0.00    +0.000 C 
ATOM     20  O   UNL     1      32.602  22.538  30.380  0.00  0.00    +0.000 OA
ENDBRANCH   1  20
BRANCH   6  21
ATOM     21  O   UNL     1      30.731  22.448  32.509  0.00  0.00    +0.000 OA
ATOM     22  C   UNL     1      30.572  21.244  33.197  0.00  0.00    +0.000 C 
ENDBRANCH   6  21
TORSDOF 3
ENDMDL
MODEL 5
REMARK VINA RESULT:      -6.2     20.029     22.721
REMARK  Name = 
REMARK  3 active torsions:
REMARK  status: ('A' for Active; 'I' for Inactive)
REMARK    1  A    between atoms: O_2  and  C_3
REMARK    2  A    between atoms: C_8  and  O_9
REMARK    3  A    between atoms: C_14  and  C_15
REMARK                            x       y       z     vdW  Elec       q    Type
REMARK                         _______ _______ _______ _____ _____    ______ ____
ROOT
ATOM      1  C   UNL     1      33.472  -5.016  32.836  0.00  0.00    +0.000 A 
ATOM      2  C   UNL     1      33.587  -3.610  32.732  0.00  0.00    +0.000 A 
ATOM      3  C   UNL     1      33.486  -2.827  33.844  0.00  0.00    +0.000 A 
ATOM      4  C   UNL     1      33.278  -3.386  35.022  0.00  0.00    +0.000 A 
ATOM      5  C   UNL     1      33.153  -4.774  35.200  0.00  0.00    +0.000 A 
ATOM      6  C   UNL     1      33.255  -5.581  34.073  0.00  0.00    +0.000 A 
ATOM      7  C   UNL     1      33.141  -2.597  36.384  0.00  0.00    +0.000 C 
ATOM      8  C   UNL     1      34.694  -2.885  36.846  0.00  0.00    +0.000 C 
ATOM      9  O   UNL     1      33.296  -1.173  36.009  0.00  0.00    +0.000 OA
ATOM     10  C   UNL     1      33.502  -0.608  34.850  0.00  0.00    +0.000 C 
ATOM     11  C   UNL     1      33.591  -1.411  33.822  0.00  0.00    +0.000 C 
ENDROOT
BRANCH  10  12
ATOM     12  C   UNL     1      33.626   0.839  34.706  0.00  0.00    +0.000 A 
ATOM     13  C   UNL     1      33.472   1.456  33.505  0.00  0.00    +0.000 A 
ATOM     14  C   UNL     1      33.575   2.805  33.301  0.00  0.00    +0.000 A 
ATOM     15  C   UNL     1      33.850   3.616  34.351  0.00  0.00    +0.000 A 
ATOM     16  O   UNL     1      33.980   5.002  34.271  0.00  0.00    +0.000 OA
ATOM     17  C   UNL     1      34.019   3.056  35.596  0.00  0.00    +0.000 A 
ATOM     18  C   UNL     1      33.907   1.670  35.773  0.00  0.00    +0.000 A 
ENDBRANCH  10  12
BRANCH   1  20
ATOM     19  C   UNL     1      33.003  -5.431  30.455  0.00  0.00    +0.000 C 
ATOM     20  O   UNL     1      33.579  -5.784  31.696  0.00  0.00    +0.000 OA
ENDBRANCH   1  20
BRANCH   6  21
ATOM     21  O   UNL     1      33.133  -6.979  34.229  0.00  0.00    +0.000 OA
ATOM     22  C   UNL     1      31.874  -7.583  34.234  0.00  0.00    +0.000 C 
ENDBRANCH   6  21
TORSDOF 3
ENDMDL
MODEL 6
REMARK VINA RESULT:      -6.2     21.161     23.922
REMARK  Name = 
REMARK  3 active torsions:
REMARK  status: ('A' for Active; 'I' for Inactive)
REMARK    1  A    between atoms: O_2  and  C_3
REMARK    2  A    between atoms: C_8  and  O_9
REMARK    3  A    between atoms: C_14  and  C_15
REMARK                            x       y       z     vdW  Elec       q    Type
REMARK                         _______ _______ _______ _____ _____    ______ ____
ROOT
ATOM      1  C   UNL     1      33.781  -0.194  34.850  0.00  0.00    +0.000 A 
ATOM      2  C   UNL     1      33.549  -1.034  33.736  0.00  0.00    +0.000 A 
ATOM      3  C   UNL     1      33.772  -2.376  33.827  0.00  0.00    +0.000 A 
ATOM      4  C   UNL     1      34.207  -2.892  34.962  0.00  0.00    +0.000 A 
ATOM      5  C   UNL     1      34.459  -2.120  36.108  0.00  0.00    +0.000 A 
ATOM      6  C   UNL     1      34.235  -0.750  36.026  0.00  0.00    +0.000 A 
ATOM      7  C   UNL     1      34.505  -4.425  35.201  0.00  0.00    +0.000 C 
ATOM      8  C   UNL     1      33.072  -4.709  35.958  0.00  0.00    +0.000 C 
ATOM      9  O   UNL     1      34.188  -5.074  33.907  0.00  0.00    +0.000 OA
ATOM     10  C   UNL     1      33.758  -4.576  32.780  0.00  0.00    +0.000 C 
ATOM     11  C   UNL     1      33.563  -3.283  32.754  0.00  0.00    +0.000 C 
ENDROOT
BRANCH  10  12
ATOM     12  C   UNL     1      33.508  -5.412  31.611  0.00  0.00    +0.000 A 
ATOM     13  C   UNL     1      34.363  -5.442  30.553  0.00  0.00    +0.000 A 
ATOM     14  C   UNL     1      34.188  -6.201  29.429  0.00  0.00    +0.000 A 
ATOM     15  C   UNL     1      33.094  -6.993  29.326  0.00  0.00    +0.000 A 
ATOM     16  O   UNL     1      32.805  -7.811  28.235  0.00  0.00    +0.000 OA
ATOM     17  C   UNL     1      32.187  -7.011  30.361  0.00  0.00    +0.000 A 
ATOM     18  C   UNL     1      32.394  -6.221  31.500  0.00  0.00    +0.000 A 
ENDBRANCH  10  12
BRANCH   1  20
ATOM     19  C   UNL     1      33.555   1.852  33.499  0.00  0.00    +0.000 C 
ATOM     20  O   UNL     1      33.548   1.160  34.731  0.00  0.00    +0.000 OA
ENDBRANCH   1  20
BRANCH   6  21
ATOM     21  O   UNL     1      34.482   0.045  37.165  0.00  0.00    +0.000 OA
ATOM     22  C   UNL     1      35.783   0.211  37.644  0.00  0.00    +0.000 C 
ENDBRANCH   6  21
TORSDOF 3
ENDMDL
MODEL 7
REMARK VINA RESULT:      -6.1     19.590     22.710
REMARK  Name = 
REMARK  3 active torsions:
REMARK  status: ('A' for Active; 'I' for Inactive)
REMARK    1  A    between atoms: O_2  and  C_3
REMARK    2  A    between atoms: C_8  and  O_9
REMARK    3  A    between atoms: C_14  and  C_15
REMARK                            x       y       z     vdW  Elec       q    Type
REMARK                         _______ _______ _______ _____ _____    ______ ____
ROOT
ATOM      1  C   UNL     1      32.388  22.148  29.039  0.00  0.00    +0.000 A 
ATOM      2  C   UNL     1      31.344  22.073  28.087  0.00  0.00    +0.000 A 
ATOM      3  C   UNL     1      31.261  22.992  27.083  0.00  0.00    +0.000 A 
ATOM      4  C   UNL     1      32.161  23.955  27.001  0.00  0.00    +0.000 A 
ATOM      5  C   UNL     1      33.224  24.091  27.910  0.00  0.00    +0.000 A 
ATOM      6  C   UNL     1      33.317  23.159  28.938  0.00  0.00    +0.000 A 
ATOM      7  C   UNL     1      32.181  25.080  25.891  0.00  0.00    +0.000 C 
ATOM      8  C   UNL     1      33.327  24.329  24.980  0.00  0.00    +0.000 C 
ATOM      9  O   UNL     1      31.008  24.783  25.037  0.00  0.00    +0.000 OA
ATOM     10  C   UNL     1      30.113  23.835  25.107  0.00  0.00    +0.000 C 
ATOM     11  C   UNL     1      30.245  22.984  26.091  0.00  0.00    +0.000 C 
ENDROOT
BRANCH  10  12
ATOM     12  C   UNL     1      29.023  23.728  24.143  0.00  0.00    +0.000 A 
ATOM     13  C   UNL     1      27.753  23.426  24.524  0.00  0.00    +0.000 A 
ATOM     14  C   UNL     1      26.688  23.310  23.674  0.00  0.00    +0.000 A 
ATOM     15  C   UNL     1      26.875  23.504  22.347  0.00  0.00    +0.000 A 
ATOM     16  O   UNL     1      25.872  23.415  21.382  0.00  0.00    +0.000 OA
ATOM     17  C   UNL     1      28.136  23.813  21.891  0.00  0.00    +0.000 A 
ATOM     18  C   UNL     1      29.207  23.925  22.788  0.00  0.00    +0.000 A 
ENDBRANCH  10  12
BRANCH   1  20
ATOM     19  C   UNL     1      31.800  21.347  31.292  0.00  0.00    +0.000 C 
ATOM     20  O   UNL     1      32.448  21.206  30.044  0.00  0.00    +0.000 OA
ENDBRANCH   1  20
BRANCH   6  21
ATOM     21  O   UNL     1      34.377  23.277  29.862  0.00  0.00    +0.000 OA
ATOM     22  C   UNL     1      34.349  24.265  30.848  0.00  0.00    +0.000 C 
ENDBRANCH   6  21
TORSDOF 3
ENDMDL
MODEL 8
REMARK VINA RESULT:      -6.1     20.745     23.288
REMARK  Name = 
REMARK  3 active torsions:
REMARK  status: ('A' for Active; 'I' for Inactive)
REMARK    1  A    between atoms: O_2  and  C_3
REMARK    2  A    between atoms: C_8  and  O_9
REMARK    3  A    between atoms: C_14  and  C_15
REMARK                            x       y       z     vdW  Elec       q    Type
REMARK                         _______ _______ _______ _____ _____    ______ ____
ROOT
ATOM      1  C   UNL     1      28.478  23.178  23.839  0.00  0.00    +0.000 A 
ATOM      2  C   UNL     1      29.850  23.493  23.696  0.00  0.00    +0.000 A 
ATOM      3  C   UNL     1      30.633  23.672  24.799  0.00  0.00    +0.000 A 
ATOM      4  C   UNL     1      30.107  23.550  26.003  0.00  0.00    +0.000 A 
ATOM      5  C   UNL     1      28.754  23.240  26.220  0.00  0.00    +0.000 A 
ATOM      6  C   UNL     1      27.946  23.056  25.104  0.00  0.00    +0.000 A 
ATOM      7  C   UNL     1      30.900  23.731  27.358  0.00  0.00    +0.000 C 
ATOM      8  C   UNL     1      31.097  22.116  27.598  0.00  0.00    +0.000 C 
ATOM      9  O   UNL     1      32.285  24.050  26.940  0.00  0.00    +0.000 OA
ATOM     10  C   UNL     1      32.817  24.172  25.755  0.00  0.00    +0.000 C 
ATOM     11  C   UNL     1      32.016  23.989  24.737  0.00  0.00    +0.000 C 
ENDROOT
BRANCH  10  12
ATOM     12  C   UNL     1      34.228  24.496  25.571  0.00  0.00    +0.000 A 
ATOM     13  C   UNL     1      35.075  24.645  26.624  0.00  0.00    +0.000 A 
ATOM     14  C   UNL     1      36.405  24.948  26.521  0.00  0.00    +0.000 A 
ATOM     15  C   UNL     1      36.953  25.120  25.295  0.00  0.00    +0.000 A 
ATOM     16  O   UNL     1      38.292  25.431  25.060  0.00  0.00    +0.000 OA
ATOM     17  C   UNL     1      36.152  24.985  24.184  0.00  0.00    +0.000 A 
ATOM     18  C   UNL     1      34.793  24.673  24.322  0.00  0.00    +0.000 A 
ENDBRANCH  10  12
BRANCH   1  20
ATOM     19  C   UNL     1      27.109  24.064  21.994  0.00  0.00    +0.000 C 
ATOM     20  O   UNL     1      27.709  23.003  22.708  0.00  0.00    +0.000 OA
ENDBRANCH   1  20
BRANCH   6  21
ATOM     21  O   UNL     1      26.584  22.743  25.299  0.00  0.00    +0.000 OA
ATOM     22  C   UNL     1      25.682  23.730  25.702  0.00  0.00    +0.000 C 
ENDBRANCH   6  21
TORSDOF 3
ENDMDL
MODEL 9
REMARK VINA RESULT:      -6.0     21.678     24.129
REMARK  Name = 
REMARK  3 active torsions:
REMARK  status: ('A' for Active; 'I' for Inactive)
REMARK    1  A    between atoms: O_2  and  C_3
REMARK    2  A    between atoms: C_8  and  O_9
REMARK    3  A    between atoms: C_14  and  C_15
REMARK                            x       y       z     vdW  Elec       q    Type
REMARK                         _______ _______ _______ _____ _____    ______ ____
ROOT
ATOM      1  C   UNL     1      19.600  -6.984  26.069  0.00  0.00    +0.000 A 
ATOM      2  C   UNL     1      20.777  -6.869  25.293  0.00  0.00    +0.000 A 
ATOM      3  C   UNL     1      21.708  -7.865  25.304  0.00  0.00    +0.000 A 
ATOM      4  C   UNL     1      21.508  -8.940  26.043  0.00  0.00    +0.000 A 
ATOM      5  C   UNL     1      20.365  -9.122  26.839  0.00  0.00    +0.000 A 
ATOM      6  C   UNL     1      19.409  -8.112  26.835  0.00  0.00    +0.000 A 
ATOM      7  C   UNL     1      22.504 -10.164  26.146  0.00  0.00    +0.000 C 
ATOM      8  C   UNL     1      21.660 -11.094  25.083  0.00  0.00    +0.000 C 
ATOM      9  O   UNL     1      23.632  -9.803  25.257  0.00  0.00    +0.000 OA
ATOM     10  C   UNL     1      23.841  -8.745  24.521  0.00  0.00    +0.000 C 
ATOM     11  C   UNL     1      22.912  -7.825  24.552  0.00  0.00    +0.000 C 
ENDROOT
BRANCH  10  12
ATOM     12  C   UNL     1      25.043  -8.594  23.708  0.00  0.00    +0.000 A 
ATOM     13  C   UNL     1      25.691  -9.665  23.178  0.00  0.00    +0.000 A 
ATOM     14  C   UNL     1      26.821  -9.592  22.409  0.00  0.00    +0.000 A 
ATOM     15  C   UNL     1      27.361  -8.381  22.135  0.00  0.00    +0.000 A 
ATOM     16  O   UNL     1      28.506  -8.177  21.366  0.00  0.00    +0.000 OA
ATOM     17  C   UNL     1      26.755  -7.254  22.641  0.00  0.00    +0.000 A 
ATOM     18  C   UNL     1      25.599  -7.361  23.426  0.00  0.00    +0.000 A 
ENDBRANCH  10  12
BRANCH   1  20
ATOM     19  C   UNL     1      18.828  -4.744  26.741  0.00  0.00    +0.000 C 
ATOM     20  O   UNL     1      18.675  -5.962  26.041  0.00  0.00    +0.000 OA
ENDBRANCH   1  20
BRANCH   6  21
ATOM     21  O   UNL     1      18.252  -8.274  27.627  0.00  0.00    +0.000 OA
ATOM     22  C   UNL     1      18.281  -9.082  28.766  0.00  0.00    +0.000 C 
ENDBRANCH   6  21
TORSDOF 3
ENDMDL
MODEL 10
REMARK VINA RESULT:      -6.0     17.842     20.878
REMARK  Name = 
REMARK  3 active torsions:
REMARK  status: ('A' for Active; 'I' for Inactive)
REMARK    1  A    between atoms: O_2  and  C_3
REMARK    2  A    between atoms: C_8  and  O_9
REMARK    3  A    between atoms: C_14  and  C_15
REMARK                            x       y       z     vdW  Elec       q    Type
REMARK                         _______ _______ _______ _____ _____    ______ ____
ROOT
ATOM      1  C   UNL     1      32.140  22.218  31.034  0.00  0.00    +0.000 A 
ATOM      2  C   UNL     1      31.834  22.358  29.660  0.00  0.00    +0.000 A 
ATOM      3  C   UNL     1      30.539  22.501  29.254  0.00  0.00    +0.000 A 
ATOM      4  C   UNL     1      29.570  22.508  30.150  0.00  0.00    +0.000 A 
ATOM      5  C   UNL     1      29.800  22.373  31.530  0.00  0.00    +0.000 A 
ATOM      6  C   UNL     1      31.116  22.227  31.954  0.00  0.00    +0.000 A 
ATOM      7  C   UNL     1      28.033  22.665  29.817  0.00  0.00    +0.000 C 
ATOM      8  C   UNL     1      27.993  24.267  30.188  0.00  0.00    +0.000 C 
ATOM      9  O   UNL     1      27.982  22.792  28.342  0.00  0.00    +0.000 OA
ATOM     10  C   UNL     1      28.932  22.788  27.447  0.00  0.00    +0.000 C 
ATOM     11  C   UNL     1      30.152  22.648  27.896  0.00  0.00    +0.000 C 
ENDROOT
BRANCH  10  12
ATOM     12  C   UNL     1      28.652  22.930  26.021  0.00  0.00    +0.000 A 
ATOM     13  C   UNL     1      29.636  22.859  25.086  0.00  0.00    +0.000 A 
ATOM     14  C   UNL     1      29.442  22.985  23.737  0.00  0.00    +0.000 A 
ATOM     15  C   UNL     1      28.191  23.195  23.263  0.00  0.00    +0.000 A 
ATOM     16  O   UNL     1      27.866  23.339  21.915  0.00  0.00    +0.000 OA
ATOM     17  C   UNL     1      27.147  23.278  24.156  0.00  0.00    +0.000 A 
ATOM     18  C   UNL     1      27.378  23.146  25.532  0.00  0.00    +0.000 A 
ENDBRANCH  10  12
BRANCH   1  20
ATOM     19  C   UNL     1      34.070  20.827  31.671  0.00  0.00    +0.000 C 
ATOM     20  O   UNL     1      33.457  22.075  31.416  0.00  0.00    +0.000 OA
ENDBRANCH   1  20
BRANCH   6  21
ATOM     21  O   UNL     1      31.369  22.089  33.335  0.00  0.00    +0.000 OA
ATOM     22  C   UNL     1      30.553  21.280  34.128  0.00  0.00    +0.000 C 
ENDBRANCH   6  21
TORSDOF 3
ENDMDL
