MODEL 1
REMARK VINA RESULT:      -7.5      0.000      0.000
REMARK  Name = 
REMARK  9 active torsions:
REMARK  status: ('A' for Active; 'I' for Inactive)
REMARK    1  A    between atoms: C_2  and  C_4
REMARK    2  A    between atoms: C_9  and  O_10
REMARK    3  A    between atoms: O_10  and  C_11
REMARK    4  A    between atoms: C_11  and  C_12
REMARK    5  A    between atoms: C_12  and  N_13
REMARK    6  A    between atoms: C_14  and  C_16
REMARK    7  A    between atoms: C_21  and  S_22
REMARK    8  A    between atoms: S_22  and  C_23
REMARK    9  A    between atoms: C_23  and  C_24
REMARK                            x       y       z     vdW  Elec       q    Type
REMARK                         _______ _______ _______ _____ _____    ______ ____
ROOT
ATOM      1  N   UNL     1      36.725   0.837  17.398  0.00  0.00    +0.000 NA
ATOM      2  C   UNL     1      35.950   1.293  16.322  0.00  0.00    +0.000 C 
ATOM      3  O   UNL     1      34.742   1.566  16.535  0.00  0.00    +0.000 OA
ENDROOT
BRANCH   2   4
ATOM      4  C   UNL     1      36.459   1.470  14.973  0.00  0.00    +0.000 A 
ATOM      5  C   UNL     1      36.281   0.501  14.026  0.00  0.00    +0.000 A 
ATOM      6  C   UNL     1      36.748   0.625  12.732  0.00  0.00    +0.000 A 
ATOM      7  C   UNL     1      37.425   1.759  12.342  0.00  0.00    +0.000 A 
ATOM      8  C   UNL     1      37.609   2.751  13.305  0.00  0.00    +0.000 A 
ATOM      9  C   UNL     1      37.140   2.616  14.592  0.00  0.00    +0.000 A 
BRANCH   9  10
ATOM     10  S   UNL     1      37.366   3.874  15.836  0.00  0.00    +0.000 S 
BRANCH  10  11
ATOM     11  C   UNL     1      38.931   4.731  15.471  0.00  0.00    +0.000 C 
BRANCH  11  12
ATOM     12  C   UNL     1      39.527   5.327  16.693  0.00  0.00    +0.000 A 
ATOM     13  C   UNL     1      40.718   6.018  16.712  0.00  0.00    +0.000 A 
ATOM     14  C   UNL     1      41.191   6.535  17.906  0.00  0.00    +0.000 A 
ATOM     15  C   UNL     1      40.511   6.385  19.087  0.00  0.00    +0.000 A 
ATOM     16  C   UNL     1      39.321   5.697  19.080  0.00  0.00    +0.000 A 
ATOM     17  C   UNL     1      38.846   5.176  17.883  0.00  0.00    +0.000 A 
ENDBRANCH  11  12
ENDBRANCH  10  11
ENDBRANCH   9  10
ENDBRANCH   2   4
BRANCH   1  18
ATOM     18  C   UNL     1      36.268   0.646  18.745  0.00  0.00    +0.000 C 
BRANCH  18  19
ATOM     19  C   UNL     1      35.820  -0.783  18.997  0.00  0.00    +0.000 C 
BRANCH  19  20
ATOM     20  O   UNL     1      36.665  -1.680  18.345  0.00  0.00    +0.000 OA
BRANCH  20  26
ATOM     21  C   UNL     1      37.284  -2.474  16.215  0.00  0.00    +0.000 A 
ATOM     22  C   UNL     1      36.993  -3.053  14.998  0.00  0.00    +0.000 A 
ATOM     23  C   UNL     1      35.690  -3.417  14.735  0.00  0.00    +0.000 A 
ATOM     24  C   UNL     1      34.671  -3.225  15.644  0.00  0.00    +0.000 A 
ATOM     25  C   UNL     1      35.010  -2.645  16.845  0.00  0.00    +0.000 A 
ATOM     26  C   UNL     1      36.297  -2.263  17.152  0.00  0.00    +0.000 A 
BRANCH  21  28
ATOM     27  C   UNL     1      39.193  -1.088  15.455  0.00  0.00    +0.000 C 
ATOM     28  C   UNL     1      38.700  -2.089  16.474  0.00  0.00    +0.000 C 
ATOM     29  C   UNL     1      39.545  -3.345  16.313  0.00  0.00    +0.000 C 
ENDBRANCH  21  28
ENDBRANCH  20  26
ENDBRANCH  19  20
ENDBRANCH  18  19
ENDBRANCH   1  18
TORSDOF 9
ENDMDL
MODEL 2
REMARK VINA RESULT:      -7.2      1.661      4.665
REMARK  Name = 
REMARK  9 active torsions:
REMARK  status: ('A' for Active; 'I' for Inactive)
REMARK    1  A    between atoms: C_2  and  C_4
REMARK    2  A    between atoms: C_9  and  O_10
REMARK    3  A    between atoms: O_10  and  C_11
REMARK    4  A    between atoms: C_11  and  C_12
REMARK    5  A    between atoms: C_12  and  N_13
REMARK    6  A    between atoms: C_14  and  C_16
REMARK    7  A    between atoms: C_21  and  S_22
REMARK    8  A    between atoms: S_22  and  C_23
REMARK    9  A    between atoms: C_23  and  C_24
REMARK                            x       y       z     vdW  Elec       q    Type
REMARK                         _______ _______ _______ _____ _____    ______ ____
ROOT
ATOM      1  N   UNL     1      36.713   1.825  17.305  0.00  0.00    +0.000 NA
ATOM      2  C   UNL     1      36.714   3.055  16.633  0.00  0.00    +0.000 C 
ATOM      3  O   UNL     1      35.669   3.401  16.027  0.00  0.00    +0.000 OA
ENDROOT
BRANCH   2   4
ATOM      4  C   UNL     1      37.852   3.957  16.592  0.00  0.00    +0.000 A 
ATOM      5  C   UNL     1      38.149   4.757  17.660  0.00  0.00    +0.000 A 
ATOM      6  C   UNL     1      39.220   5.630  17.665  0.00  0.00    +0.000 A 
ATOM      7  C   UNL     1      40.045   5.726  16.568  0.00  0.00    +0.000 A 
ATOM      8  C   UNL     1      39.747   4.911  15.476  0.00  0.00    +0.000 A 
ATOM      9  C   UNL     1      38.677   4.045  15.481  0.00  0.00    +0.000 A 
BRANCH   9  10
ATOM     10  S   UNL     1      38.280   2.997  14.093  0.00  0.00    +0.000 S 
BRANCH  10  11
ATOM     11  C   UNL     1      39.817   2.173  13.571  0.00  0.00    +0.000 C 
BRANCH  11  12
ATOM     12  C   UNL     1      39.917   0.799  14.125  0.00  0.00    +0.000 A 
ATOM     13  C   UNL     1      41.003  -0.028  13.943  0.00  0.00    +0.000 A 
ATOM     14  C   UNL     1      40.999  -1.295  14.501  0.00  0.00    +0.000 A 
ATOM     15  C   UNL     1      39.942  -1.766  15.237  0.00  0.00    +0.000 A 
ATOM     16  C   UNL     1      38.854  -0.949  15.424  0.00  0.00    +0.000 A 
ATOM     17  C   UNL     1      38.855   0.322  14.865  0.00  0.00    +0.000 A 
ENDBRANCH  11  12
ENDBRANCH  10  11
ENDBRANCH   9  10
ENDBRANCH   2   4
BRANCH   1  18
ATOM     18  C   UNL     1      35.615   0.902  17.373  0.00  0.00    +0.000 C 
BRANCH  18  19
ATOM     19  C   UNL     1      35.705  -0.001  18.591  0.00  0.00    +0.000 C 
BRANCH  19  20
ATOM     20  O   UNL     1      35.496  -1.331  18.227  0.00  0.00    +0.000 OA
BRANCH  20  26
ATOM     21  C   UNL     1      36.481  -3.173  17.138  0.00  0.00    +0.000 A 
ATOM     22  C   UNL     1      37.498  -4.090  16.971  0.00  0.00    +0.000 A 
ATOM     23  C   UNL     1      38.587  -4.028  17.813  0.00  0.00    +0.000 A 
ATOM     24  C   UNL     1      38.697  -3.083  18.812  0.00  0.00    +0.000 A 
ATOM     25  C   UNL     1      37.659  -2.190  18.939  0.00  0.00    +0.000 A 
ATOM     26  C   UNL     1      36.550  -2.213  18.123  0.00  0.00    +0.000 A 
BRANCH  21  28
ATOM     27  C   UNL     1      35.174  -4.651  15.638  0.00  0.00    +0.000 C 
ATOM     28  C   UNL     1      35.315  -3.262  16.215  0.00  0.00    +0.000 C 
ATOM     29  C   UNL     1      35.588  -2.319  15.051  0.00  0.00    +0.000 C 
ENDBRANCH  21  28
ENDBRANCH  20  26
ENDBRANCH  19  20
ENDBRANCH  18  19
ENDBRANCH   1  18
TORSDOF 9
ENDMDL
MODEL 3
REMARK VINA RESULT:      -7.0      1.980      7.633
REMARK  Name = 
REMARK  9 active torsions:
REMARK  status: ('A' for Active; 'I' for Inactive)
REMARK    1  A    between atoms: C_2  and  C_4
REMARK    2  A    between atoms: C_9  and  O_10
REMARK    3  A    between atoms: O_10  and  C_11
REMARK    4  A    between atoms: C_11  and  C_12
REMARK    5  A    between atoms: C_12  and  N_13
REMARK    6  A    between atoms: C_14  and  C_16
REMARK    7  A    between atoms: C_21  and  S_22
REMARK    8  A    between atoms: S_22  and  C_23
REMARK    9  A    between atoms: C_23  and  C_24
REMARK                            x       y       z     vdW  Elec       q    Type
REMARK                         _______ _______ _______ _____ _____    ______ ____
ROOT
ATOM      1  N   UNL     1      35.683   1.942  16.165  0.00  0.00    +0.000 NA
ATOM      2  C   UNL     1      35.950   0.798  16.929  0.00  0.00    +0.000 C 
ATOM      3  O   UNL     1      36.602   0.934  17.995  0.00  0.00    +0.000 OA
ENDROOT
BRANCH   2   4
ATOM      4  C   UNL     1      35.520  -0.541  16.563  0.00  0.00    +0.000 A 
ATOM      5  C   UNL     1      34.473  -1.140  17.206  0.00  0.00    +0.000 A 
ATOM      6  C   UNL     1      34.031  -2.410  16.893  0.00  0.00    +0.000 A 
ATOM      7  C   UNL     1      34.644  -3.134  15.895  0.00  0.00    +0.000 A 
ATOM      8  C   UNL     1      35.713  -2.528  15.235  0.00  0.00    +0.000 A 
ATOM      9  C   UNL     1      36.146  -1.262  15.556  0.00  0.00    +0.000 A 
BRANCH   9  10
ATOM     10  S   UNL     1      37.511  -0.471  14.723  0.00  0.00    +0.000 S 
BRANCH  10  11
ATOM     11  C   UNL     1      39.038  -0.962  15.585  0.00  0.00    +0.000 C 
BRANCH  11  12
ATOM     12  C   UNL     1      38.798  -2.082  16.529  0.00  0.00    +0.000 A 
ATOM     13  C   UNL     1      38.453  -1.915  17.851  0.00  0.00    +0.000 A 
ATOM     14  C   UNL     1      38.250  -3.026  18.652  0.00  0.00    +0.000 A 
ATOM     15  C   UNL     1      38.383  -4.304  18.174  0.00  0.00    +0.000 A 
ATOM     16  C   UNL     1      38.727  -4.483  16.856  0.00  0.00    +0.000 A 
ATOM     17  C   UNL     1      38.930  -3.369  16.051  0.00  0.00    +0.000 A 
ENDBRANCH  11  12
ENDBRANCH  10  11
ENDBRANCH   9  10
ENDBRANCH   2   4
BRANCH   1  18
ATOM     18  C   UNL     1      36.088   3.282  16.485  0.00  0.00    +0.000 C 
BRANCH  18  19
ATOM     19  C   UNL     1      37.554   3.524  16.171  0.00  0.00    +0.000 C 
BRANCH  19  20
ATOM     20  O   UNL     1      37.989   4.709  16.763  0.00  0.00    +0.000 OA
BRANCH  20  26
ATOM     21  C   UNL     1      39.897   5.900  17.466  0.00  0.00    +0.000 A 
ATOM     22  C   UNL     1      41.137   6.459  17.239  0.00  0.00    +0.000 A 
ATOM     23  C   UNL     1      41.691   6.349  15.982  0.00  0.00    +0.000 A 
ATOM     24  C   UNL     1      41.051   5.699  14.947  0.00  0.00    +0.000 A 
ATOM     25  C   UNL     1      39.817   5.157  15.221  0.00  0.00    +0.000 A 
ATOM     26  C   UNL     1      39.223   5.243  16.460  0.00  0.00    +0.000 A 
BRANCH  21  28
ATOM     27  C   UNL     1      38.475   7.280  18.954  0.00  0.00    +0.000 C 
ATOM     28  C   UNL     1      39.321   6.034  18.833  0.00  0.00    +0.000 C 
ATOM     29  C   UNL     1      40.486   6.188  19.801  0.00  0.00    +0.000 C 
ENDBRANCH  21  28
ENDBRANCH  20  26
ENDBRANCH  19  20
ENDBRANCH  18  19
ENDBRANCH   1  18
TORSDOF 9
ENDMDL
MODEL 4
REMARK VINA RESULT:      -7.0      2.250      6.984
REMARK  Name = 
REMARK  9 active torsions:
REMARK  status: ('A' for Active; 'I' for Inactive)
REMARK    1  A    between atoms: C_2  and  C_4
REMARK    2  A    between atoms: C_9  and  O_10
REMARK    3  A    between atoms: O_10  and  C_11
REMARK    4  A    between atoms: C_11  and  C_12
REMARK    5  A    between atoms: C_12  and  N_13
REMARK    6  A    between atoms: C_14  and  C_16
REMARK    7  A    between atoms: C_21  and  S_22
REMARK    8  A    between atoms: S_22  and  C_23
REMARK    9  A    between atoms: C_23  and  C_24
REMARK                            x       y       z     vdW  Elec       q    Type
REMARK                         _______ _______ _______ _____ _____    ______ ____
ROOT
ATOM      1  N   UNL     1      37.544   0.640  15.754  0.00  0.00    +0.000 NA
ATOM      2  C   UNL     1      38.061   0.091  14.572  0.00  0.00    +0.000 C 
ATOM      3  O   UNL     1      37.423   0.271  13.505  0.00  0.00    +0.000 OA
ENDROOT
BRANCH   2   4
ATOM      4  C   UNL     1      39.293  -0.677  14.505  0.00  0.00    +0.000 A 
ATOM      5  C   UNL     1      40.500  -0.052  14.368  0.00  0.00    +0.000 A 
ATOM      6  C   UNL     1      41.696  -0.741  14.299  0.00  0.00    +0.000 A 
ATOM      7  C   UNL     1      41.711  -2.116  14.368  0.00  0.00    +0.000 A 
ATOM      8  C   UNL     1      40.482  -2.759  14.508  0.00  0.00    +0.000 A 
ATOM      9  C   UNL     1      39.297  -2.062  14.575  0.00  0.00    +0.000 A 
BRANCH   9  10
ATOM     10  S   UNL     1      37.715  -2.868  14.754  0.00  0.00    +0.000 S 
BRANCH  10  11
ATOM     11  C   UNL     1      37.603  -3.484  16.463  0.00  0.00    +0.000 C 
BRANCH  11  12
ATOM     12  C   UNL     1      36.983  -2.482  17.367  0.00  0.00    +0.000 A 
ATOM     13  C   UNL     1      37.653  -1.845  18.387  0.00  0.00    +0.000 A 
ATOM     14  C   UNL     1      36.984  -0.925  19.175  0.00  0.00    +0.000 A 
ATOM     15  C   UNL     1      35.662  -0.619  18.979  0.00  0.00    +0.000 A 
ATOM     16  C   UNL     1      34.983  -1.250  17.964  0.00  0.00    +0.000 A 
ATOM     17  C   UNL     1      35.653  -2.174  17.172  0.00  0.00    +0.000 A 
ENDBRANCH  11  12
ENDBRANCH  10  11
ENDBRANCH   9  10
ENDBRANCH   2   4
BRANCH   1  18
ATOM     18  C   UNL     1      36.334   1.403  15.869  0.00  0.00    +0.000 C 
BRANCH  18  19
ATOM     19  C   UNL     1      36.437   2.474  16.942  0.00  0.00    +0.000 C 
BRANCH  19  20
ATOM     20  O   UNL     1      36.766   3.704  16.373  0.00  0.00    +0.000 OA
BRANCH  20  26
ATOM     21  C   UNL     1      38.807   4.712  15.766  0.00  0.00    +0.000 A 
ATOM     22  C   UNL     1      39.969   5.389  16.068  0.00  0.00    +0.000 A 
ATOM     23  C   UNL     1      40.214   5.727  17.381  0.00  0.00    +0.000 A 
ATOM     24  C   UNL     1      39.338   5.415  18.400  0.00  0.00    +0.000 A 
ATOM     25  C   UNL     1      38.192   4.740  18.050  0.00  0.00    +0.000 A 
ATOM     26  C   UNL     1      37.905   4.379  16.752  0.00  0.00    +0.000 A 
BRANCH  21  28
ATOM     27  C   UNL     1      39.696   3.522  13.782  0.00  0.00    +0.000 C 
ATOM     28  C   UNL     1      38.567   4.358  14.338  0.00  0.00    +0.000 C 
ATOM     29  C   UNL     1      38.542   5.659  13.549  0.00  0.00    +0.000 C 
ENDBRANCH  21  28
ENDBRANCH  20  26
ENDBRANCH  19  20
ENDBRANCH  18  19
ENDBRANCH   1  18
TORSDOF 9
ENDMDL
MODEL 5
REMARK VINA RESULT:      -6.9      2.010      7.688
REMARK  Name = 
REMARK  9 active torsions:
REMARK  status: ('A' for Active; 'I' for Inactive)
REMARK    1  A    between atoms: C_2  and  C_4
REMARK    2  A    between atoms: C_9  and  O_10
REMARK    3  A    between atoms: O_10  and  C_11
REMARK    4  A    between atoms: C_11  and  C_12
REMARK    5  A    between atoms: C_12  and  N_13
REMARK    6  A    between atoms: C_14  and  C_16
REMARK    7  A    between atoms: C_21  and  S_22
REMARK    8  A    between atoms: S_22  and  C_23
REMARK    9  A    between atoms: C_23  and  C_24
REMARK                            x       y       z     vdW  Elec       q    Type
REMARK                         _______ _______ _______ _____ _____    ______ ____
ROOT
ATOM      1  N   UNL     1      36.877   2.422  16.724  0.00  0.00    +0.000 NA
ATOM      2  C   UNL     1      35.719   1.780  16.262  0.00  0.00    +0.000 C 
ATOM      3  O   UNL     1      34.751   2.492  15.896  0.00  0.00    +0.000 OA
ENDROOT
BRANCH   2   4
ATOM      4  C   UNL     1      35.570   0.337  16.181  0.00  0.00    +0.000 A 
ATOM      5  C   UNL     1      34.806  -0.339  17.090  0.00  0.00    +0.000 A 
ATOM      6  C   UNL     1      34.636  -1.710  17.053  0.00  0.00    +0.000 A 
ATOM      7  C   UNL     1      35.247  -2.460  16.072  0.00  0.00    +0.000 A 
ATOM      8  C   UNL     1      36.028  -1.775  15.142  0.00  0.00    +0.000 A 
ATOM      9  C   UNL     1      36.190  -0.409  15.190  0.00  0.00    +0.000 A 
BRANCH   9  10
ATOM     10  S   UNL     1      37.185   0.484  14.008  0.00  0.00    +0.000 S 
BRANCH  10  11
ATOM     11  C   UNL     1      38.863   0.626  14.701  0.00  0.00    +0.000 C 
BRANCH  11  12
ATOM     12  C   UNL     1      39.667  -0.595  14.442  0.00  0.00    +0.000 A 
ATOM     13  C   UNL     1      40.407  -0.803  13.300  0.00  0.00    +0.000 A 
ATOM     14  C   UNL     1      41.124  -1.977  13.153  0.00  0.00    +0.000 A 
ATOM     15  C   UNL     1      41.127  -2.956  14.113  0.00  0.00    +0.000 A 
ATOM     16  C   UNL     1      40.393  -2.759  15.257  0.00  0.00    +0.000 A 
ATOM     17  C   UNL     1      39.672  -1.581  15.406  0.00  0.00    +0.000 A 
ENDBRANCH  11  12
ENDBRANCH  10  11
ENDBRANCH   9  10
ENDBRANCH   2   4
BRANCH   1  18
ATOM     18  C   UNL     1      37.071   3.841  16.822  0.00  0.00    +0.000 C 
BRANCH  18  19
ATOM     19  C   UNL     1      38.472   4.254  16.406  0.00  0.00    +0.000 C 
BRANCH  19  20
ATOM     20  O   UNL     1      39.003   5.163  17.321  0.00  0.00    +0.000 OA
BRANCH  20  26
ATOM     21  C   UNL     1      40.913   6.242  18.183  0.00  0.00    +0.000 A 
ATOM     22  C   UNL     1      42.132   6.866  18.031  0.00  0.00    +0.000 A 
ATOM     23  C   UNL     1      42.643   7.018  16.760  0.00  0.00    +0.000 A 
ATOM     24  C   UNL     1      41.979   6.567  15.639  0.00  0.00    +0.000 A 
ATOM     25  C   UNL     1      40.766   5.950  15.840  0.00  0.00    +0.000 A 
ATOM     26  C   UNL     1      40.215   5.777  17.090  0.00  0.00    +0.000 A 
BRANCH  21  28
ATOM     27  C   UNL     1      39.412   7.197  19.909  0.00  0.00    +0.000 C 
ATOM     28  C   UNL     1      40.383   6.091  19.568  0.00  0.00    +0.000 C 
ATOM     29  C   UNL     1      41.565   6.224  20.519  0.00  0.00    +0.000 C 
ENDBRANCH  21  28
ENDBRANCH  20  26
ENDBRANCH  19  20
ENDBRANCH  18  19
ENDBRANCH   1  18
TORSDOF 9
ENDMDL
MODEL 6
REMARK VINA RESULT:      -6.9      2.313      7.112
REMARK  Name = 
REMARK  9 active torsions:
REMARK  status: ('A' for Active; 'I' for Inactive)
REMARK    1  A    between atoms: C_2  and  C_4
REMARK    2  A    between atoms: C_9  and  O_10
REMARK    3  A    between atoms: O_10  and  C_11
REMARK    4  A    between atoms: C_11  and  C_12
REMARK    5  A    between atoms: C_12  and  N_13
REMARK    6  A    between atoms: C_14  and  C_16
REMARK    7  A    between atoms: C_21  and  S_22
REMARK    8  A    between atoms: S_22  and  C_23
REMARK    9  A    between atoms: C_23  and  C_24
REMARK                            x       y       z     vdW  Elec       q    Type
REMARK                         _______ _______ _______ _____ _____    ______ ____
ROOT
ATOM      1  N   UNL     1      36.395   1.409  17.147  0.00  0.00    +0.000 NA
ATOM      2  C   UNL     1      35.997   0.074  17.306  0.00  0.00    +0.000 C 
ATOM      3  O   UNL     1      34.829  -0.241  16.967  0.00  0.00    +0.000 OA
ENDROOT
BRANCH   2   4
ATOM      4  C   UNL     1      36.854  -0.969  17.842  0.00  0.00    +0.000 A 
ATOM      5  C   UNL     1      36.858  -1.254  19.179  0.00  0.00    +0.000 A 
ATOM      6  C   UNL     1      37.657  -2.236  19.732  0.00  0.00    +0.000 A 
ATOM      7  C   UNL     1      38.497  -2.981  18.935  0.00  0.00    +0.000 A 
ATOM      8  C   UNL     1      38.496  -2.695  17.570  0.00  0.00    +0.000 A 
ATOM      9  C   UNL     1      37.697  -1.714  17.030  0.00  0.00    +0.000 A 
BRANCH   9  10
ATOM     10  S   UNL     1      37.683  -1.334  15.287  0.00  0.00    +0.000 S 
BRANCH  10  11
ATOM     11  C   UNL     1      38.991  -2.327  14.499  0.00  0.00    +0.000 C 
BRANCH  11  12
ATOM     12  C   UNL     1      40.251  -1.556  14.354  0.00  0.00    +0.000 A 
ATOM     13  C   UNL     1      40.304  -0.222  14.016  0.00  0.00    +0.000 A 
ATOM     14  C   UNL     1      41.532   0.407  13.905  0.00  0.00    +0.000 A 
ATOM     15  C   UNL     1      42.714  -0.254  14.120  0.00  0.00    +0.000 A 
ATOM     16  C   UNL     1      42.673  -1.585  14.457  0.00  0.00    +0.000 A 
ATOM     17  C   UNL     1      41.441  -2.219  14.569  0.00  0.00    +0.000 A 
ENDBRANCH  11  12
ENDBRANCH  10  11
ENDBRANCH   9  10
ENDBRANCH   2   4
BRANCH   1  18
ATOM     18  C   UNL     1      35.586   2.473  16.624  0.00  0.00    +0.000 C 
BRANCH  18  19
ATOM     19  C   UNL     1      36.422   3.540  15.937  0.00  0.00    +0.000 C 
BRANCH  19  20
ATOM     20  O   UNL     1      37.778   3.329  16.185  0.00  0.00    +0.000 OA
BRANCH  20  26
ATOM     21  C   UNL     1      39.317   5.089  15.888  0.00  0.00    +0.000 A 
ATOM     22  C   UNL     1      40.123   6.097  16.372  0.00  0.00    +0.000 A 
ATOM     23  C   UNL     1      40.158   6.320  17.731  0.00  0.00    +0.000 A 
ATOM     24  C   UNL     1      39.417   5.572  18.622  0.00  0.00    +0.000 A 
ATOM     25  C   UNL     1      38.627   4.578  18.093  0.00  0.00    +0.000 A 
ATOM     26  C   UNL     1      38.560   4.318  16.742  0.00  0.00    +0.000 A 
BRANCH  21  28
ATOM     27  C   UNL     1      40.485   4.052  13.964  0.00  0.00    +0.000 C 
ATOM     28  C   UNL     1      39.297   4.869  14.415  0.00  0.00    +0.000 C 
ATOM     29  C   UNL     1      39.417   6.235  13.754  0.00  0.00    +0.000 C 
ENDBRANCH  21  28
ENDBRANCH  20  26
ENDBRANCH  19  20
ENDBRANCH  18  19
ENDBRANCH   1  18
TORSDOF 9
ENDMDL
MODEL 7
REMARK VINA RESULT:      -6.8      2.375      7.833
REMARK  Name = 
REMARK  9 active torsions:
REMARK  status: ('A' for Active; 'I' for Inactive)
REMARK    1  A    between atoms: C_2  and  C_4
REMARK    2  A    between atoms: C_9  and  O_10
REMARK    3  A    between atoms: O_10  and  C_11
REMARK    4  A    between atoms: C_11  and  C_12
REMARK    5  A    between atoms: C_12  and  N_13
REMARK    6  A    between atoms: C_14  and  C_16
REMARK    7  A    between atoms: C_21  and  S_22
REMARK    8  A    between atoms: S_22  and  C_23
REMARK    9  A    between atoms: C_23  and  C_24
REMARK                            x       y       z     vdW  Elec       q    Type
REMARK                         _______ _______ _______ _____ _____    ______ ____
ROOT
ATOM      1  N   UNL     1      38.486   3.054  15.973  0.00  0.00    +0.000 NA
ATOM      2  C   UNL     1      38.514   2.299  14.792  0.00  0.00    +0.000 C 
ATOM      3  O   UNL     1      38.797   2.887  13.718  0.00  0.00    +0.000 OA
ENDROOT
BRANCH   2   4
ATOM      4  C   UNL     1      38.235   0.875  14.732  0.00  0.00    +0.000 A 
ATOM      5  C   UNL     1      39.240  -0.041  14.869  0.00  0.00    +0.000 A 
ATOM      6  C   UNL     1      39.021  -1.405  14.818  0.00  0.00    +0.000 A 
ATOM      7  C   UNL     1      37.751  -1.899  14.624  0.00  0.00    +0.000 A 
ATOM      8  C   UNL     1      36.722  -0.968  14.484  0.00  0.00    +0.000 A 
ATOM      9  C   UNL     1      36.951   0.388  14.536  0.00  0.00    +0.000 A 
BRANCH   9  10
ATOM     10  S   UNL     1      35.647   1.593  14.359  0.00  0.00    +0.000 S 
BRANCH  10  11
ATOM     11  C   UNL     1      35.091   2.048  16.032  0.00  0.00    +0.000 C 
BRANCH  11  12
ATOM     12  C   UNL     1      35.333   0.955  17.006  0.00  0.00    +0.000 A 
ATOM     13  C   UNL     1      36.296   0.998  17.989  0.00  0.00    +0.000 A 
ATOM     14  C   UNL     1      36.444  -0.076  18.850  0.00  0.00    +0.000 A 
ATOM     15  C   UNL     1      35.659  -1.196  18.762  0.00  0.00    +0.000 A 
ATOM     16  C   UNL     1      34.695  -1.250  17.785  0.00  0.00    +0.000 A 
ATOM     17  C   UNL     1      34.545  -0.173  16.919  0.00  0.00    +0.000 A 
ENDBRANCH  11  12
ENDBRANCH  10  11
ENDBRANCH   9  10
ENDBRANCH   2   4
BRANCH   1  18
ATOM     18  C   UNL     1      38.754   4.460  16.081  0.00  0.00    +0.000 C 
BRANCH  18  19
ATOM     19  C   UNL     1      38.301   5.025  17.416  0.00  0.00    +0.000 C 
BRANCH  19  20
ATOM     20  O   UNL     1      39.393   5.503  18.139  0.00  0.00    +0.000 OA
BRANCH  20  26
ATOM     21  C   UNL     1      40.418   7.056  19.584  0.00  0.00    +0.000 A 
ATOM     22  C   UNL     1      40.402   8.201  20.352  0.00  0.00    +0.000 A 
ATOM     23  C   UNL     1      39.243   8.943  20.406  0.00  0.00    +0.000 A 
ATOM     24  C   UNL     1      38.102   8.583  19.721  0.00  0.00    +0.000 A 
ATOM     25  C   UNL     1      38.165   7.433  18.969  0.00  0.00    +0.000 A 
ATOM     26  C   UNL     1      39.301   6.658  18.884  0.00  0.00    +0.000 A 
BRANCH  21  28
ATOM     27  C   UNL     1      42.440   6.378  20.847  0.00  0.00    +0.000 C 
ATOM     28  C   UNL     1      41.684   6.272  19.543  0.00  0.00    +0.000 C 
ATOM     29  C   UNL     1      42.563   6.890  18.465  0.00  0.00    +0.000 C 
ENDBRANCH  21  28
ENDBRANCH  20  26
ENDBRANCH  19  20
ENDBRANCH  18  19
ENDBRANCH   1  18
TORSDOF 9
ENDMDL
MODEL 8
REMARK VINA RESULT:      -6.8      2.719      4.745
REMARK  Name = 
REMARK  9 active torsions:
REMARK  status: ('A' for Active; 'I' for Inactive)
REMARK    1  A    between atoms: C_2  and  C_4
REMARK    2  A    between atoms: C_9  and  O_10
REMARK    3  A    between atoms: O_10  and  C_11
REMARK    4  A    between atoms: C_11  and  C_12
REMARK    5  A    between atoms: C_12  and  N_13
REMARK    6  A    between atoms: C_14  and  C_16
REMARK    7  A    between atoms: C_21  and  S_22
REMARK    8  A    between atoms: S_22  and  C_23
REMARK    9  A    between atoms: C_23  and  C_24
REMARK                            x       y       z     vdW  Elec       q    Type
REMARK                         _______ _______ _______ _____ _____    ______ ____
ROOT
ATOM      1  N   UNL     1      36.175   2.779  15.600  0.00  0.00    +0.000 NA
ATOM      2  C   UNL     1      36.906   3.836  15.038  0.00  0.00    +0.000 C 
ATOM      3  O   UNL     1      37.707   4.462  15.777  0.00  0.00    +0.000 OA
ENDROOT
BRANCH   2   4
ATOM      4  C   UNL     1      36.794   4.252  13.651  0.00  0.00    +0.000 A 
ATOM      5  C   UNL     1      35.941   5.257  13.289  0.00  0.00    +0.000 A 
ATOM      6  C   UNL     1      35.801   5.685  11.983  0.00  0.00    +0.000 A 
ATOM      7  C   UNL     1      36.535   5.099  10.976  0.00  0.00    +0.000 A 
ATOM      8  C   UNL     1      37.407   4.074  11.340  0.00  0.00    +0.000 A 
ATOM      9  C   UNL     1      37.538   3.655  12.645  0.00  0.00    +0.000 A 
BRANCH   9  10
ATOM     10  S   UNL     1      38.648   2.344  13.128  0.00  0.00    +0.000 S 
BRANCH  10  11
ATOM     11  C   UNL     1      37.774   0.766  12.878  0.00  0.00    +0.000 C 
BRANCH  11  12
ATOM     12  C   UNL     1      38.468  -0.357  13.557  0.00  0.00    +0.000 A 
ATOM     13  C   UNL     1      39.334  -0.201  14.616  0.00  0.00    +0.000 A 
ATOM     14  C   UNL     1      39.932  -1.314  15.182  0.00  0.00    +0.000 A 
ATOM     15  C   UNL     1      39.692  -2.584  14.723  0.00  0.00    +0.000 A 
ATOM     16  C   UNL     1      38.830  -2.751  13.667  0.00  0.00    +0.000 A 
ATOM     17  C   UNL     1      38.229  -1.635  13.098  0.00  0.00    +0.000 A 
ENDBRANCH  11  12
ENDBRANCH  10  11
ENDBRANCH   9  10
ENDBRANCH   2   4
BRANCH   1  18
ATOM     18  C   UNL     1      36.252   2.332  16.962  0.00  0.00    +0.000 C 
BRANCH  18  19
ATOM     19  C   UNL     1      35.709   0.924  17.130  0.00  0.00    +0.000 C 
BRANCH  19  20
ATOM     20  O   UNL     1      36.737  -0.011  17.017  0.00  0.00    +0.000 OA
BRANCH  20  26
ATOM     21  C   UNL     1      37.089  -2.320  17.334  0.00  0.00    +0.000 A 
ATOM     22  C   UNL     1      36.878  -3.641  17.003  0.00  0.00    +0.000 A 
ATOM     23  C   UNL     1      36.041  -3.932  15.947  0.00  0.00    +0.000 A 
ATOM     24  C   UNL     1      35.409  -2.950  15.213  0.00  0.00    +0.000 A 
ATOM     25  C   UNL     1      35.649  -1.647  15.581  0.00  0.00    +0.000 A 
ATOM     26  C   UNL     1      36.478  -1.307  16.627  0.00  0.00    +0.000 A 
BRANCH  21  28
ATOM     27  C   UNL     1      38.873  -3.222  18.799  0.00  0.00    +0.000 C 
ATOM     28  C   UNL     1      37.998  -2.033  18.479  0.00  0.00    +0.000 C 
ATOM     29  C   UNL     1      37.122  -1.780  19.698  0.00  0.00    +0.000 C 
ENDBRANCH  21  28
ENDBRANCH  20  26
ENDBRANCH  19  20
ENDBRANCH  18  19
ENDBRANCH   1  18
TORSDOF 9
ENDMDL
MODEL 9
REMARK VINA RESULT:      -6.7      2.729      4.967
REMARK  Name = 
REMARK  9 active torsions:
REMARK  status: ('A' for Active; 'I' for Inactive)
REMARK    1  A    between atoms: C_2  and  C_4
REMARK    2  A    between atoms: C_9  and  O_10
REMARK    3  A    between atoms: O_10  and  C_11
REMARK    4  A    between atoms: C_11  and  C_12
REMARK    5  A    between atoms: C_12  and  N_13
REMARK    6  A    between atoms: C_14  and  C_16
REMARK    7  A    between atoms: C_21  and  S_22
REMARK    8  A    between atoms: S_22  and  C_23
REMARK    9  A    between atoms: C_23  and  C_24
REMARK                            x       y       z     vdW  Elec       q    Type
REMARK                         _______ _______ _______ _____ _____    ______ ____
ROOT
ATOM      1  N   UNL     1      38.447   2.567  15.376  0.00  0.00    +0.000 NA
ATOM      2  C   UNL     1      37.784   3.644  15.982  0.00  0.00    +0.000 C 
ATOM      3  O   UNL     1      36.533   3.700  15.886  0.00  0.00    +0.000 OA
ENDROOT
BRANCH   2   4
ATOM      4  C   UNL     1      38.457   4.702  16.716  0.00  0.00    +0.000 A 
ATOM      5  C   UNL     1      38.620   4.620  18.070  0.00  0.00    +0.000 A 
ATOM      6  C   UNL     1      39.252   5.602  18.808  0.00  0.00    +0.000 A 
ATOM      7  C   UNL     1      39.752   6.725  18.188  0.00  0.00    +0.000 A 
ATOM      8  C   UNL     1      39.589   6.814  16.806  0.00  0.00    +0.000 A 
ATOM      9  C   UNL     1      38.957   5.829  16.081  0.00  0.00    +0.000 A 
BRANCH   9  10
ATOM     10  S   UNL     1      38.739   5.926  14.313  0.00  0.00    +0.000 S 
BRANCH  10  11
ATOM     11  C   UNL     1      37.902   7.502  13.949  0.00  0.00    +0.000 C 
BRANCH  11  12
ATOM     12  C   UNL     1      36.428   7.383  14.083  0.00  0.00    +0.000 A 
ATOM     13  C   UNL     1      35.707   6.273  13.706  0.00  0.00    +0.000 A 
ATOM     14  C   UNL     1      34.333   6.260  13.872  0.00  0.00    +0.000 A 
ATOM     15  C   UNL     1      33.652   7.325  14.405  0.00  0.00    +0.000 A 
ATOM     16  C   UNL     1      34.362   8.438  14.785  0.00  0.00    +0.000 A 
ATOM     17  C   UNL     1      35.741   8.452  14.619  0.00  0.00    +0.000 A 
ENDBRANCH  11  12
ENDBRANCH  10  11
ENDBRANCH   9  10
ENDBRANCH   2   4
BRANCH   1  18
ATOM     18  C   UNL     1      37.827   1.501  14.642  0.00  0.00    +0.000 C 
BRANCH  18  19
ATOM     19  C   UNL     1      38.601   0.200  14.765  0.00  0.00    +0.000 C 
BRANCH  19  20
ATOM     20  O   UNL     1      38.175  -0.517  15.883  0.00  0.00    +0.000 OA
BRANCH  20  26
ATOM     21  C   UNL     1      36.017  -1.132  16.601  0.00  0.00    +0.000 A 
ATOM     22  C   UNL     1      34.914  -1.959  16.577  0.00  0.00    +0.000 A 
ATOM     23  C   UNL     1      34.926  -3.051  15.737  0.00  0.00    +0.000 A 
ATOM     24  C   UNL     1      35.999  -3.345  14.922  0.00  0.00    +0.000 A 
ATOM     25  C   UNL     1      37.076  -2.491  14.980  0.00  0.00    +0.000 A 
ATOM     26  C   UNL     1      37.110  -1.388  15.804  0.00  0.00    +0.000 A 
BRANCH  21  28
ATOM     27  C   UNL     1      35.646  -0.375  18.932  0.00  0.00    +0.000 C 
ATOM     28  C   UNL     1      35.978   0.042  17.518  0.00  0.00    +0.000 C 
ATOM     29  C   UNL     1      34.852   0.949  17.042  0.00  0.00    +0.000 C 
ENDBRANCH  21  28
ENDBRANCH  20  26
ENDBRANCH  19  20
ENDBRANCH  18  19
ENDBRANCH   1  18
TORSDOF 9
ENDMDL
MODEL 10
REMARK VINA RESULT:      -6.7      2.865      6.408
REMARK  Name = 
REMARK  9 active torsions:
REMARK  status: ('A' for Active; 'I' for Inactive)
REMARK    1  A    between atoms: C_2  and  C_4
REMARK    2  A    between atoms: C_9  and  O_10
REMARK    3  A    between atoms: O_10  and  C_11
REMARK    4  A    between atoms: C_11  and  C_12
REMARK    5  A    between atoms: C_12  and  N_13
REMARK    6  A    between atoms: C_14  and  C_16
REMARK    7  A    between atoms: C_21  and  S_22
REMARK    8  A    between atoms: S_22  and  C_23
REMARK    9  A    between atoms: C_23  and  C_24
REMARK                            x       y       z     vdW  Elec       q    Type
REMARK                         _______ _______ _______ _____ _____    ______ ____
ROOT
ATOM      1  N   UNL     1      36.585   0.822  17.098  0.00  0.00    +0.000 NA
ATOM      2  C   UNL     1      36.127  -0.444  17.489  0.00  0.00    +0.000 C 
ATOM      3  O   UNL     1      34.887  -0.624  17.585  0.00  0.00    +0.000 OA
ENDROOT
BRANCH   2   4
ATOM      4  C   UNL     1      37.001  -1.565  17.792  0.00  0.00    +0.000 A 
ATOM      5  C   UNL     1      37.447  -1.780  19.066  0.00  0.00    +0.000 A 
ATOM      6  C   UNL     1      38.279  -2.831  19.399  0.00  0.00    +0.000 A 
ATOM      7  C   UNL     1      38.698  -3.720  18.435  0.00  0.00    +0.000 A 
ATOM      8  C   UNL     1      38.246  -3.505  17.133  0.00  0.00    +0.000 A 
ATOM      9  C   UNL     1      37.417  -2.454  16.812  0.00  0.00    +0.000 A 
BRANCH   9  10
ATOM     10  S   UNL     1      36.830  -2.163  15.153  0.00  0.00    +0.000 S 
BRANCH  10  11
ATOM     11  C   UNL     1      38.163  -2.639  14.008  0.00  0.00    +0.000 C 
BRANCH  11  12
ATOM     12  C   UNL     1      39.180  -1.566  13.874  0.00  0.00    +0.000 A 
ATOM     13  C   UNL     1      39.330  -0.531  14.770  0.00  0.00    +0.000 A 
ATOM     14  C   UNL     1      40.310   0.422  14.555  0.00  0.00    +0.000 A 
ATOM     15  C   UNL     1      41.149   0.377  13.471  0.00  0.00    +0.000 A 
ATOM     16  C   UNL     1      41.007  -0.651  12.571  0.00  0.00    +0.000 A 
ATOM     17  C   UNL     1      40.024  -1.609  12.785  0.00  0.00    +0.000 A 
ENDBRANCH  11  12
ENDBRANCH  10  11
ENDBRANCH   9  10
ENDBRANCH   2   4
BRANCH   1  18
ATOM     18  C   UNL     1      35.762   1.957  16.790  0.00  0.00    +0.000 C 
BRANCH  18  19
ATOM     19  C   UNL     1      35.460   2.054  15.304  0.00  0.00    +0.000 C 
BRANCH  19  20
ATOM     20  O   UNL     1      36.508   2.684  14.634  0.00  0.00    +0.000 OA
BRANCH  20  26
ATOM     21  C   UNL     1      38.030   2.861  12.844  0.00  0.00    +0.000 A 
ATOM     22  C   UNL     1      38.594   2.400  11.673  0.00  0.00    +0.000 A 
ATOM     23  C   UNL     1      38.129   1.219  11.137  0.00  0.00    +0.000 A 
ATOM     24  C   UNL     1      37.122   0.484  11.729  0.00  0.00    +0.000 A 
ATOM     25  C   UNL     1      36.591   0.984  12.895  0.00  0.00    +0.000 A 
ATOM     26  C   UNL     1      37.022   2.160  13.468  0.00  0.00    +0.000 A 
BRANCH  21  28
ATOM     27  C   UNL     1      38.394   5.275  12.417  0.00  0.00    +0.000 C 
ATOM     28  C   UNL     1      38.551   4.141  13.402  0.00  0.00    +0.000 C 
ATOM     29  C   UNL     1      40.043   3.955  13.637  0.00  0.00    +0.000 C 
ENDBRANCH  21  28
ENDBRANCH  20  26
ENDBRANCH  19  20
ENDBRANCH  18  19
ENDBRANCH   1  18
TORSDOF 9
ENDMDL
