MODEL 1
REMARK VINA RESULT:      -8.4      0.000      0.000
REMARK  Name = 
REMARK  2 active torsions:
REMARK  status: ('A' for Active; 'I' for Inactive)
REMARK    1  A    between atoms: C_4  and  C_5
REMARK    2  A    between atoms: C_5  and  C_6
REMARK                            x       y       z     vdW  Elec       q    Type
REMARK                         _______ _______ _______ _____ _____    ______ ____
ROOT
ATOM      1  C   UNL     1      14.537  13.720  35.424  0.00  0.00    +0.000 C 
ENDROOT
BRANCH   1   5
ATOM      2  C   UNL     1      15.807  10.387  31.943  0.00  0.00    +0.000 C 
ATOM      3  C   UNL     1      15.094  11.646  32.356  0.00  0.00    +0.000 A 
ATOM      4  C   UNL     1      15.128  12.097  33.656  0.00  0.00    +0.000 A 
ATOM      5  C   UNL     1      14.461  13.272  34.023  0.00  0.00    +0.000 A 
ATOM      6  C   UNL     1      13.771  13.961  33.046  0.00  0.00    +0.000 A 
ATOM      7  C   UNL     1      13.077  15.205  33.488  0.00  0.00    +0.000 C 
ATOM      8  C   UNL     1      13.748  13.499  31.764  0.00  0.00    +0.000 A 
ATOM      9  C   UNL     1      14.400  12.342  31.384  0.00  0.00    +0.000 A 
ATOM     10  N   UNL     1      14.389  11.842  30.059  0.00  0.00    +0.000 NA
ENDBRANCH   1   5
BRANCH   1  11
ATOM     11  C   UNL     1      14.063  12.713  36.408  0.00  0.00    +0.000 A 
ATOM     12  C   UNL     1      12.711  12.420  36.512  0.00  0.00    +0.000 A 
ATOM     13  C   UNL     1      12.194  11.520  37.386  0.00  0.00    +0.000 A 
ATOM     14  C   UNL     1      10.730  11.218  37.485  0.00  0.00    +0.000 C 
ATOM     15  C   UNL     1      13.074  10.855  38.222  0.00  0.00    +0.000 A 
ATOM     16  N   UNL     1      12.522   9.897  39.145  0.00  0.00    +0.000 NA
ATOM     17  C   UNL     1      14.431  11.097  38.170  0.00  0.00    +0.000 A 
ATOM     18  C   UNL     1      14.913  12.028  37.262  0.00  0.00    +0.000 A 
ATOM     19  C   UNL     1      16.375  12.325  37.162  0.00  0.00    +0.000 C 
ENDBRANCH   1  11
TORSDOF 2
ENDMDL
MODEL 2
REMARK VINA RESULT:      -7.8      1.090      2.354
REMARK  Name = 
REMARK  2 active torsions:
REMARK  status: ('A' for Active; 'I' for Inactive)
REMARK    1  A    between atoms: C_4  and  C_5
REMARK    2  A    between atoms: C_5  and  C_6
REMARK                            x       y       z     vdW  Elec       q    Type
REMARK                         _______ _______ _______ _____ _____    ______ ____
ROOT
ATOM      1  C   UNL     1      16.093  12.429  35.575  0.00  0.00    +0.000 C 
ENDROOT
BRANCH   1   5
ATOM      2  C   UNL     1      13.500  13.695  31.512  0.00  0.00    +0.000 C 
ATOM      3  C   UNL     1      14.452  12.775  32.227  0.00  0.00    +0.000 A 
ATOM      4  C   UNL     1      14.837  13.009  33.528  0.00  0.00    +0.000 A 
ATOM      5  C   UNL     1      15.721  12.142  34.179  0.00  0.00    +0.000 A 
ATOM      6  C   UNL     1      16.194  11.049  33.481  0.00  0.00    +0.000 A 
ATOM      7  C   UNL     1      17.133  10.156  34.218  0.00  0.00    +0.000 C 
ATOM      8  C   UNL     1      15.803  10.834  32.193  0.00  0.00    +0.000 A 
ATOM      9  C   UNL     1      14.931  11.679  31.534  0.00  0.00    +0.000 A 
ATOM     10  N   UNL     1      14.511  11.476  30.197  0.00  0.00    +0.000 NA
ENDBRANCH   1   5
BRANCH   1  11
ATOM     11  C   UNL     1      15.166  11.848  36.580  0.00  0.00    +0.000 A 
ATOM     12  C   UNL     1      13.794  12.004  36.437  0.00  0.00    +0.000 A 
ATOM     13  C   UNL     1      12.879  11.513  37.310  0.00  0.00    +0.000 A 
ATOM     14  C   UNL     1      11.402  11.692  37.140  0.00  0.00    +0.000 C 
ATOM     15  C   UNL     1      13.348  10.811  38.407  0.00  0.00    +0.000 A 
ATOM     16  N   UNL     1      12.373  10.286  39.330  0.00  0.00    +0.000 NA
ATOM     17  C   UNL     1      14.699  10.617  38.609  0.00  0.00    +0.000 A 
ATOM     18  C   UNL     1      15.597  11.141  37.691  0.00  0.00    +0.000 A 
ATOM     19  C   UNL     1      17.070  10.956  37.860  0.00  0.00    +0.000 C 
ENDBRANCH   1  11
TORSDOF 2
ENDMDL
MODEL 3
REMARK VINA RESULT:      -6.7     18.238     19.816
REMARK  Name = 
REMARK  2 active torsions:
REMARK  status: ('A' for Active; 'I' for Inactive)
REMARK    1  A    between atoms: C_4  and  C_5
REMARK    2  A    between atoms: C_5  and  C_6
REMARK                            x       y       z     vdW  Elec       q    Type
REMARK                         _______ _______ _______ _____ _____    ______ ____
ROOT
ATOM      1  C   UNL     1      29.419  22.442  26.920  0.00  0.00    +0.000 C 
ENDROOT
BRANCH   1   5
ATOM      2  C   UNL     1      25.461  23.301  24.017  0.00  0.00    +0.000 C 
ATOM      3  C   UNL     1      26.948  23.178  24.204  0.00  0.00    +0.000 A 
ATOM      4  C   UNL     1      27.496  22.884  25.433  0.00  0.00    +0.000 A 
ATOM      5  C   UNL     1      28.882  22.770  25.589  0.00  0.00    +0.000 A 
ATOM      6  C   UNL     1      29.681  22.961  24.479  0.00  0.00    +0.000 A 
ATOM      7  C   UNL     1      31.149  22.829  24.698  0.00  0.00    +0.000 C 
ATOM      8  C   UNL     1      29.120  23.252  23.271  0.00  0.00    +0.000 A 
ATOM      9  C   UNL     1      27.755  23.368  23.098  0.00  0.00    +0.000 A 
ATOM     10  N   UNL     1      27.151  23.670  21.853  0.00  0.00    +0.000 NA
ENDBRANCH   1   5
BRANCH   1  11
ATOM     11  C   UNL     1      28.591  22.944  28.047  0.00  0.00    +0.000 A 
ATOM     12  C   UNL     1      27.777  22.073  28.758  0.00  0.00    +0.000 A 
ATOM     13  C   UNL     1      26.986  22.449  29.795  0.00  0.00    +0.000 A 
ATOM     14  C   UNL     1      26.113  21.495  30.550  0.00  0.00    +0.000 C 
ATOM     15  C   UNL     1      26.998  23.784  30.163  0.00  0.00    +0.000 A 
ATOM     16  N   UNL     1      26.161  24.178  31.268  0.00  0.00    +0.000 NA
ATOM     17  C   UNL     1      27.786  24.702  29.500  0.00  0.00    +0.000 A 
ATOM     18  C   UNL     1      28.575  24.272  28.444  0.00  0.00    +0.000 A 
ATOM     19  C   UNL     1      29.450  25.224  27.695  0.00  0.00    +0.000 C 
ENDBRANCH   1  11
TORSDOF 2
ENDMDL
MODEL 4
REMARK VINA RESULT:      -6.6     18.260     20.499
REMARK  Name = 
REMARK  2 active torsions:
REMARK  status: ('A' for Active; 'I' for Inactive)
REMARK    1  A    between atoms: C_4  and  C_5
REMARK    2  A    between atoms: C_5  and  C_6
REMARK                            x       y       z     vdW  Elec       q    Type
REMARK                         _______ _______ _______ _____ _____    ______ ____
ROOT
ATOM      1  C   UNL     1      29.458  22.499  26.987  0.00  0.00    +0.000 C 
ENDROOT
BRANCH   1   5
ATOM      2  C   UNL     1      26.117  21.519  30.554  0.00  0.00    +0.000 C 
ATOM      3  C   UNL     1      26.996  22.487  29.810  0.00  0.00    +0.000 A 
ATOM      4  C   UNL     1      27.807  22.073  28.776  0.00  0.00    +0.000 A 
ATOM      5  C   UNL     1      28.617  22.988  28.093  0.00  0.00    +0.000 A 
ATOM      6  C   UNL     1      28.578  24.311  28.484  0.00  0.00    +0.000 A 
ATOM      7  C   UNL     1      29.459  25.245  27.726  0.00  0.00    +0.000 C 
ATOM      8  C   UNL     1      27.770  24.702  29.510  0.00  0.00    +0.000 A 
ATOM      9  C   UNL     1      26.964  23.814  30.195  0.00  0.00    +0.000 A 
ATOM     10  N   UNL     1      26.117  24.197  31.264  0.00  0.00    +0.000 NA
ENDBRANCH   1   5
BRANCH   1  11
ATOM     11  C   UNL     1      28.920  22.804  25.637  0.00  0.00    +0.000 A 
ATOM     12  C   UNL     1      27.550  22.906  25.437  0.00  0.00    +0.000 A 
ATOM     13  C   UNL     1      26.975  23.175  24.238  0.00  0.00    +0.000 A 
ATOM     14  C   UNL     1      25.494  23.280  24.041  0.00  0.00    +0.000 C 
ATOM     15  C   UNL     1      27.811  23.362  23.151  0.00  0.00    +0.000 A 
ATOM     16  N   UNL     1      27.197  23.653  21.880  0.00  0.00    +0.000 NA
ATOM     17  C   UNL     1      29.182  23.276  23.280  0.00  0.00    +0.000 A 
ATOM     18  C   UNL     1      29.724  22.996  24.524  0.00  0.00    +0.000 A 
ATOM     19  C   UNL     1      31.202  22.896  24.720  0.00  0.00    +0.000 C 
ENDBRANCH   1  11
TORSDOF 2
ENDMDL
MODEL 5
REMARK VINA RESULT:      -6.5     18.142     19.985
REMARK  Name = 
REMARK  2 active torsions:
REMARK  status: ('A' for Active; 'I' for Inactive)
REMARK    1  A    between atoms: C_4  and  C_5
REMARK    2  A    between atoms: C_5  and  C_6
REMARK                            x       y       z     vdW  Elec       q    Type
REMARK                         _______ _______ _______ _____ _____    ______ ____
ROOT
ATOM      1  C   UNL     1      26.118  23.052  25.485  0.00  0.00    +0.000 C 
ENDROOT
BRANCH   1   5
ATOM      2  C   UNL     1      30.839  22.262  26.872  0.00  0.00    +0.000 C 
ATOM      3  C   UNL     1      29.825  22.651  25.831  0.00  0.00    +0.000 A 
ATOM      4  C   UNL     1      28.477  22.669  26.112  0.00  0.00    +0.000 A 
ATOM      5  C   UNL     1      27.547  23.036  25.132  0.00  0.00    +0.000 A 
ATOM      6  C   UNL     1      28.020  23.378  23.881  0.00  0.00    +0.000 A 
ATOM      7  C   UNL     1      26.990  23.760  22.873  0.00  0.00    +0.000 C 
ATOM      8  C   UNL     1      29.358  23.353  23.621  0.00  0.00    +0.000 A 
ATOM      9  C   UNL     1      30.290  22.993  24.575  0.00  0.00    +0.000 A 
ATOM     10  N   UNL     1      31.684  22.960  24.327  0.00  0.00    +0.000 NA
ENDBRANCH   1   5
BRANCH   1  11
ATOM     11  C   UNL     1      25.791  23.914  26.650  0.00  0.00    +0.000 A 
ATOM     12  C   UNL     1      26.139  23.516  27.934  0.00  0.00    +0.000 A 
ATOM     13  C   UNL     1      25.874  24.239  29.051  0.00  0.00    +0.000 A 
ATOM     14  C   UNL     1      26.255  23.792  30.429  0.00  0.00    +0.000 C 
ATOM     15  C   UNL     1      25.218  25.448  28.895  0.00  0.00    +0.000 A 
ATOM     16  N   UNL     1      24.943  26.216  30.083  0.00  0.00    +0.000 NA
ATOM     17  C   UNL     1      24.846  25.905  27.647  0.00  0.00    +0.000 A 
ATOM     18  C   UNL     1      25.136  25.130  26.535  0.00  0.00    +0.000 A 
ATOM     19  C   UNL     1      24.759  25.580  25.160  0.00  0.00    +0.000 C 
ENDBRANCH   1  11
TORSDOF 2
ENDMDL
MODEL 6
REMARK VINA RESULT:      -6.3     18.625     20.112
REMARK  Name = 
REMARK  2 active torsions:
REMARK  status: ('A' for Active; 'I' for Inactive)
REMARK    1  A    between atoms: C_4  and  C_5
REMARK    2  A    between atoms: C_5  and  C_6
REMARK                            x       y       z     vdW  Elec       q    Type
REMARK                         _______ _______ _______ _____ _____    ______ ____
ROOT
ATOM      1  C   UNL     1      27.774  22.223  26.565  0.00  0.00    +0.000 C 
ENDROOT
BRANCH   1   5
ATOM      2  C   UNL     1      26.817  23.951  21.990  0.00  0.00    +0.000 C 
ATOM      3  C   UNL     1      27.790  23.595  23.081  0.00  0.00    +0.000 A 
ATOM      4  C   UNL     1      27.362  23.095  24.290  0.00  0.00    +0.000 A 
ATOM      5  C   UNL     1      28.281  22.766  25.293  0.00  0.00    +0.000 A 
ATOM      6  C   UNL     1      29.624  22.957  25.035  0.00  0.00    +0.000 A 
ATOM      7  C   UNL     1      30.561  22.592  26.135  0.00  0.00    +0.000 C 
ATOM      8  C   UNL     1      30.028  23.454  23.832  0.00  0.00    +0.000 A 
ATOM      9  C   UNL     1      29.136  23.784  22.831  0.00  0.00    +0.000 A 
ATOM     10  N   UNL     1      29.534  24.302  21.573  0.00  0.00    +0.000 NA
ENDBRANCH   1   5
BRANCH   1  11
ATOM     11  C   UNL     1      27.045  23.213  27.398  0.00  0.00    +0.000 A 
ATOM     12  C   UNL     1      25.947  23.887  26.882  0.00  0.00    +0.000 A 
ATOM     13  C   UNL     1      25.229  24.810  27.571  0.00  0.00    +0.000 A 
ATOM     14  C   UNL     1      24.048  25.529  26.996  0.00  0.00    +0.000 C 
ATOM     15  C   UNL     1      25.619  25.090  28.869  0.00  0.00    +0.000 A 
ATOM     16  N   UNL     1      24.851  26.067  29.599  0.00  0.00    +0.000 NA
ATOM     17  C   UNL     1      26.700  24.455  29.445  0.00  0.00    +0.000 A 
ATOM     18  C   UNL     1      27.405  23.522  28.701  0.00  0.00    +0.000 A 
ATOM     19  C   UNL     1      28.581  22.802  29.278  0.00  0.00    +0.000 C 
ENDBRANCH   1  11
TORSDOF 2
ENDMDL
MODEL 7
REMARK VINA RESULT:      -6.3     20.385     22.880
REMARK  Name = 
REMARK  2 active torsions:
REMARK  status: ('A' for Active; 'I' for Inactive)
REMARK    1  A    between atoms: C_4  and  C_5
REMARK    2  A    between atoms: C_5  and  C_6
REMARK                            x       y       z     vdW  Elec       q    Type
REMARK                         _______ _______ _______ _____ _____    ______ ____
ROOT
ATOM      1  C   UNL     1      17.631  -7.419  26.405  0.00  0.00    +0.000 C 
ENDROOT
BRANCH   1   5
ATOM      2  C   UNL     1      21.806  -9.508  24.659  0.00  0.00    +0.000 C 
ATOM      3  C   UNL     1      21.038  -8.300  25.123  0.00  0.00    +0.000 A 
ATOM      4  C   UNL     1      19.727  -8.396  25.534  0.00  0.00    +0.000 A 
ATOM      5  C   UNL     1      19.028  -7.263  25.965  0.00  0.00    +0.000 A 
ATOM      6  C   UNL     1      19.689  -6.051  25.967  0.00  0.00    +0.000 A 
ATOM      7  C   UNL     1      18.901  -4.875  26.434  0.00  0.00    +0.000 C 
ATOM      8  C   UNL     1      20.987  -5.975  25.556  0.00  0.00    +0.000 A 
ATOM      9  C   UNL     1      21.692  -7.083  25.127  0.00  0.00    +0.000 A 
ATOM     10  N   UNL     1      23.040  -7.028  24.696  0.00  0.00    +0.000 NA
ENDBRANCH   1   5
BRANCH   1  11
ATOM     11  C   UNL     1      17.416  -8.547  27.347  0.00  0.00    +0.000 A 
ATOM     12  C   UNL     1      18.114  -8.600  28.546  0.00  0.00    +0.000 A 
ATOM     13  C   UNL     1      17.982  -9.596  29.457  0.00  0.00    +0.000 A 
ATOM     14  C   UNL     1      18.745  -9.637  30.746  0.00  0.00    +0.000 C 
ATOM     15  C   UNL     1      17.094 -10.619  29.170  0.00  0.00    +0.000 A 
ATOM     16  N   UNL     1      16.953 -11.673  30.144  0.00  0.00    +0.000 NA
ATOM     17  C   UNL     1      16.367 -10.627  27.998  0.00  0.00    +0.000 A 
ATOM     18  C   UNL     1      16.538  -9.590  27.095  0.00  0.00    +0.000 A 
ATOM     19  C   UNL     1      15.772  -9.548  25.812  0.00  0.00    +0.000 C 
ENDBRANCH   1  11
TORSDOF 2
ENDMDL
MODEL 8
REMARK VINA RESULT:      -6.3     18.632     20.730
REMARK  Name = 
REMARK  2 active torsions:
REMARK  status: ('A' for Active; 'I' for Inactive)
REMARK    1  A    between atoms: C_4  and  C_5
REMARK    2  A    between atoms: C_5  and  C_6
REMARK                            x       y       z     vdW  Elec       q    Type
REMARK                         _______ _______ _______ _____ _____    ______ ____
ROOT
ATOM      1  C   UNL     1      27.581  22.246  26.557  0.00  0.00    +0.000 C 
ENDROOT
BRANCH   1   5
ATOM      2  C   UNL     1      23.965  25.662  26.870  0.00  0.00    +0.000 C 
ATOM      3  C   UNL     1      25.112  24.905  27.483  0.00  0.00    +0.000 A 
ATOM      4  C   UNL     1      25.801  23.946  26.774  0.00  0.00    +0.000 A 
ATOM      5  C   UNL     1      26.867  23.253  27.360  0.00  0.00    +0.000 A 
ATOM      6  C   UNL     1      27.205  23.559  28.663  0.00  0.00    +0.000 A 
ATOM      7  C   UNL     1      28.346  22.793  29.240  0.00  0.00    +0.000 C 
ATOM      8  C   UNL     1      26.511  24.510  29.349  0.00  0.00    +0.000 A 
ATOM      9  C   UNL     1      25.456  25.204  28.788  0.00  0.00    +0.000 A 
ATOM     10  N   UNL     1      24.720  26.196  29.481  0.00  0.00    +0.000 NA
ENDBRANCH   1   5
BRANCH   1  11
ATOM     11  C   UNL     1      28.139  22.770  25.284  0.00  0.00    +0.000 A 
ATOM     12  C   UNL     1      27.291  23.139  24.249  0.00  0.00    +0.000 A 
ATOM     13  C   UNL     1      27.717  23.620  23.054  0.00  0.00    +0.000 A 
ATOM     14  C   UNL     1      26.786  24.011  21.947  0.00  0.00    +0.000 C 
ATOM     15  C   UNL     1      29.081  23.752  22.862  0.00  0.00    +0.000 A 
ATOM     16  N   UNL     1      29.529  24.269  21.593  0.00  0.00    +0.000 NA
ATOM     17  C   UNL     1      29.980  23.407  23.851  0.00  0.00    +0.000 A 
ATOM     18  C   UNL     1      29.498  22.916  25.054  0.00  0.00    +0.000 A 
ATOM     19  C   UNL     1      30.427  22.531  26.159  0.00  0.00    +0.000 C 
ENDBRANCH   1  11
TORSDOF 2
ENDMDL
MODEL 9
REMARK VINA RESULT:      -6.2     20.491     22.966
REMARK  Name = 
REMARK  2 active torsions:
REMARK  status: ('A' for Active; 'I' for Inactive)
REMARK    1  A    between atoms: C_4  and  C_5
REMARK    2  A    between atoms: C_5  and  C_6
REMARK                            x       y       z     vdW  Elec       q    Type
REMARK                         _______ _______ _______ _____ _____    ______ ____
ROOT
ATOM      1  C   UNL     1      18.063  -7.263  27.455  0.00  0.00    +0.000 C 
ENDROOT
BRANCH   1   5
ATOM      2  C   UNL     1      22.031  -9.613  25.563  0.00  0.00    +0.000 C 
ATOM      3  C   UNL     1      21.212  -8.366  25.752  0.00  0.00    +0.000 A 
ATOM      4  C   UNL     1      20.046  -8.375  26.485  0.00  0.00    +0.000 A 
ATOM      5  C   UNL     1      19.297  -7.204  26.653  0.00  0.00    +0.000 A 
ATOM      6  C   UNL     1      19.762  -6.044  26.065  0.00  0.00    +0.000 A 
ATOM      7  C   UNL     1      18.929  -4.826  26.274  0.00  0.00    +0.000 C 
ATOM      8  C   UNL     1      20.918  -6.054  25.344  0.00  0.00    +0.000 A 
ATOM      9  C   UNL     1      21.669  -7.200  25.167  0.00  0.00    +0.000 A 
ATOM     10  N   UNL     1      22.873  -7.234  24.421  0.00  0.00    +0.000 NA
ENDBRANCH   1   5
BRANCH   1  11
ATOM     11  C   UNL     1      17.078  -8.267  26.976  0.00  0.00    +0.000 A 
ATOM     12  C   UNL     1      16.366  -8.044  25.806  0.00  0.00    +0.000 A 
ATOM     13  C   UNL     1      15.445  -8.903  25.302  0.00  0.00    +0.000 A 
ATOM     14  C   UNL     1      14.685  -8.645  24.037  0.00  0.00    +0.000 C 
ATOM     15  C   UNL     1      15.206 -10.074  26.001  0.00  0.00    +0.000 A 
ATOM     16  N   UNL     1      14.231 -10.987  25.460  0.00  0.00    +0.000 NA
ATOM     17  C   UNL     1      15.881 -10.359  27.171  0.00  0.00    +0.000 A 
ATOM     18  C   UNL     1      16.810  -9.449  27.649  0.00  0.00    +0.000 A 
ATOM     19  C   UNL     1      17.571  -9.710  28.909  0.00  0.00    +0.000 C 
ENDBRANCH   1  11
TORSDOF 2
ENDMDL
MODEL 10
REMARK VINA RESULT:      -6.2     17.864     20.207
REMARK  Name = 
REMARK  2 active torsions:
REMARK  status: ('A' for Active; 'I' for Inactive)
REMARK    1  A    between atoms: C_4  and  C_5
REMARK    2  A    between atoms: C_5  and  C_6
REMARK                            x       y       z     vdW  Elec       q    Type
REMARK                         _______ _______ _______ _____ _____    ______ ____
ROOT
ATOM      1  C   UNL     1      25.858  23.526  25.644  0.00  0.00    +0.000 C 
ENDROOT
BRANCH   1   5
ATOM      2  C   UNL     1      26.733  22.789  30.495  0.00  0.00    +0.000 C 
ATOM      3  C   UNL     1      26.152  23.610  29.377  0.00  0.00    +0.000 A 
ATOM      4  C   UNL     1      26.268  23.218  28.062  0.00  0.00    +0.000 A 
ATOM      5  C   UNL     1      25.719  23.994  27.034  0.00  0.00    +0.000 A 
ATOM      6  C   UNL     1      25.060  25.158  27.376  0.00  0.00    +0.000 A 
ATOM      7  C   UNL     1      24.495  25.948  26.245  0.00  0.00    +0.000 C 
ATOM      8  C   UNL     1      24.957  25.530  28.683  0.00  0.00    +0.000 A 
ATOM      9  C   UNL     1      25.492  24.778  29.711  0.00  0.00    +0.000 A 
ATOM     10  N   UNL     1      25.397  25.145  31.076  0.00  0.00    +0.000 NA
ENDBRANCH   1   5
BRANCH   1  11
ATOM     11  C   UNL     1      27.262  23.271  25.230  0.00  0.00    +0.000 A 
ATOM     12  C   UNL     1      28.193  22.820  26.155  0.00  0.00    +0.000 A 
ATOM     13  C   UNL     1      29.494  22.569  25.862  0.00  0.00    +0.000 A 
ATOM     14  C   UNL     1      30.485  22.083  26.875  0.00  0.00    +0.000 C 
ATOM     15  C   UNL     1      29.912  22.775  24.559  0.00  0.00    +0.000 A 
ATOM     16  N   UNL     1      31.293  22.502  24.251  0.00  0.00    +0.000 NA
ATOM     17  C   UNL     1      29.038  23.221  23.589  0.00  0.00    +0.000 A 
ATOM     18  C   UNL     1      27.719  23.467  23.936  0.00  0.00    +0.000 A 
ATOM     19  C   UNL     1      26.730  23.947  22.923  0.00  0.00    +0.000 C 
ENDBRANCH   1  11
TORSDOF 2
ENDMDL
