MODEL 1
REMARK VINA RESULT:      -8.0      0.000      0.000
REMARK  Name = 
REMARK  2 active torsions:
REMARK  status: ('A' for Active; 'I' for Inactive)
REMARK    1  A    between atoms: C_6  and  C_7
REMARK    2  A    between atoms: C_7  and  C_8
REMARK                            x       y       z     vdW  Elec       q    Type
REMARK                         _______ _______ _______ _____ _____    ______ ____
ROOT
ATOM      1  C   UNL     1      16.312  10.322  36.394  0.00  0.00    +0.000 C 
ATOM      2  C   UNL     1      15.052  11.174  37.019  0.00  0.00    +0.000 C 
ATOM      3  C   UNL     1      15.326  12.617  36.758  0.00  0.00    +0.000 C 
ATOM      4  C   UNL     1      14.927  12.854  35.348  0.00  0.00    +0.000 A 
ATOM      5  N   UNL     1      14.129  13.646  34.646  0.00  0.00    +0.000 NA
ATOM      6  C   UNL     1      14.213  13.344  33.332  0.00  0.00    +0.000 A 
ATOM      7  C   UNL     1      13.623  13.832  32.168  0.00  0.00    +0.000 A 
ATOM      8  C   UNL     1      13.927  13.296  30.931  0.00  0.00    +0.000 A 
ATOM      9  C   UNL     1      14.828  12.259  30.807  0.00  0.00    +0.000 A 
ATOM     10  C   UNL     1      15.435  11.752  31.972  0.00  0.00    +0.000 A 
ATOM     11  C   UNL     1      15.105  12.311  33.180  0.00  0.00    +0.000 A 
ATOM     12  C   UNL     1      15.558  12.003  34.476  0.00  0.00    +0.000 A 
ATOM     13  C   UNL     1      16.471  11.054  35.002  0.00  0.00    +0.000 C 
ATOM     14  O   UNL     1      17.490  10.761  34.319  0.00  0.00    +0.000 OA
ENDROOT
BRANCH   1  15
ATOM     15  C   UNL     1      17.442  11.234  37.171  0.00  0.00    +0.000 C 
BRANCH  15  21
ATOM     16  C   UNL     1      20.212   9.831  36.867  0.00  0.00    +0.000 C 
ATOM     17  C   UNL     1      19.291   9.642  38.022  0.00  0.00    +0.000 A 
ATOM     18  N   UNL     1      19.486   8.853  39.098  0.00  0.00    +0.000 NA
ATOM     19  C   UNL     1      18.388   9.006  39.875  0.00  0.00    +0.000 A 
ATOM     20  N   UNL     1      17.544   9.877  39.266  0.00  0.00    +0.000 NA
ATOM     21  C   UNL     1      18.074  10.290  38.116  0.00  0.00    +0.000 A 
ENDBRANCH  15  21
ENDBRANCH   1  15
TORSDOF 2
ENDMDL
MODEL 2
REMARK VINA RESULT:      -7.5      1.913      7.274
REMARK  Name = 
REMARK  2 active torsions:
REMARK  status: ('A' for Active; 'I' for Inactive)
REMARK    1  A    between atoms: C_6  and  C_7
REMARK    2  A    between atoms: C_7  and  C_8
REMARK                            x       y       z     vdW  Elec       q    Type
REMARK                         _______ _______ _______ _____ _____    ______ ____
ROOT
ATOM      1  C   UNL     1      16.658   9.607  35.387  0.00  0.00    +0.000 C 
ATOM      2  C   UNL     1      18.122   8.859  35.361  0.00  0.00    +0.000 C 
ATOM      3  C   UNL     1      19.104   9.794  35.984  0.00  0.00    +0.000 C 
ATOM      4  C   UNL     1      18.931   9.639  37.450  0.00  0.00    +0.000 A 
ATOM      5  N   UNL     1      19.652   9.350  38.525  0.00  0.00    +0.000 NA
ATOM      6  C   UNL     1      18.869   9.363  39.625  0.00  0.00    +0.000 A 
ATOM      7  C   UNL     1      19.076   9.143  40.985  0.00  0.00    +0.000 A 
ATOM      8  C   UNL     1      18.038   9.234  41.894  0.00  0.00    +0.000 A 
ATOM      9  C   UNL     1      16.760   9.548  41.483  0.00  0.00    +0.000 A 
ATOM     10  C   UNL     1      16.530   9.774  40.112  0.00  0.00    +0.000 A 
ATOM     11  C   UNL     1      17.587   9.673  39.244  0.00  0.00    +0.000 A 
ATOM     12  C   UNL     1      17.635   9.849  37.849  0.00  0.00    +0.000 A 
ATOM     13  C   UNL     1      16.671  10.176  36.862  0.00  0.00    +0.000 C 
ATOM     14  O   UNL     1      15.747  10.977  37.170  0.00  0.00    +0.000 OA
ENDROOT
BRANCH   1  15
ATOM     15  C   UNL     1      17.238  10.984  34.693  0.00  0.00    +0.000 C 
BRANCH  15  21
ATOM     16  C   UNL     1      14.680  12.752  34.449  0.00  0.00    +0.000 C 
ATOM     17  C   UNL     1      15.248  11.931  33.345  0.00  0.00    +0.000 A 
ATOM     18  N   UNL     1      14.768  11.809  32.090  0.00  0.00    +0.000 NA
ATOM     19  C   UNL     1      15.611  10.965  31.450  0.00  0.00    +0.000 A 
ATOM     20  N   UNL     1      16.585  10.585  32.315  0.00  0.00    +0.000 NA
ATOM     21  C   UNL     1      16.389  11.167  33.498  0.00  0.00    +0.000 A 
ENDBRANCH  15  21
ENDBRANCH   1  15
TORSDOF 2
ENDMDL
MODEL 3
REMARK VINA RESULT:      -7.5      1.661      2.617
REMARK  Name = 
REMARK  2 active torsions:
REMARK  status: ('A' for Active; 'I' for Inactive)
REMARK    1  A    between atoms: C_6  and  C_7
REMARK    2  A    between atoms: C_7  and  C_8
REMARK                            x       y       z     vdW  Elec       q    Type
REMARK                         _______ _______ _______ _____ _____    ______ ____
ROOT
ATOM      1  C   UNL     1      17.217  11.568  36.334  0.00  0.00    +0.000 C 
ATOM      2  C   UNL     1      18.028  10.708  35.190  0.00  0.00    +0.000 C 
ATOM      3  C   UNL     1      17.052   9.759  34.582  0.00  0.00    +0.000 C 
ATOM      4  C   UNL     1      16.281  10.553  33.592  0.00  0.00    +0.000 A 
ATOM      5  N   UNL     1      15.972  10.531  32.303  0.00  0.00    +0.000 NA
ATOM      6  C   UNL     1      15.202  11.596  31.993  0.00  0.00    +0.000 A 
ATOM      7  C   UNL     1      14.598  12.072  30.831  0.00  0.00    +0.000 A 
ATOM      8  C   UNL     1      13.844  13.230  30.835  0.00  0.00    +0.000 A 
ATOM      9  C   UNL     1      13.663  13.956  31.994  0.00  0.00    +0.000 A 
ATOM     10  C   UNL     1      14.265  13.492  33.179  0.00  0.00    +0.000 A 
ATOM     11  C   UNL     1      15.005  12.338  33.131  0.00  0.00    +0.000 A 
ATOM     12  C   UNL     1      15.700  11.663  34.152  0.00  0.00    +0.000 A 
ATOM     13  C   UNL     1      15.893  11.899  35.537  0.00  0.00    +0.000 C 
ATOM     14  O   UNL     1      14.948  12.415  36.194  0.00  0.00    +0.000 OA
ENDROOT
BRANCH   1  15
ATOM     15  C   UNL     1      16.617  10.219  37.064  0.00  0.00    +0.000 C 
BRANCH  15  21
ATOM     16  C   UNL     1      15.767   9.770  40.032  0.00  0.00    +0.000 C 
ATOM     17  C   UNL     1      17.176   9.821  39.555  0.00  0.00    +0.000 A 
ATOM     18  N   UNL     1      18.294   9.691  40.300  0.00  0.00    +0.000 NA
ATOM     19  C   UNL     1      19.331   9.804  39.437  0.00  0.00    +0.000 A 
ATOM     20  N   UNL     1      18.837  10.001  38.188  0.00  0.00    +0.000 NA
ATOM     21  C   UNL     1      17.505  10.016  38.227  0.00  0.00    +0.000 A 
ENDBRANCH  15  21
ENDBRANCH   1  15
TORSDOF 2
ENDMDL
MODEL 4
REMARK VINA RESULT:      -7.1      2.057      3.467
REMARK  Name = 
REMARK  2 active torsions:
REMARK  status: ('A' for Active; 'I' for Inactive)
REMARK    1  A    between atoms: C_6  and  C_7
REMARK    2  A    between atoms: C_7  and  C_8
REMARK                            x       y       z     vdW  Elec       q    Type
REMARK                         _______ _______ _______ _____ _____    ______ ____
ROOT
ATOM      1  C   UNL     1      18.036  10.932  38.159  0.00  0.00    +0.000 C 
ATOM      2  C   UNL     1      19.205  10.447  37.108  0.00  0.00    +0.000 C 
ATOM      3  C   UNL     1      18.630   9.334  36.297  0.00  0.00    +0.000 C 
ATOM      4  C   UNL     1      17.807   9.986  35.248  0.00  0.00    +0.000 A 
ATOM      5  N   UNL     1      17.693  10.012  33.927  0.00  0.00    +0.000 NA
ATOM      6  C   UNL     1      16.701  10.853  33.563  0.00  0.00    +0.000 A 
ATOM      7  C   UNL     1      16.151  11.262  32.351  0.00  0.00    +0.000 A 
ATOM      8  C   UNL     1      15.105  12.164  32.306  0.00  0.00    +0.000 A 
ATOM      9  C   UNL     1      14.570  12.691  33.462  0.00  0.00    +0.000 A 
ATOM     10  C   UNL     1      15.113  12.290  34.698  0.00  0.00    +0.000 A 
ATOM     11  C   UNL     1      16.150  11.393  34.699  0.00  0.00    +0.000 A 
ATOM     12  C   UNL     1      16.864  10.832  35.774  0.00  0.00    +0.000 A 
ATOM     13  C   UNL     1      16.793  10.969  37.183  0.00  0.00    +0.000 C 
ATOM     14  O   UNL     1      15.660  11.138  37.712  0.00  0.00    +0.000 OA
ENDROOT
BRANCH   1  15
ATOM     15  C   UNL     1      17.751   9.403  38.702  0.00  0.00    +0.000 C 
BRANCH  15  21
ATOM     16  C   UNL     1      15.585   9.352  40.946  0.00  0.00    +0.000 C 
ATOM     17  C   UNL     1      17.048   9.483  41.187  0.00  0.00    +0.000 A 
ATOM     18  N   UNL     1      17.670   9.603  42.378  0.00  0.00    +0.000 NA
ATOM     19  C   UNL     1      18.992   9.690  42.100  0.00  0.00    +0.000 A 
ATOM     20  N   UNL     1      19.158   9.624  40.755  0.00  0.00    +0.000 NA
ATOM     21  C   UNL     1      17.973   9.494  40.160  0.00  0.00    +0.000 A 
ENDBRANCH  15  21
ENDBRANCH   1  15
TORSDOF 2
ENDMDL
MODEL 5
REMARK VINA RESULT:      -6.8     19.005     20.922
REMARK  Name = 
REMARK  2 active torsions:
REMARK  status: ('A' for Active; 'I' for Inactive)
REMARK    1  A    between atoms: C_6  and  C_7
REMARK    2  A    between atoms: C_7  and  C_8
REMARK                            x       y       z     vdW  Elec       q    Type
REMARK                         _______ _______ _______ _____ _____    ______ ____
ROOT
ATOM      1  C   UNL     1      34.337  -0.744  34.807  0.00  0.00    +0.000 C 
ATOM      2  C   UNL     1      34.645  -0.192  33.289  0.00  0.00    +0.000 C 
ATOM      3  C   UNL     1      33.440   0.566  32.844  0.00  0.00    +0.000 C 
ATOM      4  C   UNL     1      33.555   1.907  33.471  0.00  0.00    +0.000 A 
ATOM      5  N   UNL     1      33.570   3.186  33.120  0.00  0.00    +0.000 NA
ATOM      6  C   UNL     1      33.716   3.965  34.214  0.00  0.00    +0.000 A 
ATOM      7  C   UNL     1      33.793   5.337  34.443  0.00  0.00    +0.000 A 
ATOM      8  C   UNL     1      33.946   5.843  35.720  0.00  0.00    +0.000 A 
ATOM      9  C   UNL     1      34.025   5.005  36.813  0.00  0.00    +0.000 A 
ATOM     10  C   UNL     1      33.950   3.615  36.601  0.00  0.00    +0.000 A 
ATOM     11  C   UNL     1      33.799   3.154  35.318  0.00  0.00    +0.000 A 
ATOM     12  C   UNL     1      33.695   1.837  34.834  0.00  0.00    +0.000 A 
ATOM     13  C   UNL     1      33.706   0.558  35.445  0.00  0.00    +0.000 C 
ATOM     14  O   UNL     1      33.180   0.434  36.585  0.00  0.00    +0.000 OA
ENDROOT
BRANCH   1  15
ATOM     15  C   UNL     1      32.894  -1.412  34.377  0.00  0.00    +0.000 C 
BRANCH  15  21
ATOM     16  C   UNL     1      33.555  -3.964  32.709  0.00  0.00    +0.000 C 
ATOM     17  C   UNL     1      33.265  -3.961  34.170  0.00  0.00    +0.000 A 
ATOM     18  N   UNL     1      33.235  -5.026  34.997  0.00  0.00    +0.000 NA
ATOM     19  C   UNL     1      32.933  -4.536  36.223  0.00  0.00    +0.000 A 
ATOM     20  N   UNL     1      32.783  -3.191  36.128  0.00  0.00    +0.000 NA
ATOM     21  C   UNL     1      32.983  -2.802  34.869  0.00  0.00    +0.000 A 
ENDBRANCH  15  21
ENDBRANCH   1  15
TORSDOF 2
ENDMDL
MODEL 6
REMARK VINA RESULT:      -6.7     18.924     21.142
REMARK  Name = 
REMARK  2 active torsions:
REMARK  status: ('A' for Active; 'I' for Inactive)
REMARK    1  A    between atoms: C_6  and  C_7
REMARK    2  A    between atoms: C_7  and  C_8
REMARK                            x       y       z     vdW  Elec       q    Type
REMARK                         _______ _______ _______ _____ _____    ______ ____
ROOT
ATOM      1  C   UNL     1      32.622  -1.198  34.585  0.00  0.00    +0.000 C 
ATOM      2  C   UNL     1      32.694  -0.911  36.203  0.00  0.00    +0.000 C 
ATOM      3  C   UNL     1      34.050  -0.358  36.490  0.00  0.00    +0.000 C 
ATOM      4  C   UNL     1      33.981   1.081  36.129  0.00  0.00    +0.000 A 
ATOM      5  N   UNL     1      34.197   2.269  36.677  0.00  0.00    +0.000 NA
ATOM      6  C   UNL     1      33.935   3.246  35.783  0.00  0.00    +0.000 A 
ATOM      7  C   UNL     1      33.986   4.638  35.802  0.00  0.00    +0.000 A 
ATOM      8  C   UNL     1      33.647   5.383  34.688  0.00  0.00    +0.000 A 
ATOM      9  C   UNL     1      33.246   4.772  33.518  0.00  0.00    +0.000 A 
ATOM     10  C   UNL     1      33.187   3.366  33.480  0.00  0.00    +0.000 A 
ATOM     11  C   UNL     1      33.532   2.664  34.607  0.00  0.00    +0.000 A 
ATOM     12  C   UNL     1      33.565   1.276  34.837  0.00  0.00    +0.000 A 
ATOM     13  C   UNL     1      33.271   0.138  34.044  0.00  0.00    +0.000 C 
ATOM     14  O   UNL     1      33.539   0.181  32.812  0.00  0.00    +0.000 OA
ENDROOT
BRANCH   1  15
ATOM     15  C   UNL     1      34.027  -2.059  34.575  0.00  0.00    +0.000 C 
BRANCH  15  21
ATOM     16  C   UNL     1      33.219  -4.583  36.220  0.00  0.00    +0.000 C 
ATOM     17  C   UNL     1      33.273  -4.526  34.733  0.00  0.00    +0.000 A 
ATOM     18  N   UNL     1      32.996  -5.523  33.869  0.00  0.00    +0.000 NA
ATOM     19  C   UNL     1      33.180  -5.004  32.631  0.00  0.00    +0.000 A 
ATOM     20  N   UNL     1      33.565  -3.709  32.757  0.00  0.00    +0.000 NA
ATOM     21  C   UNL     1      33.631  -3.381  34.046  0.00  0.00    +0.000 A 
ENDBRANCH  15  21
ENDBRANCH   1  15
TORSDOF 2
ENDMDL
MODEL 7
REMARK VINA RESULT:      -6.6     19.731     21.731
REMARK  Name = 
REMARK  2 active torsions:
REMARK  status: ('A' for Active; 'I' for Inactive)
REMARK    1  A    between atoms: C_6  and  C_7
REMARK    2  A    between atoms: C_7  and  C_8
REMARK                            x       y       z     vdW  Elec       q    Type
REMARK                         _______ _______ _______ _____ _____    ______ ____
ROOT
ATOM      1  C   UNL     1      29.957  22.673  24.947  0.00  0.00    +0.000 C 
ATOM      2  C   UNL     1      31.321  23.417  24.407  0.00  0.00    +0.000 C 
ATOM      3  C   UNL     1      31.549  24.604  25.283  0.00  0.00    +0.000 C 
ATOM      4  C   UNL     1      32.193  24.078  26.513  0.00  0.00    +0.000 A 
ATOM      5  N   UNL     1      33.287  24.268  27.237  0.00  0.00    +0.000 NA
ATOM      6  C   UNL     1      33.295  23.427  28.294  0.00  0.00    +0.000 A 
ATOM      7  C   UNL     1      34.162  23.188  29.358  0.00  0.00    +0.000 A 
ATOM      8  C   UNL     1      33.881  22.229  30.312  0.00  0.00    +0.000 A 
ATOM      9  C   UNL     1      32.729  21.474  30.243  0.00  0.00    +0.000 A 
ATOM     10  C   UNL     1      31.839  21.700  29.175  0.00  0.00    +0.000 A 
ATOM     11  C   UNL     1      32.156  22.662  28.250  0.00  0.00    +0.000 A 
ATOM     12  C   UNL     1      31.455  23.085  27.106  0.00  0.00    +0.000 A 
ATOM     13  C   UNL     1      30.228  22.706  26.504  0.00  0.00    +0.000 C 
ATOM     14  O   UNL     1      29.274  22.364  27.254  0.00  0.00    +0.000 OA
ENDROOT
BRANCH   1  15
ATOM     15  C   UNL     1      29.071  24.061  24.921  0.00  0.00    +0.000 C 
BRANCH  15  21
ATOM     16  C   UNL     1      28.770  24.113  21.817  0.00  0.00    +0.000 C 
ATOM     17  C   UNL     1      27.691  23.719  22.764  0.00  0.00    +0.000 A 
ATOM     18  N   UNL     1      26.435  23.334  22.455  0.00  0.00    +0.000 NA
ATOM     19  C   UNL     1      25.824  23.076  23.635  0.00  0.00    +0.000 A 
ATOM     20  N   UNL     1      26.707  23.306  24.640  0.00  0.00    +0.000 NA
ATOM     21  C   UNL     1      27.873  23.706  24.134  0.00  0.00    +0.000 A 
ENDBRANCH  15  21
ENDBRANCH   1  15
TORSDOF 2
ENDMDL
MODEL 8
REMARK VINA RESULT:      -6.6     18.712     19.993
REMARK  Name = 
REMARK  2 active torsions:
REMARK  status: ('A' for Active; 'I' for Inactive)
REMARK    1  A    between atoms: C_6  and  C_7
REMARK    2  A    between atoms: C_7  and  C_8
REMARK                            x       y       z     vdW  Elec       q    Type
REMARK                         _______ _______ _______ _____ _____    ______ ____
ROOT
ATOM      1  C   UNL     1      27.911  24.113  27.305  0.00  0.00    +0.000 C 
ATOM      2  C   UNL     1      28.207  22.663  26.586  0.00  0.00    +0.000 C 
ATOM      3  C   UNL     1      27.205  22.503  25.493  0.00  0.00    +0.000 C 
ATOM      4  C   UNL     1      27.726  23.297  24.351  0.00  0.00    +0.000 A 
ATOM      5  N   UNL     1      28.040  23.138  23.073  0.00  0.00    +0.000 NA
ATOM      6  C   UNL     1      28.487  24.303  22.557  0.00  0.00    +0.000 A 
ATOM      7  C   UNL     1      28.942  24.718  21.307  0.00  0.00    +0.000 A 
ATOM      8  C   UNL     1      29.341  26.022  21.086  0.00  0.00    +0.000 A 
ATOM      9  C   UNL     1      29.303  26.959  22.097  0.00  0.00    +0.000 A 
ATOM     10  C   UNL     1      28.847  26.559  23.368  0.00  0.00    +0.000 A 
ATOM     11  C   UNL     1      28.460  25.256  23.545  0.00  0.00    +0.000 A 
ATOM     12  C   UNL     1      27.970  24.603  24.692  0.00  0.00    +0.000 A 
ATOM     13  C   UNL     1      27.705  25.014  26.023  0.00  0.00    +0.000 C 
ATOM     14  O   UNL     1      27.276  26.184  26.214  0.00  0.00    +0.000 OA
ENDROOT
BRANCH   1  15
ATOM     15  C   UNL     1      26.310  23.791  27.518  0.00  0.00    +0.000 C 
BRANCH  15  21
ATOM     16  C   UNL     1      26.641  22.092  30.113  0.00  0.00    +0.000 C 
ATOM     17  C   UNL     1      26.166  23.503  30.082  0.00  0.00    +0.000 A 
ATOM     18  N   UNL     1      25.804  24.264  31.135  0.00  0.00    +0.000 NA
ATOM     19  C   UNL     1      25.450  25.466  30.620  0.00  0.00    +0.000 A 
ATOM     20  N   UNL     1      25.598  25.421  29.272  0.00  0.00    +0.000 NA
ATOM     21  C   UNL     1      26.041  24.219  28.906  0.00  0.00    +0.000 A 
ENDBRANCH  15  21
ENDBRANCH   1  15
TORSDOF 2
ENDMDL
MODEL 9
REMARK VINA RESULT:      -6.5     22.154     23.521
REMARK  Name = 
REMARK  2 active torsions:
REMARK  status: ('A' for Active; 'I' for Inactive)
REMARK    1  A    between atoms: C_6  and  C_7
REMARK    2  A    between atoms: C_7  and  C_8
REMARK                            x       y       z     vdW  Elec       q    Type
REMARK                         _______ _______ _______ _____ _____    ______ ____
ROOT
ATOM      1  C   UNL     1      23.182  -7.510  23.190  0.00  0.00    +0.000 C 
ATOM      2  C   UNL     1      22.153  -8.703  22.719  0.00  0.00    +0.000 C 
ATOM      3  C   UNL     1      21.826  -9.506  23.933  0.00  0.00    +0.000 C 
ATOM      4  C   UNL     1      20.778  -8.739  24.652  0.00  0.00    +0.000 A 
ATOM      5  N   UNL     1      19.550  -8.907  25.123  0.00  0.00    +0.000 NA
ATOM      6  C   UNL     1      19.115  -7.767  25.701  0.00  0.00    +0.000 A 
ATOM      7  C   UNL     1      17.944  -7.372  26.343  0.00  0.00    +0.000 A 
ATOM      8  C   UNL     1      17.797  -6.093  26.847  0.00  0.00    +0.000 A 
ATOM      9  C   UNL     1      18.809  -5.163  26.731  0.00  0.00    +0.000 A 
ATOM     10  C   UNL     1      20.001  -5.543  26.085  0.00  0.00    +0.000 A 
ATOM     11  C   UNL     1      20.106  -6.821  25.599  0.00  0.00    +0.000 A 
ATOM     12  C   UNL     1      21.168  -7.452  24.926  0.00  0.00    +0.000 A 
ATOM     13  C   UNL     1      22.459  -7.037  24.514  0.00  0.00    +0.000 C 
ATOM     14  O   UNL     1      23.090  -6.227  25.246  0.00  0.00    +0.000 OA
ENDROOT
BRANCH   1  15
ATOM     15  C   UNL     1      24.205  -8.556  23.946  0.00  0.00    +0.000 C 
BRANCH  15  21
ATOM     16  C   UNL     1      25.452 -10.724  22.080  0.00  0.00    +0.000 C 
ATOM     17  C   UNL     1      26.051  -9.386  22.339  0.00  0.00    +0.000 A 
ATOM     18  N   UNL     1      27.201  -8.896  21.832  0.00  0.00    +0.000 NA
ATOM     19  C   UNL     1      27.333  -7.650  22.345  0.00  0.00    +0.000 A 
ATOM     20  N   UNL     1      26.272  -7.399  23.152  0.00  0.00    +0.000 NA
ATOM     21  C   UNL     1      25.458  -8.454  23.170  0.00  0.00    +0.000 A 
ENDBRANCH  15  21
ENDBRANCH   1  15
TORSDOF 2
ENDMDL
MODEL 10
REMARK VINA RESULT:      -6.4      2.575      4.346
REMARK  Name = 
REMARK  2 active torsions:
REMARK  status: ('A' for Active; 'I' for Inactive)
REMARK    1  A    between atoms: C_6  and  C_7
REMARK    2  A    between atoms: C_7  and  C_8
REMARK                            x       y       z     vdW  Elec       q    Type
REMARK                         _______ _______ _______ _____ _____    ______ ____
ROOT
ATOM      1  C   UNL     1      18.725  10.090  39.277  0.00  0.00    +0.000 C 
ATOM      2  C   UNL     1      19.553  10.437  37.900  0.00  0.00    +0.000 C 
ATOM      3  C   UNL     1      18.937   9.634  36.803  0.00  0.00    +0.000 C 
ATOM      4  C   UNL     1      17.723  10.383  36.390  0.00  0.00    +0.000 A 
ATOM      5  N   UNL     1      17.186  10.907  35.297  0.00  0.00    +0.000 NA
ATOM      6  C   UNL     1      16.007  11.493  35.596  0.00  0.00    +0.000 A 
ATOM      7  C   UNL     1      15.034  12.178  34.870  0.00  0.00    +0.000 A 
ATOM      8  C   UNL     1      13.898  12.672  35.482  0.00  0.00    +0.000 A 
ATOM      9  C   UNL     1      13.687  12.503  36.834  0.00  0.00    +0.000 A 
ATOM     10  C   UNL     1      14.659  11.814  37.585  0.00  0.00    +0.000 A 
ATOM     11  C   UNL     1      15.772  11.340  36.940  0.00  0.00    +0.000 A 
ATOM     12  C   UNL     1      16.877  10.627  37.441  0.00  0.00    +0.000 A 
ATOM     13  C   UNL     1      17.244  10.154  38.727  0.00  0.00    +0.000 C 
ATOM     14  O   UNL     1      16.332   9.755  39.501  0.00  0.00    +0.000 OA
ENDROOT
BRANCH   1  15
ATOM     15  C   UNL     1      18.885   8.462  39.081  0.00  0.00    +0.000 C 
BRANCH  15  21
ATOM     16  C   UNL     1      17.323   6.585  41.021  0.00  0.00    +0.000 C 
ATOM     17  C   UNL     1      18.667   7.160  41.302  0.00  0.00    +0.000 A 
ATOM     18  N   UNL     1      19.416   6.979  42.409  0.00  0.00    +0.000 NA
ATOM     19  C   UNL     1      20.550   7.691  42.211  0.00  0.00    +0.000 A 
ATOM     20  N   UNL     1      20.478   8.293  40.997  0.00  0.00    +0.000 NA
ATOM     21  C   UNL     1      19.324   7.984  40.407  0.00  0.00    +0.000 A 
ENDBRANCH  15  21
ENDBRANCH   1  15
TORSDOF 2
ENDMDL
