MODEL 1
REMARK VINA RESULT:      -6.8      0.000      0.000
REMARK  Name = 
REMARK  4 active torsions:
REMARK  status: ('A' for Active; 'I' for Inactive)
REMARK    1  A    between atoms: C_2  and  N_3
REMARK    2  A    between atoms: C_2  and  C_15
REMARK    3  A    between atoms: C_4  and  C_6
REMARK    4  A    between atoms: C_11  and  N_12
REMARK                            x       y       z     vdW  Elec       q    Type
REMARK                         _______ _______ _______ _____ _____    ______ ____
ROOT
ATOM      1  N   UNL     1      16.372  11.842  35.542  0.00  0.00    +0.000 NA
ATOM      2  C   UNL     1      16.613  11.581  36.891  0.00  0.00    +0.000 C 
ATOM      3  O   UNL     1      15.729  11.130  37.635  0.00  0.00    +0.000 OA
ENDROOT
BRANCH   2   4
ATOM      4  C   UNL     1      17.950  11.862  37.422  0.00  0.00    +0.000 A 
ATOM      5  C   UNL     1      18.404  13.102  37.712  0.00  0.00    +0.000 A 
ATOM      6  C   UNL     1      19.680  13.380  38.106  0.00  0.00    +0.000 A 
ATOM      7  C   UNL     1      20.566  12.316  38.217  0.00  0.00    +0.000 A 
ATOM      8  C   UNL     1      20.152  11.053  37.939  0.00  0.00    +0.000 A 
ATOM      9  C   UNL     1      18.843  10.814  37.539  0.00  0.00    +0.000 A 
BRANCH   9  10
ATOM     10  N   UNL     1      18.488   9.476  37.312  0.00  0.00    +0.000 N 
ATOM     11  O   UNL     1      18.350   8.695  38.249  0.00  0.00    +0.000 OA
ATOM     12  O   UNL     1      18.275   9.005  36.053  0.00  0.00    +0.000 OA
ENDBRANCH   9  10
ENDBRANCH   2   4
BRANCH   1  14
ATOM     13  C   UNL     1      14.453  13.109  35.016  0.00  0.00    +0.000 C 
ATOM     14  C   UNL     1      15.081  11.631  34.806  0.00  0.00    +0.000 C 
BRANCH  14  15
ATOM     15  C   UNL     1      15.749  11.943  33.295  0.00  0.00    +0.000 C 
ATOM     16  C   UNL     1      14.476  12.709  32.681  0.00  0.00    +0.000 C 
ATOM     17  C   UNL     1      14.471  12.098  31.201  0.00  0.00    +0.000 C 
ATOM     18  C   UNL     1      16.031  11.849  30.955  0.00  0.00    +0.000 C 
ATOM     19  C   UNL     1      16.347  10.520  31.408  0.00  0.00    +0.000 C 
ATOM     20  C   UNL     1      15.440  10.407  32.740  0.00  0.00    +0.000 C 
ATOM     21  C   UNL     1      14.127  10.669  31.888  0.00  0.00    +0.000 C 
ENDBRANCH  14  15
ENDBRANCH   1  14
TORSDOF 4
ENDMDL
MODEL 2
REMARK VINA RESULT:      -6.4      3.475      5.308
REMARK  Name = 
REMARK  4 active torsions:
REMARK  status: ('A' for Active; 'I' for Inactive)
REMARK    1  A    between atoms: C_2  and  N_3
REMARK    2  A    between atoms: C_2  and  C_15
REMARK    3  A    between atoms: C_4  and  C_6
REMARK    4  A    between atoms: C_11  and  N_12
REMARK                            x       y       z     vdW  Elec       q    Type
REMARK                         _______ _______ _______ _____ _____    ______ ____
ROOT
ATOM      1  N   UNL     1      17.991   9.279  37.944  0.00  0.00    +0.000 NA
ATOM      2  C   UNL     1      18.429   9.257  39.268  0.00  0.00    +0.000 C 
ATOM      3  O   UNL     1      19.056  10.207  39.762  0.00  0.00    +0.000 OA
ENDROOT
BRANCH   2   4
ATOM      4  C   UNL     1      18.135   8.070  40.075  0.00  0.00    +0.000 A 
ATOM      5  C   UNL     1      18.783   6.890  39.950  0.00  0.00    +0.000 A 
ATOM      6  C   UNL     1      18.445   5.752  40.623  0.00  0.00    +0.000 A 
ATOM      7  C   UNL     1      17.366   5.816  41.494  0.00  0.00    +0.000 A 
ATOM      8  C   UNL     1      16.688   6.982  41.654  0.00  0.00    +0.000 A 
ATOM      9  C   UNL     1      17.064   8.118  40.948  0.00  0.00    +0.000 A 
BRANCH   9  10
ATOM     10  N   UNL     1      16.336   9.289  41.204  0.00  0.00    +0.000 N 
ATOM     11  O   UNL     1      16.588   9.983  42.183  0.00  0.00    +0.000 OA
ATOM     12  O   UNL     1      15.339   9.698  40.371  0.00  0.00    +0.000 OA
ENDBRANCH   9  10
ENDBRANCH   2   4
BRANCH   1  14
ATOM     13  C   UNL     1      18.621   9.484  35.681  0.00  0.00    +0.000 C 
ATOM     14  C   UNL     1      18.190  10.388  36.953  0.00  0.00    +0.000 C 
BRANCH  14  15
ATOM     15  C   UNL     1      16.561  10.484  36.548  0.00  0.00    +0.000 C 
ATOM     16  C   UNL     1      16.756  11.287  35.169  0.00  0.00    +0.000 C 
ATOM     17  C   UNL     1      15.538  12.320  35.274  0.00  0.00    +0.000 C 
ATOM     18  C   UNL     1      14.464  11.465  36.091  0.00  0.00    +0.000 C 
ATOM     19  C   UNL     1      14.675  11.708  37.494  0.00  0.00    +0.000 C 
ATOM     20  C   UNL     1      16.288  11.764  37.575  0.00  0.00    +0.000 C 
ATOM     21  C   UNL     1      16.314  12.969  36.543  0.00  0.00    +0.000 C 
ENDBRANCH  14  15
ENDBRANCH   1  14
TORSDOF 4
ENDMDL
MODEL 3
REMARK VINA RESULT:      -6.3     20.055     22.238
REMARK  Name = 
REMARK  4 active torsions:
REMARK  status: ('A' for Active; 'I' for Inactive)
REMARK    1  A    between atoms: C_2  and  N_3
REMARK    2  A    between atoms: C_2  and  C_15
REMARK    3  A    between atoms: C_4  and  C_6
REMARK    4  A    between atoms: C_11  and  N_12
REMARK                            x       y       z     vdW  Elec       q    Type
REMARK                         _______ _______ _______ _____ _____    ______ ____
ROOT
ATOM      1  N   UNL     1      33.591  -2.992  33.222  0.00  0.00    +0.000 NA
ATOM      2  C   UNL     1      34.137  -2.031  34.073  0.00  0.00    +0.000 C 
ATOM      3  O   UNL     1      34.790  -2.348  35.079  0.00  0.00    +0.000 OA
ENDROOT
BRANCH   2   4
ATOM      4  C   UNL     1      33.914  -0.618  33.755  0.00  0.00    +0.000 A 
ATOM      5  C   UNL     1      34.308  -0.031  32.603  0.00  0.00    +0.000 A 
ATOM      6  C   UNL     1      34.198   1.304  32.345  0.00  0.00    +0.000 A 
ATOM      7  C   UNL     1      33.643   2.107  33.333  0.00  0.00    +0.000 A 
ATOM      8  C   UNL     1      33.231   1.559  34.504  0.00  0.00    +0.000 A 
ATOM      9  C   UNL     1      33.362   0.194  34.727  0.00  0.00    +0.000 A 
BRANCH   9  10
ATOM     10  N   UNL     1      32.873  -0.295  35.948  0.00  0.00    +0.000 N 
ATOM     11  O   UNL     1      31.816  -0.917  35.996  0.00  0.00    +0.000 OA
ATOM     12  O   UNL     1      33.557  -0.107  37.110  0.00  0.00    +0.000 OA
ENDBRANCH   9  10
ENDBRANCH   2   4
BRANCH   1  14
ATOM     13  C   UNL     1      32.241  -4.753  34.023  0.00  0.00    +0.000 C 
ATOM     14  C   UNL     1      33.697  -4.482  33.369  0.00  0.00    +0.000 C 
BRANCH  14  15
ATOM     15  C   UNL     1      33.230  -4.794  31.784  0.00  0.00    +0.000 C 
ATOM     16  C   UNL     1      32.290  -6.057  32.109  0.00  0.00    +0.000 C 
ATOM     17  C   UNL     1      32.687  -7.020  30.893  0.00  0.00    +0.000 C 
ATOM     18  C   UNL     1      33.020  -5.961  29.743  0.00  0.00    +0.000 C 
ATOM     19  C   UNL     1      34.420  -5.637  29.828  0.00  0.00    +0.000 C 
ATOM     20  C   UNL     1      34.646  -5.590  31.427  0.00  0.00    +0.000 C 
ATOM     21  C   UNL     1      34.167  -7.098  31.555  0.00  0.00    +0.000 C 
ENDBRANCH  14  15
ENDBRANCH   1  14
TORSDOF 4
ENDMDL
MODEL 4
REMARK VINA RESULT:      -6.3     28.097     30.558
REMARK  Name = 
REMARK  4 active torsions:
REMARK  status: ('A' for Active; 'I' for Inactive)
REMARK    1  A    between atoms: C_2  and  N_3
REMARK    2  A    between atoms: C_2  and  C_15
REMARK    3  A    between atoms: C_4  and  C_6
REMARK    4  A    between atoms: C_11  and  N_12
REMARK                            x       y       z     vdW  Elec       q    Type
REMARK                         _______ _______ _______ _____ _____    ______ ____
ROOT
ATOM      1  N   UNL     1      30.446  21.903   9.599  0.00  0.00    +0.000 NA
ATOM      2  C   UNL     1      29.572  21.215  10.439  0.00  0.00    +0.000 C 
ATOM      3  O   UNL     1      29.502  19.976  10.432  0.00  0.00    +0.000 OA
ENDROOT
BRANCH   2   4
ATOM      4  C   UNL     1      28.719  21.994  11.340  0.00  0.00    +0.000 A 
ATOM      5  C   UNL     1      27.436  22.326  11.070  0.00  0.00    +0.000 A 
ATOM      6  C   UNL     1      26.671  23.138  11.854  0.00  0.00    +0.000 A 
ATOM      7  C   UNL     1      27.251  23.654  13.006  0.00  0.00    +0.000 A 
ATOM      8  C   UNL     1      28.536  23.345  13.318  0.00  0.00    +0.000 A 
ATOM      9  C   UNL     1      29.281  22.515  12.490  0.00  0.00    +0.000 A 
BRANCH   9  10
ATOM     10  N   UNL     1      30.586  22.214  12.909  0.00  0.00    +0.000 N 
ATOM     11  O   UNL     1      31.544  22.854  12.486  0.00  0.00    +0.000 OA
ATOM     12  O   UNL     1      30.830  21.215  13.802  0.00  0.00    +0.000 OA
ENDBRANCH   9  10
ENDBRANCH   2   4
BRANCH   1  14
ATOM     13  C   UNL     1      31.433  22.527   7.550  0.00  0.00    +0.000 C 
ATOM     14  C   UNL     1      31.394  21.300   8.605  0.00  0.00    +0.000 C 
BRANCH  14  15
ATOM     15  C   UNL     1      32.771  21.763   9.453  0.00  0.00    +0.000 C 
ATOM     16  C   UNL     1      33.789  21.697   8.210  0.00  0.00    +0.000 C 
ATOM     17  C   UNL     1      35.057  21.031   8.925  0.00  0.00    +0.000 C 
ATOM     18  C   UNL     1      34.920  21.600  10.412  0.00  0.00    +0.000 C 
ATOM     19  C   UNL     1      34.118  20.676  11.171  0.00  0.00    +0.000 C 
ATOM     20  C   UNL     1      33.006  20.242  10.082  0.00  0.00    +0.000 C 
ATOM     21  C   UNL     1      34.141  19.704   9.113  0.00  0.00    +0.000 C 
ENDBRANCH  14  15
ENDBRANCH   1  14
TORSDOF 4
ENDMDL
MODEL 5
REMARK VINA RESULT:      -6.2     18.213     20.851
REMARK  Name = 
REMARK  4 active torsions:
REMARK  status: ('A' for Active; 'I' for Inactive)
REMARK    1  A    between atoms: C_2  and  N_3
REMARK    2  A    between atoms: C_2  and  C_15
REMARK    3  A    between atoms: C_4  and  C_6
REMARK    4  A    between atoms: C_11  and  N_12
REMARK                            x       y       z     vdW  Elec       q    Type
REMARK                         _______ _______ _______ _____ _____    ______ ____
ROOT
ATOM      1  N   UNL     1      24.260   4.538  17.252  0.00  0.00    +0.000 NA
ATOM      2  C   UNL     1      23.665   3.819  18.289  0.00  0.00    +0.000 C 
ATOM      3  O   UNL     1      24.293   2.965  18.933  0.00  0.00    +0.000 OA
ENDROOT
BRANCH   2   4
ATOM      4  C   UNL     1      22.260   4.091  18.602  0.00  0.00    +0.000 A 
ATOM      5  C   UNL     1      21.842   5.117  19.377  0.00  0.00    +0.000 A 
ATOM      6  C   UNL     1      20.547   5.315  19.758  0.00  0.00    +0.000 A 
ATOM      7  C   UNL     1      19.600   4.401  19.316  0.00  0.00    +0.000 A 
ATOM      8  C   UNL     1      19.974   3.357  18.533  0.00  0.00    +0.000 A 
ATOM      9  C   UNL     1      21.305   3.191  18.169  0.00  0.00    +0.000 A 
BRANCH   9  10
ATOM     10  N   UNL     1      21.597   2.110  17.324  0.00  0.00    +0.000 N 
ATOM     11  O   UNL     1      21.639   0.965  17.763  0.00  0.00    +0.000 OA
ATOM     12  O   UNL     1      21.832   2.294  15.996  0.00  0.00    +0.000 OA
ENDBRANCH   9  10
ENDBRANCH   2   4
BRANCH   1  14
ATOM     13  C   UNL     1      25.512   5.190  15.363  0.00  0.00    +0.000 C 
ATOM     14  C   UNL     1      25.676   4.410  16.771  0.00  0.00    +0.000 C 
BRANCH  14  15
ATOM     15  C   UNL     1      26.222   5.742  17.640  0.00  0.00    +0.000 C 
ATOM     16  C   UNL     1      26.907   6.506  16.403  0.00  0.00    +0.000 C 
ATOM     17  C   UNL     1      28.245   7.032  17.108  0.00  0.00    +0.000 C 
ATOM     18  C   UNL     1      27.746   7.260  18.609  0.00  0.00    +0.000 C 
ATOM     19  C   UNL     1      27.949   6.035  19.337  0.00  0.00    +0.000 C 
ATOM     20  C   UNL     1      27.547   4.929  18.231  0.00  0.00    +0.000 C 
ATOM     21  C   UNL     1      28.674   5.473  17.254  0.00  0.00    +0.000 C 
ENDBRANCH  14  15
ENDBRANCH   1  14
TORSDOF 4
ENDMDL
MODEL 6
REMARK VINA RESULT:      -6.0     21.360     23.847
REMARK  Name = 
REMARK  4 active torsions:
REMARK  status: ('A' for Active; 'I' for Inactive)
REMARK    1  A    between atoms: C_2  and  N_3
REMARK    2  A    between atoms: C_2  and  C_15
REMARK    3  A    between atoms: C_4  and  C_6
REMARK    4  A    between atoms: C_11  and  N_12
REMARK                            x       y       z     vdW  Elec       q    Type
REMARK                         _______ _______ _______ _____ _____    ______ ____
ROOT
ATOM      1  N   UNL     1      33.558  -4.259  33.062  0.00  0.00    +0.000 NA
ATOM      2  C   UNL     1      33.017  -5.396  32.462  0.00  0.00    +0.000 C 
ATOM      3  O   UNL     1      32.176  -6.100  33.042  0.00  0.00    +0.000 OA
ENDROOT
BRANCH   2   4
ATOM      4  C   UNL     1      33.474  -5.752  31.116  0.00  0.00    +0.000 A 
ATOM      5  C   UNL     1      32.858  -5.358  29.979  0.00  0.00    +0.000 A 
ATOM      6  C   UNL     1      33.214  -5.771  28.729  0.00  0.00    +0.000 A 
ATOM      7  C   UNL     1      34.282  -6.653  28.623  0.00  0.00    +0.000 A 
ATOM      8  C   UNL     1      34.933  -7.072  29.738  0.00  0.00    +0.000 A 
ATOM      9  C   UNL     1      34.536  -6.628  30.993  0.00  0.00    +0.000 A 
BRANCH   9  10
ATOM     10  N   UNL     1      35.288  -7.078  32.089  0.00  0.00    +0.000 N 
ATOM     11  O   UNL     1      36.285  -6.466  32.459  0.00  0.00    +0.000 OA
ATOM     12  O   UNL     1      34.931  -8.196  32.779  0.00  0.00    +0.000 OA
ENDBRANCH   9  10
ENDBRANCH   2   4
BRANCH   1  14
ATOM     13  C   UNL     1      34.629  -4.095  35.157  0.00  0.00    +0.000 C 
ATOM     14  C   UNL     1      33.233  -3.725  34.426  0.00  0.00    +0.000 C 
BRANCH  14  15
ATOM     15  C   UNL     1      33.656  -2.144  34.043  0.00  0.00    +0.000 C 
ATOM     16  C   UNL     1      34.730  -1.944  35.224  0.00  0.00    +0.000 C 
ATOM     17  C   UNL     1      34.374  -0.449  35.673  0.00  0.00    +0.000 C 
ATOM     18  C   UNL     1      33.888   0.191  34.291  0.00  0.00    +0.000 C 
ATOM     19  C   UNL     1      32.468  -0.018  34.179  0.00  0.00    +0.000 C 
ATOM     20  C   UNL     1      32.311  -1.507  34.784  0.00  0.00    +0.000 C 
ATOM     21  C   UNL     1      32.940  -1.032  36.162  0.00  0.00    +0.000 C 
ENDBRANCH  14  15
ENDBRANCH   1  14
TORSDOF 4
ENDMDL
MODEL 7
REMARK VINA RESULT:      -5.9     18.538     19.698
REMARK  Name = 
REMARK  4 active torsions:
REMARK  status: ('A' for Active; 'I' for Inactive)
REMARK    1  A    between atoms: C_2  and  N_3
REMARK    2  A    between atoms: C_2  and  C_15
REMARK    3  A    between atoms: C_4  and  C_6
REMARK    4  A    between atoms: C_11  and  N_12
REMARK                            x       y       z     vdW  Elec       q    Type
REMARK                         _______ _______ _______ _____ _____    ______ ____
ROOT
ATOM      1  N   UNL     1      26.338  24.283  26.621  0.00  0.00    +0.000 NA
ATOM      2  C   UNL     1      26.597  23.311  25.654  0.00  0.00    +0.000 C 
ATOM      3  O   UNL     1      25.681  22.682  25.103  0.00  0.00    +0.000 OA
ENDROOT
BRANCH   2   4
ATOM      4  C   UNL     1      27.993  23.039  25.303  0.00  0.00    +0.000 A 
ATOM      5  C   UNL     1      28.885  22.460  26.138  0.00  0.00    +0.000 A 
ATOM      6  C   UNL     1      30.210  22.299  25.856  0.00  0.00    +0.000 A 
ATOM      7  C   UNL     1      30.667  22.760  24.628  0.00  0.00    +0.000 A 
ATOM      8  C   UNL     1      29.806  23.345  23.757  0.00  0.00    +0.000 A 
ATOM      9  C   UNL     1      28.463  23.491  24.085  0.00  0.00    +0.000 A 
BRANCH   9  10
ATOM     10  N   UNL     1      27.636  24.069  23.110  0.00  0.00    +0.000 N 
ATOM     11  O   UNL     1      27.409  25.275  23.115  0.00  0.00    +0.000 OA
ATOM     12  O   UNL     1      27.070  23.316  22.127  0.00  0.00    +0.000 OA
ENDBRANCH   9  10
ENDBRANCH   2   4
BRANCH   1  14
ATOM     13  C   UNL     1      25.380  24.908  28.683  0.00  0.00    +0.000 C 
ATOM     14  C   UNL     1      24.990  24.708  27.125  0.00  0.00    +0.000 C 
BRANCH  14  15
ATOM     15  C   UNL     1      25.199  26.319  26.690  0.00  0.00    +0.000 C 
ATOM     16  C   UNL     1      24.024  26.917  27.610  0.00  0.00    +0.000 C 
ATOM     17  C   UNL     1      23.402  27.994  26.602  0.00  0.00    +0.000 C 
ATOM     18  C   UNL     1      24.692  28.430  25.765  0.00  0.00    +0.000 C 
ATOM     19  C   UNL     1      24.801  27.556  24.626  0.00  0.00    +0.000 C 
ATOM     20  C   UNL     1      24.365  26.137  25.263  0.00  0.00    +0.000 C 
ATOM     21  C   UNL     1      22.955  26.737  25.677  0.00  0.00    +0.000 C 
ENDBRANCH  14  15
ENDBRANCH   1  14
TORSDOF 4
ENDMDL
MODEL 8
REMARK VINA RESULT:      -5.8      1.750      7.038
REMARK  Name = 
REMARK  4 active torsions:
REMARK  status: ('A' for Active; 'I' for Inactive)
REMARK    1  A    between atoms: C_2  and  N_3
REMARK    2  A    between atoms: C_2  and  C_15
REMARK    3  A    between atoms: C_4  and  C_6
REMARK    4  A    between atoms: C_11  and  N_12
REMARK                            x       y       z     vdW  Elec       q    Type
REMARK                         _______ _______ _______ _____ _____    ______ ____
ROOT
ATOM      1  N   UNL     1      19.519  10.573  36.820  0.00  0.00    +0.000 NA
ATOM      2  C   UNL     1      18.237  10.032  36.722  0.00  0.00    +0.000 C 
ATOM      3  O   UNL     1      17.791   9.256  37.582  0.00  0.00    +0.000 OA
ENDROOT
BRANCH   2   4
ATOM      4  C   UNL     1      17.418  10.397  35.564  0.00  0.00    +0.000 A 
ATOM      5  C   UNL     1      17.587   9.885  34.324  0.00  0.00    +0.000 A 
ATOM      6  C   UNL     1      16.899  10.297  33.221  0.00  0.00    +0.000 A 
ATOM      7  C   UNL     1      15.961  11.308  33.389  0.00  0.00    +0.000 A 
ATOM      8  C   UNL     1      15.755  11.849  34.617  0.00  0.00    +0.000 A 
ATOM      9  C   UNL     1      16.480  11.401  35.714  0.00  0.00    +0.000 A 
BRANCH   9  10
ATOM     10  N   UNL     1      16.174  11.986  36.953  0.00  0.00    +0.000 N 
ATOM     11  O   UNL     1      16.724  13.023  37.309  0.00  0.00    +0.000 OA
ATOM     12  O   UNL     1      15.255  11.430  37.789  0.00  0.00    +0.000 OA
ENDBRANCH   9  10
ENDBRANCH   2   4
BRANCH   1  14
ATOM     13  C   UNL     1      21.747   9.820  36.995  0.00  0.00    +0.000 C 
ATOM     14  C   UNL     1      20.515  10.326  37.915  0.00  0.00    +0.000 C 
BRANCH  14  15
ATOM     15  C   UNL     1      21.010  11.930  37.995  0.00  0.00    +0.000 C 
ATOM     16  C   UNL     1      22.592  11.641  37.970  0.00  0.00    +0.000 C 
ATOM     17  C   UNL     1      23.086  12.707  39.057  0.00  0.00    +0.000 C 
ATOM     18  C   UNL     1      22.017  13.880  38.863  0.00  0.00    +0.000 C 
ATOM     19  C   UNL     1      20.910  13.624  39.747  0.00  0.00    +0.000 C 
ATOM     20  C   UNL     1      20.772  12.018  39.638  0.00  0.00    +0.000 C 
ATOM     21  C   UNL     1      22.262  11.839  40.153  0.00  0.00    +0.000 C 
ENDBRANCH  14  15
ENDBRANCH   1  14
TORSDOF 4
ENDMDL
MODEL 9
REMARK VINA RESULT:      -5.8     18.328     20.084
REMARK  Name = 
REMARK  4 active torsions:
REMARK  status: ('A' for Active; 'I' for Inactive)
REMARK    1  A    between atoms: C_2  and  N_3
REMARK    2  A    between atoms: C_2  and  C_15
REMARK    3  A    between atoms: C_4  and  C_6
REMARK    4  A    between atoms: C_11  and  N_12
REMARK                            x       y       z     vdW  Elec       q    Type
REMARK                         _______ _______ _______ _____ _____    ______ ____
ROOT
ATOM      1  N   UNL     1      27.738  23.781  26.023  0.00  0.00    +0.000 NA
ATOM      2  C   UNL     1      26.906  23.927  24.914  0.00  0.00    +0.000 C 
ATOM      3  O   UNL     1      26.075  23.059  24.604  0.00  0.00    +0.000 OA
ENDROOT
BRANCH   2   4
ATOM      4  C   UNL     1      27.039  25.141  24.104  0.00  0.00    +0.000 A 
ATOM      5  C   UNL     1      26.409  26.306  24.376  0.00  0.00    +0.000 A 
ATOM      6  C   UNL     1      26.445  27.406  23.570  0.00  0.00    +0.000 A 
ATOM      7  C   UNL     1      27.180  27.319  22.395  0.00  0.00    +0.000 A 
ATOM      8  C   UNL     1      27.832  26.169  22.083  0.00  0.00    +0.000 A 
ATOM      9  C   UNL     1      27.767  25.071  22.931  0.00  0.00    +0.000 A 
BRANCH   9  10
ATOM     10  N   UNL     1      28.503  23.938  22.553  0.00  0.00    +0.000 N 
ATOM     11  O   UNL     1      27.992  23.058  21.868  0.00  0.00    +0.000 OA
ATOM     12  O   UNL     1      29.805  23.785  22.922  0.00  0.00    +0.000 OA
ENDBRANCH   9  10
ENDBRANCH   2   4
BRANCH   1  14
ATOM     13  C   UNL     1      29.352  22.305  26.905  0.00  0.00    +0.000 C 
ATOM     14  C   UNL     1      27.766  22.621  26.975  0.00  0.00    +0.000 C 
BRANCH  14  15
ATOM     15  C   UNL     1      27.847  23.590  28.347  0.00  0.00    +0.000 C 
ATOM     16  C   UNL     1      28.902  22.685  29.155  0.00  0.00    +0.000 C 
ATOM     17  C   UNL     1      28.271  22.767  30.624  0.00  0.00    +0.000 C 
ATOM     18  C   UNL     1      27.614  24.224  30.608  0.00  0.00    +0.000 C 
ATOM     19  C   UNL     1      26.262  24.097  30.129  0.00  0.00    +0.000 C 
ATOM     20  C   UNL     1      26.430  22.985  28.971  0.00  0.00    +0.000 C 
ATOM     21  C   UNL     1      27.003  21.947  30.027  0.00  0.00    +0.000 C 
ENDBRANCH  14  15
ENDBRANCH   1  14
TORSDOF 4
ENDMDL
MODEL 10
REMARK VINA RESULT:      -5.8     18.226     19.478
REMARK  Name = 
REMARK  4 active torsions:
REMARK  status: ('A' for Active; 'I' for Inactive)
REMARK    1  A    between atoms: C_2  and  N_3
REMARK    2  A    between atoms: C_2  and  C_15
REMARK    3  A    between atoms: C_4  and  C_6
REMARK    4  A    between atoms: C_11  and  N_12
REMARK                            x       y       z     vdW  Elec       q    Type
REMARK                         _______ _______ _______ _____ _____    ______ ____
ROOT
ATOM      1  N   UNL     1      27.177  24.817  25.465  0.00  0.00    +0.000 NA
ATOM      2  C   UNL     1      26.081  24.154  26.016  0.00  0.00    +0.000 C 
ATOM      3  O   UNL     1      25.726  23.035  25.613  0.00  0.00    +0.000 OA
ENDROOT
BRANCH   2   4
ATOM      4  C   UNL     1      25.341  24.816  27.094  0.00  0.00    +0.000 A 
ATOM      5  C   UNL     1      24.282  25.632  26.894  0.00  0.00    +0.000 A 
ATOM      6  C   UNL     1      23.655  26.334  27.881  0.00  0.00    +0.000 A 
ATOM      7  C   UNL     1      24.139  26.196  29.175  0.00  0.00    +0.000 A 
ATOM      8  C   UNL     1      25.199  25.384  29.423  0.00  0.00    +0.000 A 
ATOM      9  C   UNL     1      25.810  24.688  28.387  0.00  0.00    +0.000 A 
BRANCH   9  10
ATOM     10  N   UNL     1      26.872  23.841  28.737  0.00  0.00    +0.000 N 
ATOM     11  O   UNL     1      26.661  22.683  29.087  0.00  0.00    +0.000 OA
ATOM     12  O   UNL     1      28.163  24.269  28.689  0.00  0.00    +0.000 OA
ENDBRANCH   9  10
ENDBRANCH   2   4
BRANCH   1  14
ATOM     13  C   UNL     1      28.328  25.737  23.623  0.00  0.00    +0.000 C 
ATOM     14  C   UNL     1      28.062  24.320  24.359  0.00  0.00    +0.000 C 
BRANCH  14  15
ATOM     15  C   UNL     1      29.458  24.350  25.295  0.00  0.00    +0.000 C 
ATOM     16  C   UNL     1      30.498  24.493  24.078  0.00  0.00    +0.000 C 
ATOM     17  C   UNL     1      31.648  23.497  24.577  0.00  0.00    +0.000 C 
ATOM     18  C   UNL     1      31.538  23.652  26.164  0.00  0.00    +0.000 C 
ATOM     19  C   UNL     1      30.602  22.670  26.643  0.00  0.00    +0.000 C 
ATOM     20  C   UNL     1      29.479  22.698  25.482  0.00  0.00    +0.000 C 
ATOM     21  C   UNL     1      30.566  22.301  24.397  0.00  0.00    +0.000 C 
ENDBRANCH  14  15
ENDBRANCH   1  14
TORSDOF 4
ENDMDL
