MODEL 1
REMARK VINA RESULT:      -6.9      0.000      0.000
REMARK  Name = 
REMARK  2 active torsions:
REMARK  status: ('A' for Active; 'I' for Inactive)
REMARK    1  A    between atoms: C_7  and  C_8
REMARK    2  A    between atoms: N_10  and  C_11
REMARK                            x       y       z     vdW  Elec       q    Type
REMARK                         _______ _______ _______ _____ _____    ______ ____
ROOT
ATOM      1  C   UNL     1      32.335  -2.167  35.491  0.00  0.00    +0.000 C 
ATOM      2  C   UNL     1      32.310  -0.582  35.053  0.00  0.00    +0.000 C 
ATOM      3  C   UNL     1      33.159  -0.102  36.377  0.00  0.00    +0.000 C 
ATOM      4  C   UNL     1      33.762   1.187  35.969  0.00  0.00    +0.000 C 
ATOM      5  O   UNL     1      34.251   1.937  36.825  0.00  0.00    +0.000 OA
ATOM      6  C   UNL     1      33.804   1.623  34.565  0.00  0.00    +0.000 A 
ATOM      7  C   UNL     1      33.858   2.826  33.923  0.00  0.00    +0.000 A 
ATOM      8  C   UNL     1      33.861   2.531  32.561  0.00  0.00    +0.000 A 
ATOM      9  N   UNL     1      33.809   1.190  32.369  0.00  0.00    +0.000 NA
ATOM     10  C   UNL     1      33.776   0.645  33.593  0.00  0.00    +0.000 A 
ATOM     11  C   UNL     1      33.704  -0.753  34.140  0.00  0.00    +0.000 C 
ENDROOT
BRANCH   7  12
ATOM     12  C   UNL     1      33.919   4.130  34.550  0.00  0.00    +0.000 C 
ATOM     13  O   UNL     1      32.949   4.953  34.367  0.00  0.00    +0.000 OA
ATOM     14  N   UNL     1      34.981   4.600  35.364  0.00  0.00    +0.000 NA
BRANCH  14  15
ATOM     15  C   UNL     1      34.917   5.935  35.918  0.00  0.00    +0.000 A 
ATOM     16  C   UNL     1      34.106   6.176  37.028  0.00  0.00    +0.000 A 
ATOM     17  C   UNL     1      34.013   7.429  37.571  0.00  0.00    +0.000 A 
ATOM     18  C   UNL     1      34.741   8.489  37.010  0.00  0.00    +0.000 A 
ATOM     19  C   UNL     1      35.543   8.234  35.912  0.00  0.00    +0.000 A 
ATOM     20  C   UNL     1      35.627   6.973  35.375  0.00  0.00    +0.000 A 
ATOM     21  F   UNL     1      36.412   6.681  34.299  0.00  0.00    +0.000 F 
ENDBRANCH  14  15
ENDBRANCH   7  12
TORSDOF 2
ENDMDL
MODEL 2
REMARK VINA RESULT:      -6.6     29.419     31.067
REMARK  Name = 
REMARK  2 active torsions:
REMARK  status: ('A' for Active; 'I' for Inactive)
REMARK    1  A    between atoms: C_7  and  C_8
REMARK    2  A    between atoms: N_10  and  C_11
REMARK                            x       y       z     vdW  Elec       q    Type
REMARK                         _______ _______ _______ _____ _____    ______ ____
ROOT
ATOM      1  C   UNL     1      35.655  21.072   7.020  0.00  0.00    +0.000 C 
ATOM      2  C   UNL     1      34.851  21.627   8.343  0.00  0.00    +0.000 C 
ATOM      3  C   UNL     1      33.393  21.616   7.583  0.00  0.00    +0.000 C 
ATOM      4  C   UNL     1      32.413  21.535   8.689  0.00  0.00    +0.000 C 
ATOM      5  O   UNL     1      31.216  21.769   8.470  0.00  0.00    +0.000 OA
ATOM      6  C   UNL     1      32.806  21.184  10.062  0.00  0.00    +0.000 A 
ATOM      7  C   UNL     1      32.310  21.434  11.309  0.00  0.00    +0.000 A 
ATOM      8  C   UNL     1      33.183  20.811  12.197  0.00  0.00    +0.000 A 
ATOM      9  N   UNL     1      34.186  20.198  11.522  0.00  0.00    +0.000 NA
ATOM     10  C   UNL     1      33.948  20.428  10.224  0.00  0.00    +0.000 A 
ATOM     11  C   UNL     1      34.630  20.074   8.932  0.00  0.00    +0.000 C 
ENDROOT
BRANCH   7  12
ATOM     12  C   UNL     1      31.109  22.180  11.619  0.00  0.00    +0.000 C 
ATOM     13  O   UNL     1      30.931  23.328  11.069  0.00  0.00    +0.000 OA
ATOM     14  N   UNL     1      30.084  21.755  12.503  0.00  0.00    +0.000 NA
BRANCH  14  15
ATOM     15  C   UNL     1      28.939  22.611  12.731  0.00  0.00    +0.000 A 
ATOM     16  C   UNL     1      28.945  23.484  13.819  0.00  0.00    +0.000 A 
ATOM     17  C   UNL     1      27.875  24.299  14.071  0.00  0.00    +0.000 A 
ATOM     18  C   UNL     1      26.754  24.262  13.227  0.00  0.00    +0.000 A 
ATOM     19  C   UNL     1      26.764  23.393  12.151  0.00  0.00    +0.000 A 
ATOM     20  C   UNL     1      27.844  22.579  11.909  0.00  0.00    +0.000 A 
ATOM     21  F   UNL     1      27.894  21.716  10.855  0.00  0.00    +0.000 F 
ENDBRANCH  14  15
ENDBRANCH   7  12
TORSDOF 2
ENDMDL
MODEL 3
REMARK VINA RESULT:      -6.2     21.731     24.880
REMARK  Name = 
REMARK  2 active torsions:
REMARK  status: ('A' for Active; 'I' for Inactive)
REMARK    1  A    between atoms: C_7  and  C_8
REMARK    2  A    between atoms: N_10  and  C_11
REMARK                            x       y       z     vdW  Elec       q    Type
REMARK                         _______ _______ _______ _____ _____    ______ ____
ROOT
ATOM      1  C   UNL     1      28.908  28.568  21.156  0.00  0.00    +0.000 C 
ATOM      2  C   UNL     1      29.030  27.339  22.242  0.00  0.00    +0.000 C 
ATOM      3  C   UNL     1      27.571  27.668  22.925  0.00  0.00    +0.000 C 
ATOM      4  C   UNL     1      27.172  26.387  23.552  0.00  0.00    +0.000 C 
ATOM      5  O   UNL     1      26.242  26.366  24.371  0.00  0.00    +0.000 OA
ATOM      6  C   UNL     1      27.846  25.118  23.242  0.00  0.00    +0.000 A 
ATOM      7  C   UNL     1      28.042  23.936  23.896  0.00  0.00    +0.000 A 
ATOM      8  C   UNL     1      28.787  23.140  23.029  0.00  0.00    +0.000 A 
ATOM      9  N   UNL     1      29.045  23.809  21.879  0.00  0.00    +0.000 NA
ATOM     10  C   UNL     1      28.467  25.010  22.015  0.00  0.00    +0.000 A 
ATOM     11  C   UNL     1      28.354  26.245  21.166  0.00  0.00    +0.000 C 
ENDROOT
BRANCH   7  12
ATOM     12  C   UNL     1      27.549  23.595  25.214  0.00  0.00    +0.000 C 
ATOM     13  O   UNL     1      26.571  22.768  25.317  0.00  0.00    +0.000 OA
ATOM     14  N   UNL     1      28.054  24.108  26.436  0.00  0.00    +0.000 NA
BRANCH  14  15
ATOM     15  C   UNL     1      27.456  23.690  27.686  0.00  0.00    +0.000 A 
ATOM     16  C   UNL     1      26.448  24.467  28.256  0.00  0.00    +0.000 A 
ATOM     17  C   UNL     1      25.868  24.107  29.443  0.00  0.00    +0.000 A 
ATOM     18  C   UNL     1      26.288  22.940  30.099  0.00  0.00    +0.000 A 
ATOM     19  C   UNL     1      27.286  22.177  29.520  0.00  0.00    +0.000 A 
ATOM     20  C   UNL     1      27.861  22.550  28.330  0.00  0.00    +0.000 A 
ATOM     21  F   UNL     1      28.841  21.820  27.724  0.00  0.00    +0.000 F 
ENDBRANCH  14  15
ENDBRANCH   7  12
TORSDOF 2
ENDMDL
MODEL 4
REMARK VINA RESULT:      -6.1     18.527     20.275
REMARK  Name = 
REMARK  2 active torsions:
REMARK  status: ('A' for Active; 'I' for Inactive)
REMARK    1  A    between atoms: C_7  and  C_8
REMARK    2  A    between atoms: N_10  and  C_11
REMARK                            x       y       z     vdW  Elec       q    Type
REMARK                         _______ _______ _______ _____ _____    ______ ____
ROOT
ATOM      1  C   UNL     1      17.407  -9.990  29.838  0.00  0.00    +0.000 C 
ATOM      2  C   UNL     1      18.566  -9.135  29.042  0.00  0.00    +0.000 C 
ATOM      3  C   UNL     1      19.055 -10.433  28.160  0.00  0.00    +0.000 C 
ATOM      4  C   UNL     1      19.701  -9.834  26.970  0.00  0.00    +0.000 C 
ATOM      5  O   UNL     1      20.406 -10.538  26.232  0.00  0.00    +0.000 OA
ATOM      6  C   UNL     1      19.541  -8.415  26.621  0.00  0.00    +0.000 A 
ATOM      7  C   UNL     1      20.277  -7.494  25.933  0.00  0.00    +0.000 A 
ATOM      8  C   UNL     1      19.548  -6.309  25.985  0.00  0.00    +0.000 A 
ATOM      9  N   UNL     1      18.400  -6.491  26.683  0.00  0.00    +0.000 NA
ATOM     10  C   UNL     1      18.403  -7.775  27.065  0.00  0.00    +0.000 A 
ATOM     11  C   UNL     1      17.481  -8.656  27.859  0.00  0.00    +0.000 C 
ENDROOT
BRANCH   7  12
ATOM     12  C   UNL     1      21.545  -7.730  25.276  0.00  0.00    +0.000 C 
ATOM     13  O   UNL     1      22.409  -8.492  25.847  0.00  0.00    +0.000 OA
ATOM     14  N   UNL     1      21.938  -7.179  24.029  0.00  0.00    +0.000 NA
BRANCH  14  15
ATOM     15  C   UNL     1      23.246  -7.490  23.493  0.00  0.00    +0.000 A 
ATOM     16  C   UNL     1      23.373  -8.510  22.550  0.00  0.00    +0.000 A 
ATOM     17  C   UNL     1      24.596  -8.838  22.030  0.00  0.00    +0.000 A 
ATOM     18  C   UNL     1      25.741  -8.142  22.446  0.00  0.00    +0.000 A 
ATOM     19  C   UNL     1      25.599  -7.131  23.379  0.00  0.00    +0.000 A 
ATOM     20  C   UNL     1      24.367  -6.812  23.895  0.00  0.00    +0.000 A 
ATOM     21  F   UNL     1      24.186  -5.818  24.810  0.00  0.00    +0.000 F 
ENDBRANCH  14  15
ENDBRANCH   7  12
TORSDOF 2
ENDMDL
MODEL 5
REMARK VINA RESULT:      -6.0     18.964     20.958
REMARK  Name = 
REMARK  2 active torsions:
REMARK  status: ('A' for Active; 'I' for Inactive)
REMARK    1  A    between atoms: C_7  and  C_8
REMARK    2  A    between atoms: N_10  and  C_11
REMARK                            x       y       z     vdW  Elec       q    Type
REMARK                         _______ _______ _______ _____ _____    ______ ____
ROOT
ATOM      1  C   UNL     1      30.859  21.325  34.575  0.00  0.00    +0.000 C 
ATOM      2  C   UNL     1      30.931  21.178  32.939  0.00  0.00    +0.000 C 
ATOM      3  C   UNL     1      30.093  22.568  32.678  0.00  0.00    +0.000 C 
ATOM      4  C   UNL     1      30.489  22.974  31.310  0.00  0.00    +0.000 C 
ATOM      5  O   UNL     1      29.837  23.843  30.713  0.00  0.00    +0.000 OA
ATOM      6  C   UNL     1      31.640  22.378  30.617  0.00  0.00    +0.000 A 
ATOM      7  C   UNL     1      31.998  22.186  29.314  0.00  0.00    +0.000 A 
ATOM      8  C   UNL     1      33.231  21.539  29.349  0.00  0.00    +0.000 A 
ATOM      9  N   UNL     1      33.622  21.338  30.631  0.00  0.00    +0.000 NA
ATOM     10  C   UNL     1      32.650  21.852  31.396  0.00  0.00    +0.000 A 
ATOM     11  C   UNL     1      32.404  21.974  32.874  0.00  0.00    +0.000 C 
ENDROOT
BRANCH   7  12
ATOM     12  C   UNL     1      31.241  22.596  28.150  0.00  0.00    +0.000 C 
ATOM     13  O   UNL     1      31.189  23.845  27.851  0.00  0.00    +0.000 OA
ATOM     14  N   UNL     1      30.526  21.726  27.288  0.00  0.00    +0.000 NA
BRANCH  14  15
ATOM     15  C   UNL     1      29.799  22.275  26.163  0.00  0.00    +0.000 A 
ATOM     16  C   UNL     1      30.478  22.533  24.972  0.00  0.00    +0.000 A 
ATOM     17  C   UNL     1      29.824  23.063  23.892  0.00  0.00    +0.000 A 
ATOM     18  C   UNL     1      28.454  23.352  23.977  0.00  0.00    +0.000 A 
ATOM     19  C   UNL     1      27.794  23.087  25.164  0.00  0.00    +0.000 A 
ATOM     20  C   UNL     1      28.461  22.557  26.241  0.00  0.00    +0.000 A 
ATOM     21  F   UNL     1      27.844  22.275  27.424  0.00  0.00    +0.000 F 
ENDBRANCH  14  15
ENDBRANCH   7  12
TORSDOF 2
ENDMDL
MODEL 6
REMARK VINA RESULT:      -5.9     19.707     23.043
REMARK  Name = 
REMARK  2 active torsions:
REMARK  status: ('A' for Active; 'I' for Inactive)
REMARK    1  A    between atoms: C_7  and  C_8
REMARK    2  A    between atoms: N_10  and  C_11
REMARK                            x       y       z     vdW  Elec       q    Type
REMARK                         _______ _______ _______ _____ _____    ______ ____
ROOT
ATOM      1  C   UNL     1      23.246  27.633  28.971  0.00  0.00    +0.000 C 
ATOM      2  C   UNL     1      24.630  26.867  28.521  0.00  0.00    +0.000 C 
ATOM      3  C   UNL     1      24.662  25.923  29.867  0.00  0.00    +0.000 C 
ATOM      4  C   UNL     1      25.481  24.756  29.468  0.00  0.00    +0.000 C 
ATOM      5  O   UNL     1      25.914  23.983  30.333  0.00  0.00    +0.000 OA
ATOM      6  C   UNL     1      25.810  24.473  28.063  0.00  0.00    +0.000 A 
ATOM      7  C   UNL     1      26.818  23.821  27.413  0.00  0.00    +0.000 A 
ATOM      8  C   UNL     1      26.529  23.931  26.055  0.00  0.00    +0.000 A 
ATOM      9  N   UNL     1      25.382  24.629  25.872  0.00  0.00    +0.000 NA
ATOM     10  C   UNL     1      24.950  24.953  27.098  0.00  0.00    +0.000 A 
ATOM     11  C   UNL     1      23.779  25.715  27.653  0.00  0.00    +0.000 C 
ENDROOT
BRANCH   7  12
ATOM     12  C   UNL     1      27.938  23.144  28.032  0.00  0.00    +0.000 C 
ATOM     13  O   UNL     1      27.846  21.885  28.276  0.00  0.00    +0.000 OA
ATOM     14  N   UNL     1      29.159  23.758  28.412  0.00  0.00    +0.000 NA
BRANCH  14  15
ATOM     15  C   UNL     1      30.194  22.961  29.035  0.00  0.00    +0.000 A 
ATOM     16  C   UNL     1      30.229  22.852  30.425  0.00  0.00    +0.000 A 
ATOM     17  C   UNL     1      31.200  22.115  31.049  0.00  0.00    +0.000 A 
ATOM     18  C   UNL     1      32.176  21.457  30.285  0.00  0.00    +0.000 A 
ATOM     19  C   UNL     1      32.127  21.572  28.907  0.00  0.00    +0.000 A 
ATOM     20  C   UNL     1      31.148  22.316  28.293  0.00  0.00    +0.000 A 
ATOM     21  F   UNL     1      31.062  22.445  26.939  0.00  0.00    +0.000 F 
ENDBRANCH  14  15
ENDBRANCH   7  12
TORSDOF 2
ENDMDL
MODEL 7
REMARK VINA RESULT:      -5.9     22.474     24.818
REMARK  Name = 
REMARK  2 active torsions:
REMARK  status: ('A' for Active; 'I' for Inactive)
REMARK    1  A    between atoms: C_7  and  C_8
REMARK    2  A    between atoms: N_10  and  C_11
REMARK                            x       y       z     vdW  Elec       q    Type
REMARK                         _______ _______ _______ _____ _____    ______ ____
ROOT
ATOM      1  C   UNL     1      23.359  27.551  31.578  0.00  0.00    +0.000 C 
ATOM      2  C   UNL     1      23.753  26.414  30.456  0.00  0.00    +0.000 C 
ATOM      3  C   UNL     1      24.526  27.496  29.489  0.00  0.00    +0.000 C 
ATOM      4  C   UNL     1      25.454  26.664  28.690  0.00  0.00    +0.000 C 
ATOM      5  O   UNL     1      25.998  27.141  27.684  0.00  0.00    +0.000 OA
ATOM      6  C   UNL     1      25.763  25.271  29.046  0.00  0.00    +0.000 A 
ATOM      7  C   UNL     1      26.169  24.161  28.364  0.00  0.00    +0.000 A 
ATOM      8  C   UNL     1      26.266  23.146  29.312  0.00  0.00    +0.000 A 
ATOM      9  N   UNL     1      25.929  23.613  30.539  0.00  0.00    +0.000 NA
ATOM     10  C   UNL     1      25.626  24.907  30.369  0.00  0.00    +0.000 A 
ATOM     11  C   UNL     1      25.168  26.025  31.263  0.00  0.00    +0.000 C 
ENDROOT
BRANCH   7  12
ATOM     12  C   UNL     1      26.454  24.084  26.946  0.00  0.00    +0.000 C 
ATOM     13  O   UNL     1      25.580  23.556  26.165  0.00  0.00    +0.000 OA
ATOM     14  N   UNL     1      27.643  24.542  26.322  0.00  0.00    +0.000 NA
BRANCH  14  15
ATOM     15  C   UNL     1      27.801  24.390  24.892  0.00  0.00    +0.000 A 
ATOM     16  C   UNL     1      27.284  25.365  24.039  0.00  0.00    +0.000 A 
ATOM     17  C   UNL     1      27.406  25.248  22.681  0.00  0.00    +0.000 A 
ATOM     18  C   UNL     1      28.059  24.134  22.132  0.00  0.00    +0.000 A 
ATOM     19  C   UNL     1      28.569  23.176  22.990  0.00  0.00    +0.000 A 
ATOM     20  C   UNL     1      28.439  23.305  24.352  0.00  0.00    +0.000 A 
ATOM     21  F   UNL     1      28.936  22.387  25.229  0.00  0.00    +0.000 F 
ENDBRANCH  14  15
ENDBRANCH   7  12
TORSDOF 2
ENDMDL
MODEL 8
REMARK VINA RESULT:      -5.8     20.884     23.471
REMARK  Name = 
REMARK  2 active torsions:
REMARK  status: ('A' for Active; 'I' for Inactive)
REMARK    1  A    between atoms: C_7  and  C_8
REMARK    2  A    between atoms: N_10  and  C_11
REMARK                            x       y       z     vdW  Elec       q    Type
REMARK                         _______ _______ _______ _____ _____    ______ ____
ROOT
ATOM      1  C   UNL     1      30.187  22.840  31.609  0.00  0.00    +0.000 C 
ATOM      2  C   UNL     1      29.419  23.535  30.332  0.00  0.00    +0.000 C 
ATOM      3  C   UNL     1      30.253  22.651  29.224  0.00  0.00    +0.000 C 
ATOM      4  C   UNL     1      29.383  22.664  28.026  0.00  0.00    +0.000 C 
ATOM      5  O   UNL     1      29.838  22.307  26.931  0.00  0.00    +0.000 OA
ATOM      6  C   UNL     1      27.978  23.093  28.083  0.00  0.00    +0.000 A 
ATOM      7  C   UNL     1      27.087  23.623  27.195  0.00  0.00    +0.000 A 
ATOM      8  C   UNL     1      25.905  23.812  27.907  0.00  0.00    +0.000 A 
ATOM      9  N   UNL     1      26.061  23.413  29.193  0.00  0.00    +0.000 NA
ATOM     10  C   UNL     1      27.324  22.975  29.291  0.00  0.00    +0.000 A 
ATOM     11  C   UNL     1      28.178  22.412  30.392  0.00  0.00    +0.000 C 
ENDROOT
BRANCH   7  12
ATOM     12  C   UNL     1      27.337  23.905  25.797  0.00  0.00    +0.000 C 
ATOM     13  O   UNL     1      26.767  23.177  24.904  0.00  0.00    +0.000 OA
ATOM     14  N   UNL     1      28.182  24.934  25.306  0.00  0.00    +0.000 NA
BRANCH  14  15
ATOM     15  C   UNL     1      28.351  25.096  23.877  0.00  0.00    +0.000 A 
ATOM     16  C   UNL     1      27.530  25.989  23.189  0.00  0.00    +0.000 A 
ATOM     17  C   UNL     1      27.655  26.159  21.836  0.00  0.00    +0.000 A 
ATOM     18  C   UNL     1      28.621  25.429  21.127  0.00  0.00    +0.000 A 
ATOM     19  C   UNL     1      29.431  24.549  21.824  0.00  0.00    +0.000 A 
ATOM     20  C   UNL     1      29.294  24.386  23.181  0.00  0.00    +0.000 A 
ATOM     21  F   UNL     1      30.078  23.536  23.904  0.00  0.00    +0.000 F 
ENDBRANCH  14  15
ENDBRANCH   7  12
TORSDOF 2
ENDMDL
MODEL 9
REMARK VINA RESULT:      -5.8     19.970     22.488
REMARK  Name = 
REMARK  2 active torsions:
REMARK  status: ('A' for Active; 'I' for Inactive)
REMARK    1  A    between atoms: C_7  and  C_8
REMARK    2  A    between atoms: N_10  and  C_11
REMARK                            x       y       z     vdW  Elec       q    Type
REMARK                         _______ _______ _______ _____ _____    ______ ____
ROOT
ATOM      1  C   UNL     1      24.350  25.735  25.072  0.00  0.00    +0.000 C 
ATOM      2  C   UNL     1      25.930  25.341  25.304  0.00  0.00    +0.000 C 
ATOM      3  C   UNL     1      25.619  24.495  26.678  0.00  0.00    +0.000 C 
ATOM      4  C   UNL     1      26.768  23.569  26.796  0.00  0.00    +0.000 C 
ATOM      5  O   UNL     1      26.971  22.972  27.863  0.00  0.00    +0.000 OA
ATOM      6  C   UNL     1      27.697  23.324  25.683  0.00  0.00    +0.000 A 
ATOM      7  C   UNL     1      29.000  22.934  25.572  0.00  0.00    +0.000 A 
ATOM      8  C   UNL     1      29.275  22.909  24.207  0.00  0.00    +0.000 A 
ATOM      9  N   UNL     1      28.178  23.273  23.498  0.00  0.00    +0.000 NA
ATOM     10  C   UNL     1      27.223  23.523  24.403  0.00  0.00    +0.000 A 
ATOM     11  C   UNL     1      25.789  23.972  24.349  0.00  0.00    +0.000 C 
ENDROOT
BRANCH   7  12
ATOM     12  C   UNL     1      29.890  22.601  26.664  0.00  0.00    +0.000 C 
ATOM     13  O   UNL     1      30.290  21.386  26.791  0.00  0.00    +0.000 OA
ATOM     14  N   UNL     1      30.369  23.513  27.640  0.00  0.00    +0.000 NA
BRANCH  14  15
ATOM     15  C   UNL     1      31.247  23.039  28.688  0.00  0.00    +0.000 A 
ATOM     16  C   UNL     1      32.628  23.090  28.499  0.00  0.00    +0.000 A 
ATOM     17  C   UNL     1      33.487  22.641  29.465  0.00  0.00    +0.000 A 
ATOM     18  C   UNL     1      32.978  22.120  30.664  0.00  0.00    +0.000 A 
ATOM     19  C   UNL     1      31.606  22.078  30.839  0.00  0.00    +0.000 A 
ATOM     20  C   UNL     1      30.754  22.531  29.862  0.00  0.00    +0.000 A 
ATOM     21  F   UNL     1      29.398  22.513  30.000  0.00  0.00    +0.000 F 
ENDBRANCH  14  15
ENDBRANCH   7  12
TORSDOF 2
ENDMDL
MODEL 10
REMARK VINA RESULT:      -5.7     22.067     25.042
REMARK  Name = 
REMARK  2 active torsions:
REMARK  status: ('A' for Active; 'I' for Inactive)
REMARK    1  A    between atoms: C_7  and  C_8
REMARK    2  A    between atoms: N_10  and  C_11
REMARK                            x       y       z     vdW  Elec       q    Type
REMARK                         _______ _______ _______ _____ _____    ______ ____
ROOT
ATOM      1  C   UNL     1      22.534  27.677  30.511  0.00  0.00    +0.000 C 
ATOM      2  C   UNL     1      23.569  27.449  29.253  0.00  0.00    +0.000 C 
ATOM      3  C   UNL     1      24.259  26.121  29.935  0.00  0.00    +0.000 C 
ATOM      4  C   UNL     1      24.833  25.385  28.786  0.00  0.00    +0.000 C 
ATOM      5  O   UNL     1      25.646  24.471  28.984  0.00  0.00    +0.000 OA
ATOM      6  C   UNL     1      24.474  25.699  27.395  0.00  0.00    +0.000 A 
ATOM      7  C   UNL     1      25.079  25.561  26.180  0.00  0.00    +0.000 A 
ATOM      8  C   UNL     1      24.184  26.079  25.247  0.00  0.00    +0.000 A 
ATOM      9  N   UNL     1      23.063  26.523  25.865  0.00  0.00    +0.000 NA
ATOM     10  C   UNL     1      23.246  26.287  27.172  0.00  0.00    +0.000 A 
ATOM     11  C   UNL     1      22.448  26.521  28.423  0.00  0.00    +0.000 C 
ENDROOT
BRANCH   7  12
ATOM     12  C   UNL     1      26.381  24.976  25.934  0.00  0.00    +0.000 C 
ATOM     13  O   UNL     1      27.407  25.747  25.873  0.00  0.00    +0.000 OA
ATOM     14  N   UNL     1      26.635  23.594  25.740  0.00  0.00    +0.000 NA
BRANCH  14  15
ATOM     15  C   UNL     1      27.988  23.146  25.489  0.00  0.00    +0.000 A 
ATOM     16  C   UNL     1      28.759  22.672  26.550  0.00  0.00    +0.000 A 
ATOM     17  C   UNL     1      30.046  22.251  26.350  0.00  0.00    +0.000 A 
ATOM     18  C   UNL     1      30.604  22.295  25.064  0.00  0.00    +0.000 A 
ATOM     19  C   UNL     1      29.826  22.765  24.020  0.00  0.00    +0.000 A 
ATOM     20  C   UNL     1      28.536  23.186  24.234  0.00  0.00    +0.000 A 
ATOM     21  F   UNL     1      27.737  23.648  23.231  0.00  0.00    +0.000 F 
ENDBRANCH  14  15
ENDBRANCH   7  12
TORSDOF 2
ENDMDL
