MODEL 1
REMARK VINA RESULT:      -8.1      0.000      0.000
REMARK  Name = 
REMARK  7 active torsions:
REMARK  status: ('A' for Active; 'I' for Inactive)
REMARK    1  A    between atoms: C_2  and  O_3
REMARK    2  A    between atoms: O_3  and  C_4
REMARK    3  A    between atoms: C_7  and  N_8
REMARK    4  A    between atoms: C_9  and  S_10
REMARK    5  A    between atoms: S_10  and  C_11
REMARK    6  A    between atoms: C_11  and  C_12
REMARK    7  A    between atoms: N_14  and  C_15
REMARK                            x       y       z     vdW  Elec       q    Type
REMARK                         _______ _______ _______ _____ _____    ______ ____
ROOT
ATOM      1  N   UNL     1      37.956  -0.224  15.511  0.00  0.00    +0.000 N 
ATOM      2  C   UNL     1      38.252   1.017  15.063  0.00  0.00    +0.000 A 
ATOM      3  N   UNL     1      39.496   1.037  14.558  0.00  0.00    +0.000 NA
ATOM      4  C   UNL     1      40.031  -0.202  14.673  0.00  0.00    +0.000 A 
ATOM      5  C   UNL     1      41.246  -0.777  14.340  0.00  0.00    +0.000 A 
ATOM      6  C   UNL     1      41.433  -2.110  14.622  0.00  0.00    +0.000 A 
ATOM      7  C   UNL     1      40.463  -2.886  15.218  0.00  0.00    +0.000 A 
ATOM      8  C   UNL     1      39.252  -2.326  15.554  0.00  0.00    +0.000 A 
ATOM      9  C   UNL     1      39.055  -0.969  15.269  0.00  0.00    +0.000 A 
ENDROOT
BRANCH   1  13
ATOM     10  C   UNL     1      34.325  -1.458  17.352  0.00  0.00    +0.000 A 
ATOM     11  C   UNL     1      35.095  -0.459  17.897  0.00  0.00    +0.000 A 
ATOM     12  C   UNL     1      36.271  -0.076  17.286  0.00  0.00    +0.000 A 
ATOM     13  C   UNL     1      36.732  -0.665  16.109  0.00  0.00    +0.000 A 
ATOM     14  C   UNL     1      35.948  -1.662  15.576  0.00  0.00    +0.000 A 
ATOM     15  C   UNL     1      34.765  -2.049  16.190  0.00  0.00    +0.000 A 
BRANCH  10  16
ATOM     16  O   UNL     1      33.124  -1.904  17.906  0.00  0.00    +0.000 OA
BRANCH  16  18
ATOM     17  C   UNL     1      30.757  -2.089  17.675  0.00  0.00    +0.000 C 
ATOM     18  C   UNL     1      32.126  -2.563  17.187  0.00  0.00    +0.000 C 
ENDBRANCH  16  18
ENDBRANCH  10  16
ENDBRANCH   1  13
BRANCH   2  19
ATOM     19  S   UNL     1      37.082   2.389  15.192  0.00  0.00    +0.000 S 
BRANCH  19  20
ATOM     20  C   UNL     1      38.016   3.923  14.923  0.00  0.00    +0.000 C 
BRANCH  20  21
ATOM     21  C   UNL     1      38.251   4.585  16.238  0.00  0.00    +0.000 C 
ATOM     22  O   UNL     1      37.820   4.022  17.303  0.00  0.00    +0.000 OA
ATOM     23  N   UNL     1      38.928   5.808  16.399  0.00  0.00    +0.000 NA
BRANCH  23  24
ATOM     24  C   UNL     1      39.104   6.356  17.722  0.00  0.00    +0.000 A 
ATOM     25  C   UNL     1      40.026   5.802  18.590  0.00  0.00    +0.000 A 
ATOM     26  C   UNL     1      40.252   6.283  19.871  0.00  0.00    +0.000 A 
ATOM     27  C   UNL     1      39.503   7.366  20.261  0.00  0.00    +0.000 A 
ATOM     28  C   UNL     1      38.571   7.956  19.436  0.00  0.00    +0.000 A 
ATOM     29  C   UNL     1      38.382   7.431  18.153  0.00  0.00    +0.000 A 
ATOM     30  C   UNL     1      37.361   8.082  17.261  0.00  0.00    +0.000 C 
ENDBRANCH  23  24
ENDBRANCH  20  21
ENDBRANCH  19  20
ENDBRANCH   2  19
TORSDOF 7
ENDMDL
MODEL 2
REMARK VINA RESULT:      -8.1      2.285      5.255
REMARK  Name = 
REMARK  7 active torsions:
REMARK  status: ('A' for Active; 'I' for Inactive)
REMARK    1  A    between atoms: C_2  and  O_3
REMARK    2  A    between atoms: O_3  and  C_4
REMARK    3  A    between atoms: C_7  and  N_8
REMARK    4  A    between atoms: C_9  and  S_10
REMARK    5  A    between atoms: S_10  and  C_11
REMARK    6  A    between atoms: C_11  and  C_12
REMARK    7  A    between atoms: N_14  and  C_15
REMARK                            x       y       z     vdW  Elec       q    Type
REMARK                         _______ _______ _______ _____ _____    ______ ____
ROOT
ATOM      1  N   UNL     1      37.264   0.117  15.199  0.00  0.00    +0.000 N 
ATOM      2  C   UNL     1      36.992   1.413  15.471  0.00  0.00    +0.000 A 
ATOM      3  N   UNL     1      35.915   1.498  16.269  0.00  0.00    +0.000 NA
ATOM      4  C   UNL     1      35.468   0.247  16.529  0.00  0.00    +0.000 A 
ATOM      5  C   UNL     1      34.423  -0.284  17.267  0.00  0.00    +0.000 A 
ATOM      6  C   UNL     1      34.278  -1.651  17.297  0.00  0.00    +0.000 A 
ATOM      7  C   UNL     1      35.127  -2.503  16.625  0.00  0.00    +0.000 A 
ATOM      8  C   UNL     1      36.168  -1.988  15.886  0.00  0.00    +0.000 A 
ATOM      9  C   UNL     1      36.322  -0.596  15.853  0.00  0.00    +0.000 A 
ENDROOT
BRANCH   1  13
ATOM     10  C   UNL     1      40.490  -1.433  12.901  0.00  0.00    +0.000 A 
ATOM     11  C   UNL     1      40.636  -1.164  14.241  0.00  0.00    +0.000 A 
ATOM     12  C   UNL     1      39.578  -0.659  14.967  0.00  0.00    +0.000 A 
ATOM     13  C   UNL     1      38.331  -0.400  14.397  0.00  0.00    +0.000 A 
ATOM     14  C   UNL     1      38.202  -0.676  13.056  0.00  0.00    +0.000 A 
ATOM     15  C   UNL     1      39.266  -1.183  12.323  0.00  0.00    +0.000 A 
BRANCH  10  16
ATOM     16  O   UNL     1      41.509  -1.944  12.095  0.00  0.00    +0.000 OA
BRANCH  16  18
ATOM     17  C   UNL     1      41.657  -3.826  10.638  0.00  0.00    +0.000 C 
ATOM     18  C   UNL     1      41.873  -3.291  12.053  0.00  0.00    +0.000 C 
ENDBRANCH  16  18
ENDBRANCH  10  16
ENDBRANCH   1  13
BRANCH   2  19
ATOM     19  S   UNL     1      37.980   2.764  14.788  0.00  0.00    +0.000 S 
BRANCH  19  20
ATOM     20  C   UNL     1      37.345   4.311  15.497  0.00  0.00    +0.000 C 
BRANCH  20  21
ATOM     21  C   UNL     1      38.246   4.745  16.602  0.00  0.00    +0.000 C 
ATOM     22  O   UNL     1      38.529   3.916  17.535  0.00  0.00    +0.000 OA
ATOM     23  N   UNL     1      38.822   6.025  16.699  0.00  0.00    +0.000 NA
BRANCH  23  24
ATOM     24  C   UNL     1      39.686   6.335  17.812  0.00  0.00    +0.000 A 
ATOM     25  C   UNL     1      39.156   6.532  19.073  0.00  0.00    +0.000 A 
ATOM     26  C   UNL     1      39.929   6.824  20.187  0.00  0.00    +0.000 A 
ATOM     27  C   UNL     1      41.284   6.915  19.988  0.00  0.00    +0.000 A 
ATOM     28  C   UNL     1      41.865   6.728  18.751  0.00  0.00    +0.000 A 
ATOM     29  C   UNL     1      41.039   6.436  17.660  0.00  0.00    +0.000 A 
ATOM     30  C   UNL     1      41.682   6.235  16.315  0.00  0.00    +0.000 C 
ENDBRANCH  23  24
ENDBRANCH  20  21
ENDBRANCH  19  20
ENDBRANCH   2  19
TORSDOF 7
ENDMDL
MODEL 3
REMARK VINA RESULT:      -8.0      3.301      7.672
REMARK  Name = 
REMARK  7 active torsions:
REMARK  status: ('A' for Active; 'I' for Inactive)
REMARK    1  A    between atoms: C_2  and  O_3
REMARK    2  A    between atoms: O_3  and  C_4
REMARK    3  A    between atoms: C_7  and  N_8
REMARK    4  A    between atoms: C_9  and  S_10
REMARK    5  A    between atoms: S_10  and  C_11
REMARK    6  A    between atoms: C_11  and  C_12
REMARK    7  A    between atoms: N_14  and  C_15
REMARK                            x       y       z     vdW  Elec       q    Type
REMARK                         _______ _______ _______ _____ _____    ______ ____
ROOT
ATOM      1  N   UNL     1      36.234   4.373  13.500  0.00  0.00    +0.000 N 
ATOM      2  C   UNL     1      37.044   4.251  12.424  0.00  0.00    +0.000 A 
ATOM      3  N   UNL     1      36.714   5.165  11.497  0.00  0.00    +0.000 NA
ATOM      4  C   UNL     1      35.677   5.900  11.961  0.00  0.00    +0.000 A 
ATOM      5  C   UNL     1      34.927   6.955  11.467  0.00  0.00    +0.000 A 
ATOM      6  C   UNL     1      33.916   7.457  12.253  0.00  0.00    +0.000 A 
ATOM      7  C   UNL     1      33.626   6.954  13.503  0.00  0.00    +0.000 A 
ATOM      8  C   UNL     1      34.363   5.905  14.004  0.00  0.00    +0.000 A 
ATOM      9  C   UNL     1      35.395   5.389  13.209  0.00  0.00    +0.000 A 
ENDROOT
BRANCH   1  13
ATOM     10  C   UNL     1      36.257   2.003  17.032  0.00  0.00    +0.000 A 
ATOM     11  C   UNL     1      35.428   1.702  15.979  0.00  0.00    +0.000 A 
ATOM     12  C   UNL     1      35.434   2.485  14.844  0.00  0.00    +0.000 A 
ATOM     13  C   UNL     1      36.262   3.599  14.703  0.00  0.00    +0.000 A 
ATOM     14  C   UNL     1      37.087   3.885  15.766  0.00  0.00    +0.000 A 
ATOM     15  C   UNL     1      37.082   3.098  16.910  0.00  0.00    +0.000 A 
BRANCH  10  16
ATOM     16  O   UNL     1      36.313   1.263  18.214  0.00  0.00    +0.000 OA
BRANCH  16  18
ATOM     17  C   UNL     1      36.697  -0.931  19.067  0.00  0.00    +0.000 C 
ATOM     18  C   UNL     1      35.709   0.017  18.388  0.00  0.00    +0.000 C 
ENDBRANCH  16  18
ENDBRANCH  10  16
ENDBRANCH   1  13
BRANCH   2  19
ATOM     19  S   UNL     1      38.336   2.991  12.333  0.00  0.00    +0.000 S 
BRANCH  19  20
ATOM     20  C   UNL     1      37.513   1.384  12.134  0.00  0.00    +0.000 C 
BRANCH  20  21
ATOM     21  C   UNL     1      38.002   0.453  13.190  0.00  0.00    +0.000 C 
ATOM     22  O   UNL     1      38.569   0.937  14.230  0.00  0.00    +0.000 OA
ATOM     23  N   UNL     1      37.884  -0.947  13.129  0.00  0.00    +0.000 NA
BRANCH  23  24
ATOM     24  C   UNL     1      38.390  -1.753  14.214  0.00  0.00    +0.000 A 
ATOM     25  C   UNL     1      39.732  -2.074  14.278  0.00  0.00    +0.000 A 
ATOM     26  C   UNL     1      40.285  -2.837  15.297  0.00  0.00    +0.000 A 
ATOM     27  C   UNL     1      39.425  -3.277  16.271  0.00  0.00    +0.000 A 
ATOM     28  C   UNL     1      38.077  -2.986  16.255  0.00  0.00    +0.000 A 
ATOM     29  C   UNL     1      37.570  -2.213  15.204  0.00  0.00    +0.000 A 
ATOM     30  C   UNL     1      36.099  -1.902  15.195  0.00  0.00    +0.000 C 
ENDBRANCH  23  24
ENDBRANCH  20  21
ENDBRANCH  19  20
ENDBRANCH   2  19
TORSDOF 7
ENDMDL
MODEL 4
REMARK VINA RESULT:      -8.0      2.887      5.007
REMARK  Name = 
REMARK  7 active torsions:
REMARK  status: ('A' for Active; 'I' for Inactive)
REMARK    1  A    between atoms: C_2  and  O_3
REMARK    2  A    between atoms: O_3  and  C_4
REMARK    3  A    between atoms: C_7  and  N_8
REMARK    4  A    between atoms: C_9  and  S_10
REMARK    5  A    between atoms: S_10  and  C_11
REMARK    6  A    between atoms: C_11  and  C_12
REMARK    7  A    between atoms: N_14  and  C_15
REMARK                            x       y       z     vdW  Elec       q    Type
REMARK                         _______ _______ _______ _____ _____    ______ ____
ROOT
ATOM      1  N   UNL     1      37.752  -1.352  16.394  0.00  0.00    +0.000 N 
ATOM      2  C   UNL     1      36.905  -0.318  16.595  0.00  0.00    +0.000 A 
ATOM      3  N   UNL     1      36.545  -0.266  17.889  0.00  0.00    +0.000 NA
ATOM      4  C   UNL     1      37.159  -1.274  18.551  0.00  0.00    +0.000 A 
ATOM      5  C   UNL     1      37.174  -1.716  19.864  0.00  0.00    +0.000 A 
ATOM      6  C   UNL     1      37.942  -2.814  20.171  0.00  0.00    +0.000 A 
ATOM      7  C   UNL     1      38.691  -3.484  19.229  0.00  0.00    +0.000 A 
ATOM      8  C   UNL     1      38.685  -3.056  17.921  0.00  0.00    +0.000 A 
ATOM      9  C   UNL     1      37.904  -1.937  17.601  0.00  0.00    +0.000 A 
ENDROOT
BRANCH   1  13
ATOM     10  C   UNL     1      39.677  -2.473  12.771  0.00  0.00    +0.000 A 
ATOM     11  C   UNL     1      40.286  -1.629  13.668  0.00  0.00    +0.000 A 
ATOM     12  C   UNL     1      39.643  -1.276  14.835  0.00  0.00    +0.000 A 
ATOM     13  C   UNL     1      38.371  -1.745  15.164  0.00  0.00    +0.000 A 
ATOM     14  C   UNL     1      37.777  -2.589  14.256  0.00  0.00    +0.000 A 
ATOM     15  C   UNL     1      38.422  -2.946  13.080  0.00  0.00    +0.000 A 
BRANCH  10  16
ATOM     16  O   UNL     1      40.258  -2.880  11.568  0.00  0.00    +0.000 OA
BRANCH  16  18
ATOM     17  C   UNL     1      40.745  -2.945   9.234  0.00  0.00    +0.000 C 
ATOM     18  C   UNL     1      40.341  -2.080  10.428  0.00  0.00    +0.000 C 
ENDBRANCH  16  18
ENDBRANCH  10  16
ENDBRANCH   1  13
BRANCH   2  19
ATOM     19  S   UNL     1      36.373   0.764  15.249  0.00  0.00    +0.000 S 
BRANCH  19  20
ATOM     20  C   UNL     1      37.778   1.836  14.829  0.00  0.00    +0.000 C 
BRANCH  20  21
ATOM     21  C   UNL     1      37.776   3.017  15.738  0.00  0.00    +0.000 C 
ATOM     22  O   UNL     1      36.758   3.225  16.485  0.00  0.00    +0.000 OA
ATOM     23  N   UNL     1      38.834   3.939  15.840  0.00  0.00    +0.000 NA
BRANCH  23  24
ATOM     24  C   UNL     1      38.727   5.046  16.760  0.00  0.00    +0.000 A 
ATOM     25  C   UNL     1      39.116   4.898  18.078  0.00  0.00    +0.000 A 
ATOM     26  C   UNL     1      39.048   5.922  19.012  0.00  0.00    +0.000 A 
ATOM     27  C   UNL     1      38.565   7.127  18.568  0.00  0.00    +0.000 A 
ATOM     28  C   UNL     1      38.164   7.329  17.265  0.00  0.00    +0.000 A 
ATOM     29  C   UNL     1      38.252   6.263  16.363  0.00  0.00    +0.000 A 
ATOM     30  C   UNL     1      37.811   6.493  14.943  0.00  0.00    +0.000 C 
ENDBRANCH  23  24
ENDBRANCH  20  21
ENDBRANCH  19  20
ENDBRANCH   2  19
TORSDOF 7
ENDMDL
MODEL 5
REMARK VINA RESULT:      -7.9      3.246      8.302
REMARK  Name = 
REMARK  7 active torsions:
REMARK  status: ('A' for Active; 'I' for Inactive)
REMARK    1  A    between atoms: C_2  and  O_3
REMARK    2  A    between atoms: O_3  and  C_4
REMARK    3  A    between atoms: C_7  and  N_8
REMARK    4  A    between atoms: C_9  and  S_10
REMARK    5  A    between atoms: S_10  and  C_11
REMARK    6  A    between atoms: C_11  and  C_12
REMARK    7  A    between atoms: N_14  and  C_15
REMARK                            x       y       z     vdW  Elec       q    Type
REMARK                         _______ _______ _______ _____ _____    ______ ____
ROOT
ATOM      1  N   UNL     1      37.116   4.437  15.358  0.00  0.00    +0.000 N 
ATOM      2  C   UNL     1      36.637   3.399  16.081  0.00  0.00    +0.000 A 
ATOM      3  N   UNL     1      37.226   3.371  17.288  0.00  0.00    +0.000 NA
ATOM      4  C   UNL     1      38.104   4.399  17.366  0.00  0.00    +0.000 A 
ATOM      5  C   UNL     1      38.978   4.866  18.334  0.00  0.00    +0.000 A 
ATOM      6  C   UNL     1      39.736   5.976  18.042  0.00  0.00    +0.000 A 
ATOM      7  C   UNL     1      39.658   6.633  16.834  0.00  0.00    +0.000 A 
ATOM      8  C   UNL     1      38.794   6.177  15.864  0.00  0.00    +0.000 A 
ATOM      9  C   UNL     1      38.018   5.048  16.155  0.00  0.00    +0.000 A 
ENDROOT
BRANCH   1  13
ATOM     10  C   UNL     1      35.938   5.646  11.454  0.00  0.00    +0.000 A 
ATOM     11  C   UNL     1      35.287   6.114  12.570  0.00  0.00    +0.000 A 
ATOM     12  C   UNL     1      35.683   5.707  13.827  0.00  0.00    +0.000 A 
ATOM     13  C   UNL     1      36.741   4.821  14.031  0.00  0.00    +0.000 A 
ATOM     14  C   UNL     1      37.382   4.364  12.904  0.00  0.00    +0.000 A 
ATOM     15  C   UNL     1      36.985   4.772  11.638  0.00  0.00    +0.000 A 
BRANCH  10  16
ATOM     16  O   UNL     1      35.602   6.008  10.149  0.00  0.00    +0.000 OA
BRANCH  16  18
ATOM     17  C   UNL     1      34.141   7.090   8.605  0.00  0.00    +0.000 C 
ATOM     18  C   UNL     1      35.095   7.257   9.788  0.00  0.00    +0.000 C 
ENDBRANCH  16  18
ENDBRANCH  10  16
ENDBRANCH   1  13
BRANCH   2  19
ATOM     19  S   UNL     1      35.402   2.257  15.419  0.00  0.00    +0.000 S 
BRANCH  19  20
ATOM     20  C   UNL     1      34.907   1.152  16.772  0.00  0.00    +0.000 C 
BRANCH  20  21
ATOM     21  C   UNL     1      35.744  -0.080  16.724  0.00  0.00    +0.000 C 
ATOM     22  O   UNL     1      35.225  -1.167  16.292  0.00  0.00    +0.000 OA
ATOM     23  N   UNL     1      37.092  -0.139  17.124  0.00  0.00    +0.000 NA
BRANCH  23  24
ATOM     24  C   UNL     1      37.809  -1.387  17.029  0.00  0.00    +0.000 A 
ATOM     25  C   UNL     1      38.393  -1.768  15.835  0.00  0.00    +0.000 A 
ATOM     26  C   UNL     1      39.104  -2.948  15.677  0.00  0.00    +0.000 A 
ATOM     27  C   UNL     1      39.211  -3.754  16.783  0.00  0.00    +0.000 A 
ATOM     28  C   UNL     1      38.649  -3.422  17.997  0.00  0.00    +0.000 A 
ATOM     29  C   UNL     1      37.941  -2.220  18.103  0.00  0.00    +0.000 A 
ATOM     30  C   UNL     1      37.331  -1.868  19.432  0.00  0.00    +0.000 C 
ENDBRANCH  23  24
ENDBRANCH  20  21
ENDBRANCH  19  20
ENDBRANCH   2  19
TORSDOF 7
ENDMDL
MODEL 6
REMARK VINA RESULT:      -7.7     20.890     26.506
REMARK  Name = 
REMARK  7 active torsions:
REMARK  status: ('A' for Active; 'I' for Inactive)
REMARK    1  A    between atoms: C_2  and  O_3
REMARK    2  A    between atoms: O_3  and  C_4
REMARK    3  A    between atoms: C_7  and  N_8
REMARK    4  A    between atoms: C_9  and  S_10
REMARK    5  A    between atoms: S_10  and  C_11
REMARK    6  A    between atoms: C_11  and  C_12
REMARK    7  A    between atoms: N_14  and  C_15
REMARK                            x       y       z     vdW  Elec       q    Type
REMARK                         _______ _______ _______ _____ _____    ______ ____
ROOT
ATOM      1  N   UNL     1      12.602   0.904  28.886  0.00  0.00    +0.000 N 
ATOM      2  C   UNL     1      13.120   0.873  27.637  0.00  0.00    +0.000 A 
ATOM      3  N   UNL     1      12.530   1.809  26.875  0.00  0.00    +0.000 NA
ATOM      4  C   UNL     1      11.614   2.466  27.624  0.00  0.00    +0.000 A 
ATOM      5  C   UNL     1      10.722   3.500  27.393  0.00  0.00    +0.000 A 
ATOM      6  C   UNL     1       9.922   3.912  28.433  0.00  0.00    +0.000 A 
ATOM      7  C   UNL     1       9.977   3.339  29.684  0.00  0.00    +0.000 A 
ATOM      8  C   UNL     1      10.858   2.311  29.927  0.00  0.00    +0.000 A 
ATOM      9  C   UNL     1      11.676   1.886  28.871  0.00  0.00    +0.000 A 
ENDROOT
BRANCH   1  13
ATOM     10  C   UNL     1      13.617  -1.619  32.156  0.00  0.00    +0.000 A 
ATOM     11  C   UNL     1      12.637  -1.975  31.261  0.00  0.00    +0.000 A 
ATOM     12  C   UNL     1      12.321  -1.141  30.210  0.00  0.00    +0.000 A 
ATOM     13  C   UNL     1      12.964   0.080  29.999  0.00  0.00    +0.000 A 
ATOM     14  C   UNL     1      13.943   0.419  30.904  0.00  0.00    +0.000 A 
ATOM     15  C   UNL     1      14.262  -0.419  31.964  0.00  0.00    +0.000 A 
BRANCH  10  16
ATOM     16  O   UNL     1      13.997  -2.405  33.246  0.00  0.00    +0.000 OA
BRANCH  16  18
ATOM     17  C   UNL     1      15.641  -4.133  33.242  0.00  0.00    +0.000 C 
ATOM     18  C   UNL     1      15.321  -2.680  33.590  0.00  0.00    +0.000 C 
ENDBRANCH  16  18
ENDBRANCH  10  16
ENDBRANCH   1  13
BRANCH   2  19
ATOM     19  S   UNL     1      14.397  -0.311  27.156  0.00  0.00    +0.000 S 
BRANCH  19  20
ATOM     20  C   UNL     1      16.006   0.469  27.474  0.00  0.00    +0.000 C 
BRANCH  20  21
ATOM     21  C   UNL     1      16.874   0.297  26.275  0.00  0.00    +0.000 C 
ATOM     22  O   UNL     1      16.330   0.052  25.143  0.00  0.00    +0.000 OA
ATOM     23  N   UNL     1      18.278   0.388  26.293  0.00  0.00    +0.000 NA
BRANCH  23  24
ATOM     24  C   UNL     1      19.020   0.209  25.069  0.00  0.00    +0.000 A 
ATOM     25  C   UNL     1      19.364   1.301  24.295  0.00  0.00    +0.000 A 
ATOM     26  C   UNL     1      20.083   1.202  23.113  0.00  0.00    +0.000 A 
ATOM     27  C   UNL     1      20.453  -0.062  22.724  0.00  0.00    +0.000 A 
ATOM     28  C   UNL     1      20.136  -1.185  23.457  0.00  0.00    +0.000 A 
ATOM     29  C   UNL     1      19.408  -1.028  24.642  0.00  0.00    +0.000 A 
ATOM     30  C   UNL     1      19.066  -2.260  25.435  0.00  0.00    +0.000 C 
ENDBRANCH  23  24
ENDBRANCH  20  21
ENDBRANCH  19  20
ENDBRANCH   2  19
TORSDOF 7
ENDMDL
MODEL 7
REMARK VINA RESULT:      -7.6      2.514      5.807
REMARK  Name = 
REMARK  7 active torsions:
REMARK  status: ('A' for Active; 'I' for Inactive)
REMARK    1  A    between atoms: C_2  and  O_3
REMARK    2  A    between atoms: O_3  and  C_4
REMARK    3  A    between atoms: C_7  and  N_8
REMARK    4  A    between atoms: C_9  and  S_10
REMARK    5  A    between atoms: S_10  and  C_11
REMARK    6  A    between atoms: C_11  and  C_12
REMARK    7  A    between atoms: N_14  and  C_15
REMARK                            x       y       z     vdW  Elec       q    Type
REMARK                         _______ _______ _______ _____ _____    ______ ____
ROOT
ATOM      1  N   UNL     1      36.007  -1.853  15.976  0.00  0.00    +0.000 N 
ATOM      2  C   UNL     1      35.274  -1.125  16.848  0.00  0.00    +0.000 A 
ATOM      3  N   UNL     1      34.064  -1.685  17.008  0.00  0.00    +0.000 NA
ATOM      4  C   UNL     1      33.993  -2.794  16.235  0.00  0.00    +0.000 A 
ATOM      5  C   UNL     1      33.026  -3.755  15.988  0.00  0.00    +0.000 A 
ATOM      6  C   UNL     1      33.327  -4.768  15.109  0.00  0.00    +0.000 A 
ATOM      7  C   UNL     1      34.544  -4.862  14.471  0.00  0.00    +0.000 A 
ATOM      8  C   UNL     1      35.513  -3.914  14.707  0.00  0.00    +0.000 A 
ATOM      9  C   UNL     1      35.213  -2.878  15.602  0.00  0.00    +0.000 A 
ENDROOT
BRANCH   1  13
ATOM     10  C   UNL     1      40.025  -1.183  14.752  0.00  0.00    +0.000 A 
ATOM     11  C   UNL     1      39.728  -2.059  15.768  0.00  0.00    +0.000 A 
ATOM     12  C   UNL     1      38.419  -2.259  16.151  0.00  0.00    +0.000 A 
ATOM     13  C   UNL     1      37.349  -1.602  15.544  0.00  0.00    +0.000 A 
ATOM     14  C   UNL     1      37.664  -0.730  14.528  0.00  0.00    +0.000 A 
ATOM     15  C   UNL     1      38.982  -0.526  14.141  0.00  0.00    +0.000 A 
BRANCH  10  16
ATOM     16  O   UNL     1      41.322  -0.923  14.303  0.00  0.00    +0.000 OA
BRANCH  16  18
ATOM     17  C   UNL     1      41.722  -2.773  12.852  0.00  0.00    +0.000 C 
ATOM     18  C   UNL     1      42.257  -1.912  13.996  0.00  0.00    +0.000 C 
ENDBRANCH  16  18
ENDBRANCH  10  16
ENDBRANCH   1  13
BRANCH   2  19
ATOM     19  S   UNL     1      35.911   0.383  17.614  0.00  0.00    +0.000 S 
BRANCH  19  20
ATOM     20  C   UNL     1      35.094   1.788  16.805  0.00  0.00    +0.000 C 
BRANCH  20  21
ATOM     21  C   UNL     1      36.130   2.659  16.179  0.00  0.00    +0.000 C 
ATOM     22  O   UNL     1      35.759   3.613  15.413  0.00  0.00    +0.000 OA
ATOM     23  N   UNL     1      37.515   2.507  16.375  0.00  0.00    +0.000 NA
BRANCH  23  24
ATOM     24  C   UNL     1      38.430   3.413  15.722  0.00  0.00    +0.000 A 
ATOM     25  C   UNL     1      38.833   3.181  14.421  0.00  0.00    +0.000 A 
ATOM     26  C   UNL     1      39.702   4.015  13.733  0.00  0.00    +0.000 A 
ATOM     27  C   UNL     1      40.164   5.115  14.411  0.00  0.00    +0.000 A 
ATOM     28  C   UNL     1      39.794   5.394  15.709  0.00  0.00    +0.000 A 
ATOM     29  C   UNL     1      38.915   4.520  16.358  0.00  0.00    +0.000 A 
ATOM     30  C   UNL     1      38.518   4.832  17.775  0.00  0.00    +0.000 C 
ENDBRANCH  23  24
ENDBRANCH  20  21
ENDBRANCH  19  20
ENDBRANCH   2  19
TORSDOF 7
ENDMDL
MODEL 8
REMARK VINA RESULT:      -7.4      3.255      6.522
REMARK  Name = 
REMARK  7 active torsions:
REMARK  status: ('A' for Active; 'I' for Inactive)
REMARK    1  A    between atoms: C_2  and  O_3
REMARK    2  A    between atoms: O_3  and  C_4
REMARK    3  A    between atoms: C_7  and  N_8
REMARK    4  A    between atoms: C_9  and  S_10
REMARK    5  A    between atoms: S_10  and  C_11
REMARK    6  A    between atoms: C_11  and  C_12
REMARK    7  A    between atoms: N_14  and  C_15
REMARK                            x       y       z     vdW  Elec       q    Type
REMARK                         _______ _______ _______ _____ _____    ______ ____
ROOT
ATOM      1  N   UNL     1      37.464  -0.277  15.133  0.00  0.00    +0.000 N 
ATOM      2  C   UNL     1      37.327   1.046  15.373  0.00  0.00    +0.000 A 
ATOM      3  N   UNL     1      36.257   1.261  16.157  0.00  0.00    +0.000 NA
ATOM      4  C   UNL     1      35.680   0.069  16.439  0.00  0.00    +0.000 A 
ATOM      5  C   UNL     1      34.579  -0.333  17.177  0.00  0.00    +0.000 A 
ATOM      6  C   UNL     1      34.292  -1.677  17.234  0.00  0.00    +0.000 A 
ATOM      7  C   UNL     1      35.053  -2.628  16.591  0.00  0.00    +0.000 A 
ATOM      8  C   UNL     1      36.149  -2.240  15.853  0.00  0.00    +0.000 A 
ATOM      9  C   UNL     1      36.447  -0.873  15.791  0.00  0.00    +0.000 A 
ENDROOT
BRANCH   1  13
ATOM     10  C   UNL     1      40.534  -2.200  12.905  0.00  0.00    +0.000 A 
ATOM     11  C   UNL     1      40.721  -1.857  14.222  0.00  0.00    +0.000 A 
ATOM     12  C   UNL     1      39.713  -1.231  14.926  0.00  0.00    +0.000 A 
ATOM     13  C   UNL     1      38.478  -0.921  14.355  0.00  0.00    +0.000 A 
ATOM     14  C   UNL     1      38.309  -1.273  13.036  0.00  0.00    +0.000 A 
ATOM     15  C   UNL     1      39.322  -1.902  12.326  0.00  0.00    +0.000 A 
BRANCH  10  16
ATOM     16  O   UNL     1      41.501  -2.835  12.123  0.00  0.00    +0.000 OA
BRANCH  16  18
ATOM     17  C   UNL     1      43.775  -3.397  12.575  0.00  0.00    +0.000 C 
ATOM     18  C   UNL     1      42.810  -2.377  11.970  0.00  0.00    +0.000 C 
ENDBRANCH  16  18
ENDBRANCH  10  16
ENDBRANCH   1  13
BRANCH   2  19
ATOM     19  S   UNL     1      38.456   2.271  14.673  0.00  0.00    +0.000 S 
BRANCH  19  20
ATOM     20  C   UNL     1      38.274   3.794  15.645  0.00  0.00    +0.000 C 
BRANCH  20  21
ATOM     21  C   UNL     1      37.378   4.734  14.913  0.00  0.00    +0.000 C 
ATOM     22  O   UNL     1      37.601   5.991  14.991  0.00  0.00    +0.000 OA
ATOM     23  N   UNL     1      36.283   4.334  14.126  0.00  0.00    +0.000 NA
BRANCH  23  24
ATOM     24  C   UNL     1      35.485   5.331  13.455  0.00  0.00    +0.000 A 
ATOM     25  C   UNL     1      34.429   5.936  14.110  0.00  0.00    +0.000 A 
ATOM     26  C   UNL     1      33.628   6.908  13.528  0.00  0.00    +0.000 A 
ATOM     27  C   UNL     1      33.929   7.260  12.236  0.00  0.00    +0.000 A 
ATOM     28  C   UNL     1      34.971   6.688  11.537  0.00  0.00    +0.000 A 
ATOM     29  C   UNL     1      35.748   5.712  12.171  0.00  0.00    +0.000 A 
ATOM     30  C   UNL     1      36.882   5.093  11.399  0.00  0.00    +0.000 C 
ENDBRANCH  23  24
ENDBRANCH  20  21
ENDBRANCH  19  20
ENDBRANCH   2  19
TORSDOF 7
ENDMDL
MODEL 9
REMARK VINA RESULT:      -7.3      4.342      6.882
REMARK  Name = 
REMARK  7 active torsions:
REMARK  status: ('A' for Active; 'I' for Inactive)
REMARK    1  A    between atoms: C_2  and  O_3
REMARK    2  A    between atoms: O_3  and  C_4
REMARK    3  A    between atoms: C_7  and  N_8
REMARK    4  A    between atoms: C_9  and  S_10
REMARK    5  A    between atoms: S_10  and  C_11
REMARK    6  A    between atoms: C_11  and  C_12
REMARK    7  A    between atoms: N_14  and  C_15
REMARK                            x       y       z     vdW  Elec       q    Type
REMARK                         _______ _______ _______ _____ _____    ______ ____
ROOT
ATOM      1  N   UNL     1      36.328   4.751  14.785  0.00  0.00    +0.000 N 
ATOM      2  C   UNL     1      37.445   5.102  15.462  0.00  0.00    +0.000 A 
ATOM      3  N   UNL     1      37.705   4.196  16.418  0.00  0.00    +0.000 NA
ATOM      4  C   UNL     1      36.752   3.234  16.375  0.00  0.00    +0.000 A 
ATOM      5  C   UNL     1      36.498   2.077  17.092  0.00  0.00    +0.000 A 
ATOM      6  C   UNL     1      35.396   1.330  16.749  0.00  0.00    +0.000 A 
ATOM      7  C   UNL     1      34.544   1.687  15.727  0.00  0.00    +0.000 A 
ATOM      8  C   UNL     1      34.785   2.835  15.007  0.00  0.00    +0.000 A 
ATOM      9  C   UNL     1      35.907   3.601  15.351  0.00  0.00    +0.000 A 
ENDROOT
BRANCH   1  13
ATOM     10  C   UNL     1      34.464   6.854  11.592  0.00  0.00    +0.000 A 
ATOM     11  C   UNL     1      33.982   6.937  12.876  0.00  0.00    +0.000 A 
ATOM     12  C   UNL     1      34.599   6.245  13.896  0.00  0.00    +0.000 A 
ATOM     13  C   UNL     1      35.721   5.442  13.688  0.00  0.00    +0.000 A 
ATOM     14  C   UNL     1      36.192   5.372  12.397  0.00  0.00    +0.000 A 
ATOM     15  C   UNL     1      35.571   6.068  11.369  0.00  0.00    +0.000 A 
BRANCH  10  16
ATOM     16  O   UNL     1      33.899   7.523  10.504  0.00  0.00    +0.000 OA
BRANCH  16  18
ATOM     17  C   UNL     1      33.740   6.800   8.237  0.00  0.00    +0.000 C 
ATOM     18  C   UNL     1      34.509   7.643   9.255  0.00  0.00    +0.000 C 
ENDBRANCH  16  18
ENDBRANCH  10  16
ENDBRANCH   1  13
BRANCH   2  19
ATOM     19  S   UNL     1      38.368   6.608  15.076  0.00  0.00    +0.000 S 
BRANCH  19  20
ATOM     20  C   UNL     1      38.167   7.741  16.482  0.00  0.00    +0.000 C 
BRANCH  20  21
ATOM     21  C   UNL     1      39.385   7.672  17.338  0.00  0.00    +0.000 C 
ATOM     22  O   UNL     1      39.864   8.755  17.824  0.00  0.00    +0.000 OA
ATOM     23  N   UNL     1      40.061   6.482  17.662  0.00  0.00    +0.000 NA
BRANCH  23  24
ATOM     24  C   UNL     1      41.229   6.533  18.506  0.00  0.00    +0.000 A 
ATOM     25  C   UNL     1      41.104   6.432  19.879  0.00  0.00    +0.000 A 
ATOM     26  C   UNL     1      42.185   6.465  20.747  0.00  0.00    +0.000 A 
ATOM     27  C   UNL     1      43.426   6.606  20.178  0.00  0.00    +0.000 A 
ATOM     28  C   UNL     1      43.608   6.711  18.815  0.00  0.00    +0.000 A 
ATOM     29  C   UNL     1      42.483   6.672  17.984  0.00  0.00    +0.000 A 
ATOM     30  C   UNL     1      42.692   6.788  16.499  0.00  0.00    +0.000 C 
ENDBRANCH  23  24
ENDBRANCH  20  21
ENDBRANCH  19  20
ENDBRANCH   2  19
TORSDOF 7
ENDMDL
MODEL 10
REMARK VINA RESULT:      -7.3     25.769     29.538
REMARK  Name = 
REMARK  7 active torsions:
REMARK  status: ('A' for Active; 'I' for Inactive)
REMARK    1  A    between atoms: C_2  and  O_3
REMARK    2  A    between atoms: O_3  and  C_4
REMARK    3  A    between atoms: C_7  and  N_8
REMARK    4  A    between atoms: C_9  and  S_10
REMARK    5  A    between atoms: S_10  and  C_11
REMARK    6  A    between atoms: C_11  and  C_12
REMARK    7  A    between atoms: N_14  and  C_15
REMARK                            x       y       z     vdW  Elec       q    Type
REMARK                         _______ _______ _______ _____ _____    ______ ____
ROOT
ATOM      1  N   UNL     1      25.703  16.404  36.557  0.00  0.00    +0.000 N 
ATOM      2  C   UNL     1      25.310  17.698  36.589  0.00  0.00    +0.000 A 
ATOM      3  N   UNL     1      24.939  18.093  35.360  0.00  0.00    +0.000 NA
ATOM      4  C   UNL     1      25.088  17.053  34.506  0.00  0.00    +0.000 A 
ATOM      5  C   UNL     1      24.874  16.863  33.151  0.00  0.00    +0.000 A 
ATOM      6  C   UNL     1      25.150  15.626  32.617  0.00  0.00    +0.000 A 
ATOM      7  C   UNL     1      25.627  14.579  33.376  0.00  0.00    +0.000 A 
ATOM      8  C   UNL     1      25.845  14.756  34.723  0.00  0.00    +0.000 A 
ATOM      9  C   UNL     1      25.565  16.014  35.273  0.00  0.00    +0.000 A 
ENDROOT
BRANCH   1  13
ATOM     10  C   UNL     1      27.152  14.083  39.814  0.00  0.00    +0.000 A 
ATOM     11  C   UNL     1      27.982  14.930  39.119  0.00  0.00    +0.000 A 
ATOM     12  C   UNL     1      27.493  15.671  38.064  0.00  0.00    +0.000 A 
ATOM     13  C   UNL     1      26.161  15.606  37.654  0.00  0.00    +0.000 A 
ATOM     14  C   UNL     1      25.344  14.755  38.361  0.00  0.00    +0.000 A 
ATOM     15  C   UNL     1      25.835  14.007  39.423  0.00  0.00    +0.000 A 
BRANCH  10  16
ATOM     16  O   UNL     1      27.567  13.299  40.892  0.00  0.00    +0.000 OA
BRANCH  16  18
ATOM     17  C   UNL     1      27.646  10.916  40.925  0.00  0.00    +0.000 C 
ATOM     18  C   UNL     1      28.439  12.215  40.783  0.00  0.00    +0.000 C 
ENDBRANCH  16  18
ENDBRANCH  10  16
ENDBRANCH   1  13
BRANCH   2  19
ATOM     19  S   UNL     1      25.341  18.674  38.110  0.00  0.00    +0.000 S 
BRANCH  19  20
ATOM     20  C   UNL     1      23.618  19.040  38.553  0.00  0.00    +0.000 C 
BRANCH  20  21
ATOM     21  C   UNL     1      23.219  18.181  39.704  0.00  0.00    +0.000 C 
ATOM     22  O   UNL     1      22.578  18.706  40.678  0.00  0.00    +0.000 OA
ATOM     23  N   UNL     1      23.499  16.805  39.800  0.00  0.00    +0.000 NA
BRANCH  23  24
ATOM     24  C   UNL     1      23.060  16.068  40.960  0.00  0.00    +0.000 A 
ATOM     25  C   UNL     1      21.797  15.507  40.993  0.00  0.00    +0.000 A 
ATOM     26  C   UNL     1      21.315  14.779  42.071  0.00  0.00    +0.000 A 
ATOM     27  C   UNL     1      22.163  14.632  43.141  0.00  0.00    +0.000 A 
ATOM     28  C   UNL     1      23.431  15.171  43.160  0.00  0.00    +0.000 A 
ATOM     29  C   UNL     1      23.868  15.897  42.047  0.00  0.00    +0.000 A 
ATOM     30  C   UNL     1      25.253  16.482  42.078  0.00  0.00    +0.000 C 
ENDBRANCH  23  24
ENDBRANCH  20  21
ENDBRANCH  19  20
ENDBRANCH   2  19
TORSDOF 7
ENDMDL
