MODEL 1
REMARK VINA RESULT:      -6.3      0.000      0.000
REMARK  Name = 
REMARK  3 active torsions:
REMARK  status: ('A' for Active; 'I' for Inactive)
REMARK    1  A    between atoms: C_5  and  N_6
REMARK    2  A    between atoms: C_7  and  C_9
REMARK    3  A    between atoms: C_17  and  N_18
REMARK                            x       y       z     vdW  Elec       q    Type
REMARK                         _______ _______ _______ _____ _____    ______ ____
ROOT
ATOM      1  C   UNL     1      12.629  11.898  36.676  0.00  0.00    +0.000 C 
ATOM      2  C   UNL     1      14.118  11.808  36.858  0.00  0.00    +0.000 A 
ATOM      3  C   UNL     1      14.664  11.211  37.958  0.00  0.00    +0.000 A 
ATOM      4  C   UNL     1      16.037  11.150  38.085  0.00  0.00    +0.000 A 
ATOM      5  C   UNL     1      16.904  11.667  37.145  0.00  0.00    +0.000 A 
ATOM      6  C   UNL     1      16.355  12.271  36.032  0.00  0.00    +0.000 A 
ATOM      7  C   UNL     1      14.972  12.339  35.893  0.00  0.00    +0.000 A 
ENDROOT
BRANCH   5   8
ATOM      8  N   UNL     1      18.312  11.561  37.354  0.00  0.00    +0.000 NA
ATOM      9  C   UNL     1      19.015  10.346  37.328  0.00  0.00    +0.000 C 
ATOM     10  O   UNL     1      18.381   9.285  37.108  0.00  0.00    +0.000 OA
BRANCH   9  11
ATOM     11  C   UNL     1      20.489  10.233  37.548  0.00  0.00    +0.000 C 
ATOM     12  C   UNL     1      21.228  11.356  38.171  0.00  0.00    +0.000 C 
ATOM     13  C   UNL     1      22.697  11.513  37.873  0.00  0.00    +0.000 C 
ATOM     14  C   UNL     1      20.496  12.652  38.389  0.00  0.00    +0.000 C 
ATOM     15  C   UNL     1      20.904  10.178  39.053  0.00  0.00    +0.000 C 
ATOM     16  C   UNL     1      19.779  10.319  40.052  0.00  0.00    +0.000 C 
ATOM     17  C   UNL     1      21.964   9.126  39.280  0.00  0.00    +0.000 C 
ENDBRANCH   9  11
ENDBRANCH   5   8
BRANCH   7  18
ATOM     18  N   UNL     1      14.428  12.965  34.741  0.00  0.00    +0.000 N 
ATOM     19  O   UNL     1      13.753  13.997  34.896  0.00  0.00    +0.000 OA
ATOM     20  O   UNL     1      14.641  12.442  33.493  0.00  0.00    +0.000 OA
ENDBRANCH   7  18
TORSDOF 3
ENDMDL
MODEL 2
REMARK VINA RESULT:      -5.9     17.194     18.910
REMARK  Name = 
REMARK  3 active torsions:
REMARK  status: ('A' for Active; 'I' for Inactive)
REMARK    1  A    between atoms: C_5  and  N_6
REMARK    2  A    between atoms: C_7  and  C_9
REMARK    3  A    between atoms: C_17  and  N_18
REMARK                            x       y       z     vdW  Elec       q    Type
REMARK                         _______ _______ _______ _____ _____    ______ ____
ROOT
ATOM      1  C   UNL     1      33.072  -0.594  34.416  0.00  0.00    +0.000 C 
ATOM      2  C   UNL     1      33.407   0.867  34.527  0.00  0.00    +0.000 A 
ATOM      3  C   UNL     1      33.251   1.714  33.467  0.00  0.00    +0.000 A 
ATOM      4  C   UNL     1      33.570   3.049  33.614  0.00  0.00    +0.000 A 
ATOM      5  C   UNL     1      34.045   3.585  34.793  0.00  0.00    +0.000 A 
ATOM      6  C   UNL     1      34.203   2.732  35.865  0.00  0.00    +0.000 A 
ATOM      7  C   UNL     1      33.885   1.383  35.730  0.00  0.00    +0.000 A 
ENDROOT
BRANCH   5   8
ATOM      8  N   UNL     1      34.351   4.978  34.858  0.00  0.00    +0.000 NA
ATOM      9  C   UNL     1      33.840   5.843  35.838  0.00  0.00    +0.000 C 
ATOM     10  O   UNL     1      33.069   5.379  36.713  0.00  0.00    +0.000 OA
BRANCH   9  11
ATOM     11  C   UNL     1      34.159   7.302  35.907  0.00  0.00    +0.000 C 
ATOM     12  C   UNL     1      34.399   7.940  37.223  0.00  0.00    +0.000 C 
ATOM     13  C   UNL     1      34.141   9.417  37.371  0.00  0.00    +0.000 C 
ATOM     14  C   UNL     1      34.127   7.134  38.462  0.00  0.00    +0.000 C 
ATOM     15  C   UNL     1      35.612   7.611  36.390  0.00  0.00    +0.000 C 
ATOM     16  C   UNL     1      36.445   6.413  36.781  0.00  0.00    +0.000 C 
ATOM     17  C   UNL     1      36.237   8.702  35.552  0.00  0.00    +0.000 C 
ENDBRANCH   9  11
ENDBRANCH   5   8
BRANCH   7  18
ATOM     18  N   UNL     1      34.055   0.523  36.845  0.00  0.00    +0.000 N 
ATOM     19  O   UNL     1      33.111   0.403  37.644  0.00  0.00    +0.000 OA
ATOM     20  O   UNL     1      35.230  -0.156  37.035  0.00  0.00    +0.000 OA
ENDBRANCH   7  18
TORSDOF 3
ENDMDL
MODEL 3
REMARK VINA RESULT:      -5.8     22.515     23.611
REMARK  Name = 
REMARK  3 active torsions:
REMARK  status: ('A' for Active; 'I' for Inactive)
REMARK    1  A    between atoms: C_5  and  N_6
REMARK    2  A    between atoms: C_7  and  C_9
REMARK    3  A    between atoms: C_17  and  N_18
REMARK                            x       y       z     vdW  Elec       q    Type
REMARK                         _______ _______ _______ _____ _____    ______ ____
ROOT
ATOM      1  C   UNL     1      23.213  -1.031  16.098  0.00  0.00    +0.000 C 
ATOM      2  C   UNL     1      24.063   0.132  16.526  0.00  0.00    +0.000 A 
ATOM      3  C   UNL     1      25.417   0.010  16.663  0.00  0.00    +0.000 A 
ATOM      4  C   UNL     1      26.159   1.104  17.058  0.00  0.00    +0.000 A 
ATOM      5  C   UNL     1      25.600   2.336  17.327  0.00  0.00    +0.000 A 
ATOM      6  C   UNL     1      24.234   2.462  17.189  0.00  0.00    +0.000 A 
ATOM      7  C   UNL     1      23.474   1.366  16.792  0.00  0.00    +0.000 A 
ENDROOT
BRANCH   5   8
ATOM      8  N   UNL     1      26.443   3.416  17.730  0.00  0.00    +0.000 NA
ATOM      9  C   UNL     1      27.146   4.234  16.832  0.00  0.00    +0.000 C 
ATOM     10  O   UNL     1      27.037   4.015  15.601  0.00  0.00    +0.000 OA
BRANCH   9  11
ATOM     11  C   UNL     1      28.028   5.365  17.252  0.00  0.00    +0.000 C 
ATOM     12  C   UNL     1      28.118   6.581  16.410  0.00  0.00    +0.000 C 
ATOM     13  C   UNL     1      29.365   7.422  16.481  0.00  0.00    +0.000 C 
ATOM     14  C   UNL     1      27.459   6.556  15.059  0.00  0.00    +0.000 C 
ATOM     15  C   UNL     1      27.252   6.663  17.642  0.00  0.00    +0.000 C 
ATOM     16  C   UNL     1      25.752   6.612  17.468  0.00  0.00    +0.000 C 
ATOM     17  C   UNL     1      27.829   7.279  18.895  0.00  0.00    +0.000 C 
ENDBRANCH   9  11
ENDBRANCH   5   8
BRANCH   7  18
ATOM     18  N   UNL     1      22.069   1.517  16.657  0.00  0.00    +0.000 N 
ATOM     19  O   UNL     1      21.623   1.925  15.571  0.00  0.00    +0.000 OA
ATOM     20  O   UNL     1      21.229   1.221  17.698  0.00  0.00    +0.000 OA
ENDBRANCH   7  18
TORSDOF 3
ENDMDL
MODEL 4
REMARK VINA RESULT:      -5.7     22.933     24.517
REMARK  Name = 
REMARK  3 active torsions:
REMARK  status: ('A' for Active; 'I' for Inactive)
REMARK    1  A    between atoms: C_5  and  N_6
REMARK    2  A    between atoms: C_7  and  C_9
REMARK    3  A    between atoms: C_17  and  N_18
REMARK                            x       y       z     vdW  Elec       q    Type
REMARK                         _______ _______ _______ _____ _____    ______ ____
ROOT
ATOM      1  C   UNL     1      29.875  29.978  18.783  0.00  0.00    +0.000 C 
ATOM      2  C   UNL     1      29.659  28.852  19.756  0.00  0.00    +0.000 A 
ATOM      3  C   UNL     1      29.147  29.079  21.002  0.00  0.00    +0.000 A 
ATOM      4  C   UNL     1      28.965  28.017  21.863  0.00  0.00    +0.000 A 
ATOM      5  C   UNL     1      29.277  26.715  21.530  0.00  0.00    +0.000 A 
ATOM      6  C   UNL     1      29.795  26.483  20.272  0.00  0.00    +0.000 A 
ATOM      7  C   UNL     1      29.984  27.546  19.394  0.00  0.00    +0.000 A 
ENDROOT
BRANCH   5   8
ATOM      8  N   UNL     1      29.057  25.674  22.482  0.00  0.00    +0.000 NA
ATOM      9  C   UNL     1      27.964  24.795  22.437  0.00  0.00    +0.000 C 
ATOM     10  O   UNL     1      27.124  24.919  21.512  0.00  0.00    +0.000 OA
BRANCH   9  11
ATOM     11  C   UNL     1      27.732  23.705  23.433  0.00  0.00    +0.000 C 
ATOM     12  C   UNL     1      28.183  23.880  24.834  0.00  0.00    +0.000 C 
ATOM     13  C   UNL     1      28.491  22.655  25.656  0.00  0.00    +0.000 C 
ATOM     14  C   UNL     1      29.030  25.078  25.161  0.00  0.00    +0.000 C 
ATOM     15  C   UNL     1      26.714  24.079  24.558  0.00  0.00    +0.000 C 
ATOM     16  C   UNL     1      26.178  25.491  24.518  0.00  0.00    +0.000 C 
ATOM     17  C   UNL     1      25.762  22.936  24.825  0.00  0.00    +0.000 C 
ENDBRANCH   9  11
ENDBRANCH   5   8
BRANCH   7  18
ATOM     18  N   UNL     1      30.518  27.286  18.106  0.00  0.00    +0.000 N 
ATOM     19  O   UNL     1      31.753  27.218  17.984  0.00  0.00    +0.000 OA
ATOM     20  O   UNL     1      29.692  27.116  17.025  0.00  0.00    +0.000 OA
ENDBRANCH   7  18
TORSDOF 3
ENDMDL
MODEL 5
REMARK VINA RESULT:      -5.7     18.571     20.144
REMARK  Name = 
REMARK  3 active torsions:
REMARK  status: ('A' for Active; 'I' for Inactive)
REMARK    1  A    between atoms: C_5  and  N_6
REMARK    2  A    between atoms: C_7  and  C_9
REMARK    3  A    between atoms: C_17  and  N_18
REMARK                            x       y       z     vdW  Elec       q    Type
REMARK                         _______ _______ _______ _____ _____    ______ ____
ROOT
ATOM      1  C   UNL     1      25.087  25.702  31.459  0.00  0.00    +0.000 C 
ATOM      2  C   UNL     1      25.255  25.540  29.974  0.00  0.00    +0.000 A 
ATOM      3  C   UNL     1      24.704  26.430  29.096  0.00  0.00    +0.000 A 
ATOM      4  C   UNL     1      24.884  26.243  27.741  0.00  0.00    +0.000 A 
ATOM      5  C   UNL     1      25.603  25.189  27.214  0.00  0.00    +0.000 A 
ATOM      6  C   UNL     1      26.161  24.290  28.099  0.00  0.00    +0.000 A 
ATOM      7  C   UNL     1      25.985  24.467  29.468  0.00  0.00    +0.000 A 
ENDROOT
BRANCH   5   8
ATOM      8  N   UNL     1      25.740  25.071  25.798  0.00  0.00    +0.000 NA
ATOM      9  C   UNL     1      26.743  25.714  25.056  0.00  0.00    +0.000 C 
ATOM     10  O   UNL     1      27.574  26.437  25.659  0.00  0.00    +0.000 OA
BRANCH   9  11
ATOM     11  C   UNL     1      26.888  25.591  23.573  0.00  0.00    +0.000 C 
ATOM     12  C   UNL     1      28.239  25.499  22.971  0.00  0.00    +0.000 C 
ATOM     13  C   UNL     1      28.433  25.955  21.548  0.00  0.00    +0.000 C 
ATOM     14  C   UNL     1      29.429  25.722  23.863  0.00  0.00    +0.000 C 
ATOM     15  C   UNL     1      27.460  24.216  23.103  0.00  0.00    +0.000 C 
ATOM     16  C   UNL     1      27.846  23.253  24.202  0.00  0.00    +0.000 C 
ATOM     17  C   UNL     1      26.701  23.699  21.903  0.00  0.00    +0.000 C 
ENDBRANCH   9  11
ENDBRANCH   5   8
BRANCH   7  18
ATOM     18  N   UNL     1      26.567  23.530  30.361  0.00  0.00    +0.000 N 
ATOM     19  O   UNL     1      25.907  22.522  30.668  0.00  0.00    +0.000 OA
ATOM     20  O   UNL     1      27.822  23.732  30.872  0.00  0.00    +0.000 OA
ENDBRANCH   7  18
TORSDOF 3
ENDMDL
MODEL 6
REMARK VINA RESULT:      -5.6      4.760      6.640
REMARK  Name = 
REMARK  3 active torsions:
REMARK  status: ('A' for Active; 'I' for Inactive)
REMARK    1  A    between atoms: C_5  and  N_6
REMARK    2  A    between atoms: C_7  and  C_9
REMARK    3  A    between atoms: C_17  and  N_18
REMARK                            x       y       z     vdW  Elec       q    Type
REMARK                         _______ _______ _______ _____ _____    ______ ____
ROOT
ATOM      1  C   UNL     1      15.613   8.097  45.651  0.00  0.00    +0.000 C 
ATOM      2  C   UNL     1      15.960   8.305  44.203  0.00  0.00    +0.000 A 
ATOM      3  C   UNL     1      15.920   7.275  43.308  0.00  0.00    +0.000 A 
ATOM      4  C   UNL     1      16.245   7.511  41.988  0.00  0.00    +0.000 A 
ATOM      5  C   UNL     1      16.615   8.753  41.514  0.00  0.00    +0.000 A 
ATOM      6  C   UNL     1      16.656   9.795  42.416  0.00  0.00    +0.000 A 
ATOM      7  C   UNL     1      16.331   9.570  43.750  0.00  0.00    +0.000 A 
ENDROOT
BRANCH   5   8
ATOM      8  N   UNL     1      16.936   8.909  40.132  0.00  0.00    +0.000 NA
ATOM      9  C   UNL     1      18.217   8.691  39.599  0.00  0.00    +0.000 C 
ATOM     10  O   UNL     1      19.142   8.338  40.371  0.00  0.00    +0.000 OA
BRANCH   9  11
ATOM     11  C   UNL     1      18.555   8.855  38.152  0.00  0.00    +0.000 C 
ATOM     12  C   UNL     1      17.898   9.920  37.359  0.00  0.00    +0.000 C 
ATOM     13  C   UNL     1      17.767   9.739  35.869  0.00  0.00    +0.000 C 
ATOM     14  C   UNL     1      16.769  10.682  37.995  0.00  0.00    +0.000 C 
ATOM     15  C   UNL     1      19.308  10.183  37.823  0.00  0.00    +0.000 C 
ATOM     16  C   UNL     1      19.515  11.129  38.983  0.00  0.00    +0.000 C 
ATOM     17  C   UNL     1      20.448   9.932  36.864  0.00  0.00    +0.000 C 
ENDBRANCH   9  11
ENDBRANCH   5   8
BRANCH   7  18
ATOM     18  N   UNL     1      16.380  10.656  44.662  0.00  0.00    +0.000 N 
ATOM     19  O   UNL     1      15.359  11.351  44.804  0.00  0.00    +0.000 OA
ATOM     20  O   UNL     1      17.524  10.930  45.365  0.00  0.00    +0.000 OA
ENDBRANCH   7  18
TORSDOF 3
ENDMDL
MODEL 7
REMARK VINA RESULT:      -5.6     24.294     26.182
REMARK  Name = 
REMARK  3 active torsions:
REMARK  status: ('A' for Active; 'I' for Inactive)
REMARK    1  A    between atoms: C_5  and  N_6
REMARK    2  A    between atoms: C_7  and  C_9
REMARK    3  A    between atoms: C_17  and  N_18
REMARK                            x       y       z     vdW  Elec       q    Type
REMARK                         _______ _______ _______ _____ _____    ______ ____
ROOT
ATOM      1  C   UNL     1      35.065   2.815  17.026  0.00  0.00    +0.000 C 
ATOM      2  C   UNL     1      33.677   3.392  17.025  0.00  0.00    +0.000 A 
ATOM      3  C   UNL     1      32.600   2.649  17.416  0.00  0.00    +0.000 A 
ATOM      4  C   UNL     1      31.343   3.218  17.400  0.00  0.00    +0.000 A 
ATOM      5  C   UNL     1      31.110   4.519  17.003  0.00  0.00    +0.000 A 
ATOM      6  C   UNL     1      32.197   5.271  16.608  0.00  0.00    +0.000 A 
ATOM      7  C   UNL     1      33.469   4.708  16.619  0.00  0.00    +0.000 A 
ENDROOT
BRANCH   5   8
ATOM      8  N   UNL     1      29.777   5.029  17.017  0.00  0.00    +0.000 NA
ATOM      9  C   UNL     1      28.952   5.085  15.882  0.00  0.00    +0.000 C 
ATOM     10  O   UNL     1      29.400   4.666  14.787  0.00  0.00    +0.000 OA
BRANCH   9  11
ATOM     11  C   UNL     1      27.556   5.619  15.895  0.00  0.00    +0.000 C 
ATOM     12  C   UNL     1      27.187   6.692  16.847  0.00  0.00    +0.000 C 
ATOM     13  C   UNL     1      25.748   6.819  17.276  0.00  0.00    +0.000 C 
ATOM     14  C   UNL     1      28.186   7.078  17.902  0.00  0.00    +0.000 C 
ATOM     15  C   UNL     1      27.439   7.102  15.419  0.00  0.00    +0.000 C 
ATOM     16  C   UNL     1      28.742   7.794  15.091  0.00  0.00    +0.000 C 
ATOM     17  C   UNL     1      26.258   7.279  14.493  0.00  0.00    +0.000 C 
ENDBRANCH   9  11
ENDBRANCH   5   8
BRANCH   7  18
ATOM     18  N   UNL     1      34.573   5.499  16.208  0.00  0.00    +0.000 N 
ATOM     19  O   UNL     1      34.860   5.524  14.998  0.00  0.00    +0.000 OA
ATOM     20  O   UNL     1      35.302   6.215  17.121  0.00  0.00    +0.000 OA
ENDBRANCH   7  18
TORSDOF 3
ENDMDL
MODEL 8
REMARK VINA RESULT:      -5.6     21.958     23.498
REMARK  Name = 
REMARK  3 active torsions:
REMARK  status: ('A' for Active; 'I' for Inactive)
REMARK    1  A    between atoms: C_5  and  N_6
REMARK    2  A    between atoms: C_7  and  C_9
REMARK    3  A    between atoms: C_17  and  N_18
REMARK                            x       y       z     vdW  Elec       q    Type
REMARK                         _______ _______ _______ _____ _____    ______ ____
ROOT
ATOM      1  C   UNL     1      13.978  -9.309  33.594  0.00  0.00    +0.000 C 
ATOM      2  C   UNL     1      12.717  -9.425  34.404  0.00  0.00    +0.000 A 
ATOM      3  C   UNL     1      11.545  -9.838  33.837  0.00  0.00    +0.000 A 
ATOM      4  C   UNL     1      10.411  -9.931  34.617  0.00  0.00    +0.000 A 
ATOM      5  C   UNL     1      10.396  -9.626  35.963  0.00  0.00    +0.000 A 
ATOM      6  C   UNL     1      11.578  -9.210  36.538  0.00  0.00    +0.000 A 
ATOM      7  C   UNL     1      12.729  -9.111  35.761  0.00  0.00    +0.000 A 
ENDROOT
BRANCH   5   8
ATOM      8  N   UNL     1       9.178  -9.750  36.697  0.00  0.00    +0.000 NA
ATOM      9  C   UNL     1       8.790 -10.919  37.372  0.00  0.00    +0.000 C 
ATOM     10  O   UNL     1       9.549 -11.918  37.337  0.00  0.00    +0.000 OA
BRANCH   9  11
ATOM     11  C   UNL     1       7.515 -11.051  38.141  0.00  0.00    +0.000 C 
ATOM     12  C   UNL     1       7.518 -11.728  39.459  0.00  0.00    +0.000 C 
ATOM     13  C   UNL     1       6.246 -12.371  39.948  0.00  0.00    +0.000 C 
ATOM     14  C   UNL     1       8.775 -12.429  39.893  0.00  0.00    +0.000 C 
ATOM     15  C   UNL     1       7.484 -10.221  39.465  0.00  0.00    +0.000 C 
ATOM     16  C   UNL     1       8.754  -9.477  39.806  0.00  0.00    +0.000 C 
ATOM     17  C   UNL     1       6.153  -9.524  39.632  0.00  0.00    +0.000 C 
ENDBRANCH   9  11
ENDBRANCH   5   8
BRANCH   7  18
ATOM     18  N   UNL     1      13.935  -8.680  36.372  0.00  0.00    +0.000 N 
ATOM     19  O   UNL     1      14.085  -7.464  36.582  0.00  0.00    +0.000 OA
ATOM     20  O   UNL     1      14.906  -9.581  36.720  0.00  0.00    +0.000 OA
ENDBRANCH   7  18
TORSDOF 3
ENDMDL
MODEL 9
REMARK VINA RESULT:      -5.6     18.914     21.017
REMARK  Name = 
REMARK  3 active torsions:
REMARK  status: ('A' for Active; 'I' for Inactive)
REMARK    1  A    between atoms: C_5  and  N_6
REMARK    2  A    between atoms: C_7  and  C_9
REMARK    3  A    between atoms: C_17  and  N_18
REMARK                            x       y       z     vdW  Elec       q    Type
REMARK                         _______ _______ _______ _____ _____    ______ ____
ROOT
ATOM      1  C   UNL     1      34.343   2.829  36.060  0.00  0.00    +0.000 C 
ATOM      2  C   UNL     1      33.738   1.487  35.759  0.00  0.00    +0.000 A 
ATOM      3  C   UNL     1      33.588   0.541  36.733  0.00  0.00    +0.000 A 
ATOM      4  C   UNL     1      33.027  -0.678  36.413  0.00  0.00    +0.000 A 
ATOM      5  C   UNL     1      32.602  -1.001  35.141  0.00  0.00    +0.000 A 
ATOM      6  C   UNL     1      32.752  -0.048  34.155  0.00  0.00    +0.000 A 
ATOM      7  C   UNL     1      33.317   1.186  34.465  0.00  0.00    +0.000 A 
ENDROOT
BRANCH   5   8
ATOM      8  N   UNL     1      32.032  -2.287  34.897  0.00  0.00    +0.000 NA
ATOM      9  C   UNL     1      32.751  -3.370  34.366  0.00  0.00    +0.000 C 
ATOM     10  O   UNL     1      33.965  -3.212  34.086  0.00  0.00    +0.000 OA
BRANCH   9  11
ATOM     11  C   UNL     1      32.156  -4.717  34.109  0.00  0.00    +0.000 C 
ATOM     12  C   UNL     1      32.942  -5.937  34.409  0.00  0.00    +0.000 C 
ATOM     13  C   UNL     1      32.635  -7.203  33.652  0.00  0.00    +0.000 C 
ATOM     14  C   UNL     1      34.388  -5.774  34.787  0.00  0.00    +0.000 C 
ATOM     15  C   UNL     1      31.880  -5.545  35.404  0.00  0.00    +0.000 C 
ATOM     16  C   UNL     1      32.315  -4.905  36.702  0.00  0.00    +0.000 C 
ATOM     17  C   UNL     1      30.531  -6.222  35.332  0.00  0.00    +0.000 C 
ENDBRANCH   9  11
ENDBRANCH   5   8
BRANCH   7  18
ATOM     18  N   UNL     1      33.463   2.152  33.436  0.00  0.00    +0.000 N 
ATOM     19  O   UNL     1      34.198   1.877  32.472  0.00  0.00    +0.000 OA
ATOM     20  O   UNL     1      32.811   3.355  33.505  0.00  0.00    +0.000 OA
ENDBRANCH   7  18
TORSDOF 3
ENDMDL
MODEL 10
REMARK VINA RESULT:      -5.3     18.046     19.369
REMARK  Name = 
REMARK  3 active torsions:
REMARK  status: ('A' for Active; 'I' for Inactive)
REMARK    1  A    between atoms: C_5  and  N_6
REMARK    2  A    between atoms: C_7  and  C_9
REMARK    3  A    between atoms: C_17  and  N_18
REMARK                            x       y       z     vdW  Elec       q    Type
REMARK                         _______ _______ _______ _____ _____    ______ ____
ROOT
ATOM      1  C   UNL     1      22.561  27.106  30.147  0.00  0.00    +0.000 C 
ATOM      2  C   UNL     1      23.623  26.442  29.316  0.00  0.00    +0.000 A 
ATOM      3  C   UNL     1      24.813  26.053  29.864  0.00  0.00    +0.000 A 
ATOM      4  C   UNL     1      25.759  25.446  29.064  0.00  0.00    +0.000 A 
ATOM      5  C   UNL     1      25.568  25.205  27.719  0.00  0.00    +0.000 A 
ATOM      6  C   UNL     1      24.367  25.597  27.164  0.00  0.00    +0.000 A 
ATOM      7  C   UNL     1      23.404  26.211  27.960  0.00  0.00    +0.000 A 
ENDROOT
BRANCH   5   8
ATOM      8  N   UNL     1      26.601  24.571  26.965  0.00  0.00    +0.000 NA
ATOM      9  C   UNL     1      27.243  25.167  25.869  0.00  0.00    +0.000 C 
ATOM     10  O   UNL     1      26.900  26.323  25.520  0.00  0.00    +0.000 OA
BRANCH   9  11
ATOM     11  C   UNL     1      28.325  24.505  25.078  0.00  0.00    +0.000 C 
ATOM     12  C   UNL     1      28.555  23.048  25.222  0.00  0.00    +0.000 C 
ATOM     13  C   UNL     1      29.926  22.497  24.926  0.00  0.00    +0.000 C 
ATOM     14  C   UNL     1      27.811  22.317  26.304  0.00  0.00    +0.000 C 
ATOM     15  C   UNL     1      27.801  23.505  23.999  0.00  0.00    +0.000 C 
ATOM     16  C   UNL     1      26.305  23.300  23.962  0.00  0.00    +0.000 C 
ATOM     17  C   UNL     1      28.555  23.671  22.700  0.00  0.00    +0.000 C 
ENDBRANCH   9  11
ENDBRANCH   5   8
BRANCH   7  18
ATOM     18  N   UNL     1      22.176  26.606  27.369  0.00  0.00    +0.000 N 
ATOM     19  O   UNL     1      22.122  27.716  26.813  0.00  0.00    +0.000 OA
ATOM     20  O   UNL     1      21.080  25.784  27.411  0.00  0.00    +0.000 OA
ENDBRANCH   7  18
TORSDOF 3
ENDMDL
