MODEL 1
REMARK VINA RESULT:      -7.9      0.000      0.000
REMARK  Name = 
REMARK  3 active torsions:
REMARK  status: ('A' for Active; 'I' for Inactive)
REMARK    1  A    between atoms: C_4  and  N_5
REMARK    2  A    between atoms: N_5  and  C_6
REMARK    3  A    between atoms: N_12  and  C_13
REMARK                            x       y       z     vdW  Elec       q    Type
REMARK                         _______ _______ _______ _____ _____    ______ ____
ROOT
ATOM      1  C   UNL     1      13.778  13.348  35.348  0.00  0.00    +0.000 A 
ATOM      2  C   UNL     1      12.697  13.056  36.153  0.00  0.00    +0.000 A 
ATOM      3  C   UNL     1      12.825  12.245  37.277  0.00  0.00    +0.000 A 
ATOM      4  C   UNL     1      14.055  11.712  37.612  0.00  0.00    +0.000 A 
ATOM      5  C   UNL     1      14.510  10.894  38.631  0.00  0.00    +0.000 A 
ATOM      6  N   UNL     1      15.826  10.714  38.426  0.00  0.00    +0.000 NA
ATOM      7  N   UNL     1      16.184  11.381  37.337  0.00  0.00    +0.000 N 
ATOM      8  C   UNL     1      15.128  12.011  36.801  0.00  0.00    +0.000 A 
ATOM      9  C   UNL     1      15.008  12.820  35.676  0.00  0.00    +0.000 A 
ENDROOT
BRANCH   7  10
ATOM     10  C   UNL     1      17.537  11.404  36.826  0.00  0.00    +0.000 C 
ATOM     11  C   UNL     1      17.589  10.712  35.480  0.00  0.00    +0.000 C 
ATOM     12  C   UNL     1      17.549   9.234  35.824  0.00  0.00    +0.000 C 
ATOM     13  C   UNL     1      18.490   9.184  37.016  0.00  0.00    +0.000 C 
ATOM     14  C   UNL     1      18.437  10.530  37.667  0.00  0.00    +0.000 C 
ENDBRANCH   7  10
BRANCH   1  15
ATOM     15  N   UNL     1      13.634  14.180  34.200  0.00  0.00    +0.000 NA
BRANCH  15  19
ATOM     16  O   UNL     1      14.572  11.524  30.238  0.00  0.00    +0.000 OA
ATOM     17  C   UNL     1      14.504  12.477  31.044  0.00  0.00    +0.000 C 
ATOM     18  C   UNL     1      14.265  12.519  32.479  0.00  0.00    +0.000 C 
ATOM     19  C   UNL     1      13.942  13.719  32.889  0.00  0.00    +0.000 C 
ATOM     20  C   UNL     1      13.932  14.616  31.716  0.00  0.00    +0.000 C 
ATOM     21  C   UNL     1      14.676  13.908  30.628  0.00  0.00    +0.000 C 
ENDBRANCH  15  19
ENDBRANCH   1  15
TORSDOF 3
ENDMDL
MODEL 2
REMARK VINA RESULT:      -7.8      2.748      6.378
REMARK  Name = 
REMARK  3 active torsions:
REMARK  status: ('A' for Active; 'I' for Inactive)
REMARK    1  A    between atoms: C_4  and  N_5
REMARK    2  A    between atoms: N_5  and  C_6
REMARK    3  A    between atoms: N_12  and  C_13
REMARK                            x       y       z     vdW  Elec       q    Type
REMARK                         _______ _______ _______ _____ _____    ______ ____
ROOT
ATOM      1  C   UNL     1      15.710  11.577  35.693  0.00  0.00    +0.000 A 
ATOM      2  C   UNL     1      16.847  10.798  35.739  0.00  0.00    +0.000 A 
ATOM      3  C   UNL     1      17.406  10.257  34.585  0.00  0.00    +0.000 A 
ATOM      4  C   UNL     1      16.825  10.496  33.354  0.00  0.00    +0.000 A 
ATOM      5  C   UNL     1      17.119  10.120  32.055  0.00  0.00    +0.000 A 
ATOM      6  N   UNL     1      16.175  10.668  31.270  0.00  0.00    +0.000 NA
ATOM      7  N   UNL     1      15.331  11.353  32.029  0.00  0.00    +0.000 N 
ATOM      8  C   UNL     1      15.689  11.277  33.320  0.00  0.00    +0.000 A 
ATOM      9  C   UNL     1      15.124  11.819  34.469  0.00  0.00    +0.000 A 
ENDROOT
BRANCH   7  10
ATOM     10  C   UNL     1      14.190  12.072  31.505  0.00  0.00    +0.000 C 
ATOM     11  C   UNL     1      14.446  12.458  30.063  0.00  0.00    +0.000 C 
ATOM     12  C   UNL     1      15.382  13.648  30.160  0.00  0.00    +0.000 C 
ATOM     13  C   UNL     1      14.759  14.420  31.311  0.00  0.00    +0.000 C 
ATOM     14  C   UNL     1      14.058  13.419  32.176  0.00  0.00    +0.000 C 
ENDBRANCH   7  10
BRANCH   1  15
ATOM     15  N   UNL     1      15.148  12.124  36.882  0.00  0.00    +0.000 NA
BRANCH  15  19
ATOM     16  O   UNL     1      10.609  10.705  37.895  0.00  0.00    +0.000 OA
ATOM     17  C   UNL     1      11.811  11.025  38.015  0.00  0.00    +0.000 C 
ATOM     18  C   UNL     1      12.715  11.753  37.136  0.00  0.00    +0.000 C 
ATOM     19  C   UNL     1      13.969  11.591  37.476  0.00  0.00    +0.000 C 
ATOM     20  C   UNL     1      14.011  10.703  38.655  0.00  0.00    +0.000 C 
ATOM     21  C   UNL     1      12.629  10.678  39.225  0.00  0.00    +0.000 C 
ENDBRANCH  15  19
ENDBRANCH   1  15
TORSDOF 3
ENDMDL
MODEL 3
REMARK VINA RESULT:      -7.5      2.725      6.448
REMARK  Name = 
REMARK  3 active torsions:
REMARK  status: ('A' for Active; 'I' for Inactive)
REMARK    1  A    between atoms: C_4  and  N_5
REMARK    2  A    between atoms: N_5  and  C_6
REMARK    3  A    between atoms: N_12  and  C_13
REMARK                            x       y       z     vdW  Elec       q    Type
REMARK                         _______ _______ _______ _____ _____    ______ ____
ROOT
ATOM      1  C   UNL     1      16.711  10.632  36.616  0.00  0.00    +0.000 A 
ATOM      2  C   UNL     1      15.887  11.366  37.443  0.00  0.00    +0.000 A 
ATOM      3  C   UNL     1      14.972  12.281  36.932  0.00  0.00    +0.000 A 
ATOM      4  C   UNL     1      14.870  12.473  35.567  0.00  0.00    +0.000 A 
ATOM      5  C   UNL     1      14.090  13.280  34.758  0.00  0.00    +0.000 A 
ATOM      6  N   UNL     1      14.450  13.022  33.489  0.00  0.00    +0.000 NA
ATOM      7  N   UNL     1      15.406  12.103  33.494  0.00  0.00    +0.000 N 
ATOM      8  C   UNL     1      15.699  11.734  34.750  0.00  0.00    +0.000 A 
ATOM      9  C   UNL     1      16.616  10.818  35.253  0.00  0.00    +0.000 A 
ENDROOT
BRANCH   7  10
ATOM     10  C   UNL     1      16.025  11.591  32.291  0.00  0.00    +0.000 C 
ATOM     11  C   UNL     1      16.170  12.704  31.275  0.00  0.00    +0.000 C 
ATOM     12  C   UNL     1      14.773  12.867  30.705  0.00  0.00    +0.000 C 
ATOM     13  C   UNL     1      14.346  11.417  30.552  0.00  0.00    +0.000 C 
ATOM     14  C   UNL     1      15.097  10.633  31.583  0.00  0.00    +0.000 C 
ENDBRANCH   7  10
BRANCH   1  15
ATOM     15  N   UNL     1      17.644   9.698  37.152  0.00  0.00    +0.000 NA
BRANCH  15  19
ATOM     16  O   UNL     1      22.399  10.121  36.235  0.00  0.00    +0.000 OA
ATOM     17  C   UNL     1      21.302  10.063  36.831  0.00  0.00    +0.000 C 
ATOM     18  C   UNL     1      20.004   9.544  36.427  0.00  0.00    +0.000 C 
ATOM     19  C   UNL     1      19.040   9.969  37.204  0.00  0.00    +0.000 C 
ATOM     20  C   UNL     1      19.636  10.847  38.232  0.00  0.00    +0.000 C 
ATOM     21  C   UNL     1      21.107  10.578  38.227  0.00  0.00    +0.000 C 
ENDBRANCH  15  19
ENDBRANCH   1  15
TORSDOF 3
ENDMDL
MODEL 4
REMARK VINA RESULT:      -7.4      3.652      7.449
REMARK  Name = 
REMARK  3 active torsions:
REMARK  status: ('A' for Active; 'I' for Inactive)
REMARK    1  A    between atoms: C_4  and  N_5
REMARK    2  A    between atoms: N_5  and  C_6
REMARK    3  A    between atoms: N_12  and  C_13
REMARK                            x       y       z     vdW  Elec       q    Type
REMARK                         _______ _______ _______ _____ _____    ______ ____
ROOT
ATOM      1  C   UNL     1      18.041   9.823  37.339  0.00  0.00    +0.000 A 
ATOM      2  C   UNL     1      18.420   9.396  36.084  0.00  0.00    +0.000 A 
ATOM      3  C   UNL     1      17.698   9.744  34.947  0.00  0.00    +0.000 A 
ATOM      4  C   UNL     1      16.572  10.537  35.056  0.00  0.00    +0.000 A 
ATOM      5  C   UNL     1      15.657  11.050  34.152  0.00  0.00    +0.000 A 
ATOM      6  N   UNL     1      14.765  11.760  34.864  0.00  0.00    +0.000 NA
ATOM      7  N   UNL     1      15.096  11.701  36.147  0.00  0.00    +0.000 N 
ATOM      8  C   UNL     1      16.202  10.959  36.315  0.00  0.00    +0.000 A 
ATOM      9  C   UNL     1      16.918  10.615  37.456  0.00  0.00    +0.000 A 
ENDROOT
BRANCH   7  10
ATOM     10  C   UNL     1      14.346  12.358  37.195  0.00  0.00    +0.000 C 
ATOM     11  C   UNL     1      13.842  11.331  38.186  0.00  0.00    +0.000 C 
ATOM     12  C   UNL     1      12.657  10.693  37.486  0.00  0.00    +0.000 C 
ATOM     13  C   UNL     1      11.986  11.911  36.873  0.00  0.00    +0.000 C 
ATOM     14  C   UNL     1      13.059  12.929  36.647  0.00  0.00    +0.000 C 
ENDBRANCH   7  10
BRANCH   1  15
ATOM     15  N   UNL     1      18.789   9.459  38.495  0.00  0.00    +0.000 NA
BRANCH  15  19
ATOM     16  O   UNL     1      17.935   5.699  41.455  0.00  0.00    +0.000 OA
ATOM     17  C   UNL     1      17.792   6.749  40.793  0.00  0.00    +0.000 C 
ATOM     18  C   UNL     1      18.535   7.296  39.667  0.00  0.00    +0.000 C 
ATOM     19  C   UNL     1      18.277   8.565  39.477  0.00  0.00    +0.000 C 
ATOM     20  C   UNL     1      17.305   8.992  40.503  0.00  0.00    +0.000 C 
ATOM     21  C   UNL     1      16.707   7.746  41.074  0.00  0.00    +0.000 C 
ENDBRANCH  15  19
ENDBRANCH   1  15
TORSDOF 3
ENDMDL
MODEL 5
REMARK VINA RESULT:      -7.2      3.392      7.000
REMARK  Name = 
REMARK  3 active torsions:
REMARK  status: ('A' for Active; 'I' for Inactive)
REMARK    1  A    between atoms: C_4  and  N_5
REMARK    2  A    between atoms: N_5  and  C_6
REMARK    3  A    between atoms: N_12  and  C_13
REMARK                            x       y       z     vdW  Elec       q    Type
REMARK                         _______ _______ _______ _____ _____    ______ ____
ROOT
ATOM      1  C   UNL     1      18.262  10.108  36.618  0.00  0.00    +0.000 A 
ATOM      2  C   UNL     1      18.473   9.641  35.338  0.00  0.00    +0.000 A 
ATOM      3  C   UNL     1      17.576   9.908  34.309  0.00  0.00    +0.000 A 
ATOM      4  C   UNL     1      16.441  10.656  34.554  0.00  0.00    +0.000 A 
ATOM      5  C   UNL     1      15.380  11.089  33.778  0.00  0.00    +0.000 A 
ATOM      6  N   UNL     1      14.568  11.792  34.587  0.00  0.00    +0.000 NA
ATOM      7  N   UNL     1      15.087  11.804  35.807  0.00  0.00    +0.000 N 
ATOM      8  C   UNL     1      16.240  11.118  35.837  0.00  0.00    +0.000 A 
ATOM      9  C   UNL     1      17.132  10.856  36.871  0.00  0.00    +0.000 A 
ENDROOT
BRANCH   7  10
ATOM     10  C   UNL     1      14.468  12.475  36.929  0.00  0.00    +0.000 C 
ATOM     11  C   UNL     1      14.086  11.461  37.987  0.00  0.00    +0.000 C 
ATOM     12  C   UNL     1      12.825  10.816  37.441  0.00  0.00    +0.000 C 
ATOM     13  C   UNL     1      12.086  12.028  36.899  0.00  0.00    +0.000 C 
ATOM     14  C   UNL     1      13.124  13.041  36.533  0.00  0.00    +0.000 C 
ENDBRANCH   7  10
BRANCH   1  15
ATOM     15  N   UNL     1      19.189   9.828  37.663  0.00  0.00    +0.000 NA
BRANCH  15  19
ATOM     16  O   UNL     1      23.131  12.521  38.584  0.00  0.00    +0.000 OA
ATOM     17  C   UNL     1      22.322  11.743  38.033  0.00  0.00    +0.000 C 
ATOM     18  C   UNL     1      20.896  11.527  38.228  0.00  0.00    +0.000 C 
ATOM     19  C   UNL     1      20.491  10.403  37.694  0.00  0.00    +0.000 C 
ATOM     20  C   UNL     1      21.659   9.744  37.075  0.00  0.00    +0.000 C 
ATOM     21  C   UNL     1      22.723  10.786  36.948  0.00  0.00    +0.000 C 
ENDBRANCH  15  19
ENDBRANCH   1  15
TORSDOF 3
ENDMDL
MODEL 6
REMARK VINA RESULT:      -7.1      3.212      5.766
REMARK  Name = 
REMARK  3 active torsions:
REMARK  status: ('A' for Active; 'I' for Inactive)
REMARK    1  A    between atoms: C_4  and  N_5
REMARK    2  A    between atoms: N_5  and  C_6
REMARK    3  A    between atoms: N_12  and  C_13
REMARK                            x       y       z     vdW  Elec       q    Type
REMARK                         _______ _______ _______ _____ _____    ______ ____
ROOT
ATOM      1  C   UNL     1      14.037  13.574  35.061  0.00  0.00    +0.000 A 
ATOM      2  C   UNL     1      13.235  14.624  34.669  0.00  0.00    +0.000 A 
ATOM      3  C   UNL     1      13.103  14.978  33.329  0.00  0.00    +0.000 A 
ATOM      4  C   UNL     1      13.781  14.272  32.355  0.00  0.00    +0.000 A 
ATOM      5  C   UNL     1      13.866  14.361  30.976  0.00  0.00    +0.000 A 
ATOM      6  N   UNL     1      14.697  13.384  30.574  0.00  0.00    +0.000 NA
ATOM      7  N   UNL     1      15.116  12.714  31.639  0.00  0.00    +0.000 N 
ATOM      8  C   UNL     1      14.580  13.223  32.759  0.00  0.00    +0.000 A 
ATOM      9  C   UNL     1      14.717  12.864  34.095  0.00  0.00    +0.000 A 
ENDROOT
BRANCH   7  10
ATOM     10  C   UNL     1      16.027  11.593  31.567  0.00  0.00    +0.000 C 
ATOM     11  C   UNL     1      15.338  10.413  30.915  0.00  0.00    +0.000 C 
ATOM     12  C   UNL     1      14.448   9.854  32.008  0.00  0.00    +0.000 C 
ATOM     13  C   UNL     1      15.371   9.937  33.212  0.00  0.00    +0.000 C 
ATOM     14  C   UNL     1      16.324  11.061  32.950  0.00  0.00    +0.000 C 
ENDBRANCH   7  10
BRANCH   1  15
ATOM     15  N   UNL     1      14.164  13.222  36.436  0.00  0.00    +0.000 NA
BRANCH  15  19
ATOM     16  O   UNL     1      12.260   9.667  39.151  0.00  0.00    +0.000 OA
ATOM     17  C   UNL     1      12.436  10.507  38.243  0.00  0.00    +0.000 C 
ATOM     18  C   UNL     1      13.617  11.243  37.817  0.00  0.00    +0.000 C 
ATOM     19  C   UNL     1      13.313  12.262  37.053  0.00  0.00    +0.000 C 
ATOM     20  C   UNL     1      11.844  12.297  36.902  0.00  0.00    +0.000 C 
ATOM     21  C   UNL     1      11.336  10.956  37.326  0.00  0.00    +0.000 C 
ENDBRANCH  15  19
ENDBRANCH   1  15
TORSDOF 3
ENDMDL
MODEL 7
REMARK VINA RESULT:      -6.9     21.569     25.026
REMARK  Name = 
REMARK  3 active torsions:
REMARK  status: ('A' for Active; 'I' for Inactive)
REMARK    1  A    between atoms: C_4  and  N_5
REMARK    2  A    between atoms: N_5  and  C_6
REMARK    3  A    between atoms: N_12  and  C_13
REMARK                            x       y       z     vdW  Elec       q    Type
REMARK                         _______ _______ _______ _____ _____    ______ ____
ROOT
ATOM      1  C   UNL     1      33.582  -3.407  33.986  0.00  0.00    +0.000 A 
ATOM      2  C   UNL     1      34.402  -4.048  34.890  0.00  0.00    +0.000 A 
ATOM      3  C   UNL     1      35.154  -5.163  34.529  0.00  0.00    +0.000 A 
ATOM      4  C   UNL     1      35.091  -5.652  33.238  0.00  0.00    +0.000 A 
ATOM      5  C   UNL     1      35.691  -6.708  32.573  0.00  0.00    +0.000 A 
ATOM      6  N   UNL     1      35.231  -6.682  31.310  0.00  0.00    +0.000 NA
ATOM      7  N   UNL     1      34.388  -5.666  31.182  0.00  0.00    +0.000 N 
ATOM      8  C   UNL     1      34.268  -5.003  32.343  0.00  0.00    +0.000 A 
ATOM      9  C   UNL     1      33.515  -3.890  32.697  0.00  0.00    +0.000 A 
ENDROOT
BRANCH   7  10
ATOM     10  C   UNL     1      33.707  -5.347  29.947  0.00  0.00    +0.000 C 
ATOM     11  C   UNL     1      32.257  -5.776  30.034  0.00  0.00    +0.000 C 
ATOM     12  C   UNL     1      32.304  -7.279  29.833  0.00  0.00    +0.000 C 
ATOM     13  C   UNL     1      33.319  -7.394  28.709  0.00  0.00    +0.000 C 
ATOM     14  C   UNL     1      34.225  -6.208  28.818  0.00  0.00    +0.000 C 
ENDBRANCH   7  10
BRANCH   1  15
ATOM     15  N   UNL     1      32.818  -2.267  34.369  0.00  0.00    +0.000 NA
BRANCH  15  19
ATOM     16  O   UNL     1      33.150   2.542  33.742  0.00  0.00    +0.000 OA
ATOM     17  C   UNL     1      33.239   1.309  33.560  0.00  0.00    +0.000 C 
ATOM     18  C   UNL     1      32.550   0.184  34.177  0.00  0.00    +0.000 C 
ATOM     19  C   UNL     1      33.160  -0.951  33.949  0.00  0.00    +0.000 C 
ATOM     20  C   UNL     1      34.359  -0.670  33.133  0.00  0.00    +0.000 C 
ATOM     21  C   UNL     1      34.178   0.699  32.561  0.00  0.00    +0.000 C 
ENDBRANCH  15  19
ENDBRANCH   1  15
TORSDOF 3
ENDMDL
MODEL 8
REMARK VINA RESULT:      -6.8     18.240     20.351
REMARK  Name = 
REMARK  3 active torsions:
REMARK  status: ('A' for Active; 'I' for Inactive)
REMARK    1  A    between atoms: C_4  and  N_5
REMARK    2  A    between atoms: N_5  and  C_6
REMARK    3  A    between atoms: N_12  and  C_13
REMARK                            x       y       z     vdW  Elec       q    Type
REMARK                         _______ _______ _______ _____ _____    ______ ____
ROOT
ATOM      1  C   UNL     1      28.844  22.772  24.648  0.00  0.00    +0.000 A 
ATOM      2  C   UNL     1      30.210  22.767  24.835  0.00  0.00    +0.000 A 
ATOM      3  C   UNL     1      30.770  22.790  26.109  0.00  0.00    +0.000 A 
ATOM      4  C   UNL     1      29.957  22.816  27.225  0.00  0.00    +0.000 A 
ATOM      5  C   UNL     1      30.185  22.842  28.590  0.00  0.00    +0.000 A 
ATOM      6  N   UNL     1      28.980  22.860  29.185  0.00  0.00    +0.000 NA
ATOM      7  N   UNL     1      28.040  22.846  28.249  0.00  0.00    +0.000 N 
ATOM      8  C   UNL     1      28.592  22.819  27.026  0.00  0.00    +0.000 A 
ATOM      9  C   UNL     1      28.025  22.798  25.757  0.00  0.00    +0.000 A 
ENDROOT
BRANCH   7  10
ATOM     10  C   UNL     1      26.624  22.860  28.542  0.00  0.00    +0.000 C 
ATOM     11  C   UNL     1      26.023  24.181  28.110  0.00  0.00    +0.000 C 
ATOM     12  C   UNL     1      26.444  25.151  29.199  0.00  0.00    +0.000 C 
ATOM     13  C   UNL     1      26.226  24.308  30.444  0.00  0.00    +0.000 C 
ATOM     14  C   UNL     1      26.391  22.878  30.035  0.00  0.00    +0.000 C 
ENDBRANCH   7  10
BRANCH   1  15
ATOM     15  N   UNL     1      28.283  22.748  23.339  0.00  0.00    +0.000 NA
BRANCH  15  19
ATOM     16  O   UNL     1      29.813  26.038  20.103  0.00  0.00    +0.000 OA
ATOM     17  C   UNL     1      29.164  25.470  21.008  0.00  0.00    +0.000 C 
ATOM     18  C   UNL     1      29.475  24.329  21.856  0.00  0.00    +0.000 C 
ATOM     19  C   UNL     1      28.409  23.847  22.443  0.00  0.00    +0.000 C 
ATOM     20  C   UNL     1      27.248  24.654  22.015  0.00  0.00    +0.000 C 
ATOM     21  C   UNL     1      27.794  25.916  21.429  0.00  0.00    +0.000 C 
ENDBRANCH  15  19
ENDBRANCH   1  15
TORSDOF 3
ENDMDL
MODEL 9
REMARK VINA RESULT:      -6.7     18.315     20.232
REMARK  Name = 
REMARK  3 active torsions:
REMARK  status: ('A' for Active; 'I' for Inactive)
REMARK    1  A    between atoms: C_4  and  N_5
REMARK    2  A    between atoms: N_5  and  C_6
REMARK    3  A    between atoms: N_12  and  C_13
REMARK                            x       y       z     vdW  Elec       q    Type
REMARK                         _______ _______ _______ _____ _____    ______ ____
ROOT
ATOM      1  C   UNL     1      26.664  23.481  25.091  0.00  0.00    +0.000 A 
ATOM      2  C   UNL     1      25.696  23.912  25.972  0.00  0.00    +0.000 A 
ATOM      3  C   UNL     1      25.880  23.836  27.350  0.00  0.00    +0.000 A 
ATOM      4  C   UNL     1      27.055  23.322  27.866  0.00  0.00    +0.000 A 
ATOM      5  C   UNL     1      27.541  23.113  29.144  0.00  0.00    +0.000 A 
ATOM      6  N   UNL     1      28.765  22.574  29.011  0.00  0.00    +0.000 NA
ATOM      7  N   UNL     1      29.039  22.449  27.719  0.00  0.00    +0.000 N 
ATOM      8  C   UNL     1      28.016  22.895  26.974  0.00  0.00    +0.000 A 
ATOM      9  C   UNL     1      27.839  22.967  25.597  0.00  0.00    +0.000 A 
ENDROOT
BRANCH   7  10
ATOM     10  C   UNL     1      30.280  21.901  27.218  0.00  0.00    +0.000 C 
ATOM     11  C   UNL     1      31.391  22.146  28.217  0.00  0.00    +0.000 C 
ATOM     12  C   UNL     1      31.746  23.608  28.023  0.00  0.00    +0.000 C 
ATOM     13  C   UNL     1      31.716  23.720  26.508  0.00  0.00    +0.000 C 
ATOM     14  C   UNL     1      30.757  22.682  26.015  0.00  0.00    +0.000 C 
ENDBRANCH   7  10
BRANCH   1  15
ATOM     15  N   UNL     1      26.463  23.564  23.682  0.00  0.00    +0.000 NA
BRANCH  15  19
ATOM     16  O   UNL     1      29.786  24.777  20.348  0.00  0.00    +0.000 OA
ATOM     17  C   UNL     1      29.027  24.813  21.340  0.00  0.00    +0.000 C 
ATOM     18  C   UNL     1      28.318  23.764  22.058  0.00  0.00    +0.000 C 
ATOM     19  C   UNL     1      27.374  24.245  22.827  0.00  0.00    +0.000 C 
ATOM     20  C   UNL     1      27.369  25.714  22.678  0.00  0.00    +0.000 C 
ATOM     21  C   UNL     1      28.673  26.088  22.048  0.00  0.00    +0.000 C 
ENDBRANCH  15  19
ENDBRANCH   1  15
TORSDOF 3
ENDMDL
MODEL 10
REMARK VINA RESULT:      -6.4      4.449      7.832
REMARK  Name = 
REMARK  3 active torsions:
REMARK  status: ('A' for Active; 'I' for Inactive)
REMARK    1  A    between atoms: C_4  and  N_5
REMARK    2  A    between atoms: N_5  and  C_6
REMARK    3  A    between atoms: N_12  and  C_13
REMARK                            x       y       z     vdW  Elec       q    Type
REMARK                         _______ _______ _______ _____ _____    ______ ____
ROOT
ATOM      1  C   UNL     1      16.999   9.383  40.254  0.00  0.00    +0.000 A 
ATOM      2  C   UNL     1      15.705   9.479  40.720  0.00  0.00    +0.000 A 
ATOM      3  C   UNL     1      14.709  10.111  39.980  0.00  0.00    +0.000 A 
ATOM      4  C   UNL     1      15.004  10.659  38.747  0.00  0.00    +0.000 A 
ATOM      5  C   UNL     1      14.270  11.335  37.788  0.00  0.00    +0.000 A 
ATOM      6  N   UNL     1      15.116  11.625  36.784  0.00  0.00    +0.000 NA
ATOM      7  N   UNL     1      16.319  11.159  37.091  0.00  0.00    +0.000 N 
ATOM      8  C   UNL     1      16.301  10.557  38.290  0.00  0.00    +0.000 A 
ATOM      9  C   UNL     1      17.300   9.928  39.024  0.00  0.00    +0.000 A 
ENDROOT
BRANCH   7  10
ATOM     10  C   UNL     1      17.472  11.299  36.229  0.00  0.00    +0.000 C 
ATOM     11  C   UNL     1      17.021  11.520  34.801  0.00  0.00    +0.000 C 
ATOM     12  C   UNL     1      16.606  10.140  34.327  0.00  0.00    +0.000 C 
ATOM     13  C   UNL     1      17.718   9.283  34.907  0.00  0.00    +0.000 C 
ATOM     14  C   UNL     1      18.220   9.990  36.127  0.00  0.00    +0.000 C 
ENDBRANCH   7  10
BRANCH   1  15
ATOM     15  N   UNL     1      18.008   8.734  41.021  0.00  0.00    +0.000 NA
BRANCH  15  19
ATOM     16  O   UNL     1      17.248   4.224  42.671  0.00  0.00    +0.000 OA
ATOM     17  C   UNL     1      17.747   5.210  42.086  0.00  0.00    +0.000 C 
ATOM     18  C   UNL     1      17.557   6.642  42.262  0.00  0.00    +0.000 C 
ATOM     19  C   UNL     1      18.004   7.327  41.241  0.00  0.00    +0.000 C 
ATOM     20  C   UNL     1      18.549   6.373  40.254  0.00  0.00    +0.000 C 
ATOM     21  C   UNL     1      18.744   5.076  40.972  0.00  0.00    +0.000 C 
ENDBRANCH  15  19
ENDBRANCH   1  15
TORSDOF 3
ENDMDL
