MODEL 1
REMARK VINA RESULT:      -6.5      0.000      0.000
REMARK  Name = 
REMARK  4 active torsions:
REMARK  status: ('A' for Active; 'I' for Inactive)
REMARK    1  A    between atoms: O_2  and  C_3
REMARK    2  A    between atoms: C_6  and  N_7
REMARK    3  A    between atoms: N_7  and  C_8
REMARK    4  A    between atoms: C_8  and  C_9
REMARK                            x       y       z     vdW  Elec       q    Type
REMARK                         _______ _______ _______ _____ _____    ______ ____
ROOT
ATOM      1  C   UNL     1      29.132  24.986  22.934  0.00  0.00    +0.000 C 
ATOM      2  C   UNL     1      29.599  26.316  23.486  0.00  0.00    +0.000 C 
ATOM      3  C   UNL     1      29.275  27.423  22.505  0.00  0.00    +0.000 C 
ATOM      4  C   UNL     1      27.891  27.226  21.873  0.00  0.00    +0.000 C 
ATOM      5  C   UNL     1      27.984  26.032  20.913  0.00  0.00    +0.000 C 
ATOM      6  C   UNL     1      29.024  25.146  21.469  0.00  0.00    +0.000 C 
ATOM      7  O   UNL     1      29.772  24.564  20.728  0.00  0.00    +0.000 OA
ENDROOT
BRANCH   1   8
ATOM      8  C   UNL     1      27.817  24.665  23.523  0.00  0.00    +0.000 A 
ATOM      9  C   UNL     1      27.062  23.657  22.981  0.00  0.00    +0.000 A 
ATOM     10  C   UNL     1      25.823  23.326  23.505  0.00  0.00    +0.000 A 
ATOM     11  C   UNL     1      25.329  24.003  24.579  0.00  0.00    +0.000 A 
ATOM     12  C   UNL     1      26.062  25.021  25.146  0.00  0.00    +0.000 A 
ATOM     13  C   UNL     1      27.315  25.344  24.604  0.00  0.00    +0.000 A 
ENDBRANCH   1   8
BRANCH   1  14
ATOM     14  N   UNL     1      30.017  23.909  23.270  0.00  0.00    +0.000 NA
BRANCH  14  18
ATOM     15  C   UNL     1      31.258  22.673  27.070  0.00  0.00    +0.000 A 
ATOM     16  C   UNL     1      30.172  22.136  26.446  0.00  0.00    +0.000 A 
ATOM     17  C   UNL     1      29.809  22.569  25.213  0.00  0.00    +0.000 A 
ATOM     18  C   UNL     1      30.505  23.567  24.525  0.00  0.00    +0.000 A 
ATOM     19  C   UNL     1      31.587  24.098  25.158  0.00  0.00    +0.000 A 
ATOM     20  C   UNL     1      31.980  23.675  26.412  0.00  0.00    +0.000 A 
BRANCH  15  22
ATOM     21  C   UNL     1      30.885  22.595  29.451  0.00  0.00    +0.000 C 
ATOM     22  O   UNL     1      31.614  22.223  28.319  0.00  0.00    +0.000 OA
ENDBRANCH  15  22
ENDBRANCH  14  18
ENDBRANCH   1  14
TORSDOF 4
ENDMDL
MODEL 2
REMARK VINA RESULT:      -6.2      2.886      4.402
REMARK  Name = 
REMARK  4 active torsions:
REMARK  status: ('A' for Active; 'I' for Inactive)
REMARK    1  A    between atoms: O_2  and  C_3
REMARK    2  A    between atoms: C_6  and  N_7
REMARK    3  A    between atoms: N_7  and  C_8
REMARK    4  A    between atoms: C_8  and  C_9
REMARK                            x       y       z     vdW  Elec       q    Type
REMARK                         _______ _______ _______ _____ _____    ______ ____
ROOT
ATOM      1  C   UNL     1      27.661  24.774  24.621  0.00  0.00    +0.000 C 
ATOM      2  C   UNL     1      26.736  23.613  24.327  0.00  0.00    +0.000 C 
ATOM      3  C   UNL     1      26.324  23.639  22.871  0.00  0.00    +0.000 C 
ATOM      4  C   UNL     1      27.502  24.012  21.962  0.00  0.00    +0.000 C 
ATOM      5  C   UNL     1      27.806  25.501  22.183  0.00  0.00    +0.000 C 
ATOM      6  C   UNL     1      27.418  25.790  23.576  0.00  0.00    +0.000 C 
ATOM      7  O   UNL     1      26.909  26.845  23.848  0.00  0.00    +0.000 OA
ENDROOT
BRANCH   1   8
ATOM      8  C   UNL     1      29.056  24.293  24.567  0.00  0.00    +0.000 A 
ATOM      9  C   UNL     1      29.305  22.945  24.554  0.00  0.00    +0.000 A 
ATOM     10  C   UNL     1      30.599  22.453  24.503  0.00  0.00    +0.000 A 
ATOM     11  C   UNL     1      31.657  23.310  24.465  0.00  0.00    +0.000 A 
ATOM     12  C   UNL     1      31.442  24.669  24.478  0.00  0.00    +0.000 A 
ATOM     13  C   UNL     1      30.125  25.151  24.529  0.00  0.00    +0.000 A 
ENDBRANCH   1   8
BRANCH   1  14
ATOM     14  N   UNL     1      27.457  25.324  25.930  0.00  0.00    +0.000 NA
BRANCH  14  18
ATOM     15  C   UNL     1      26.471  23.355  29.488  0.00  0.00    +0.000 A 
ATOM     16  C   UNL     1      25.563  24.084  28.780  0.00  0.00    +0.000 A 
ATOM     17  C   UNL     1      25.929  24.704  27.632  0.00  0.00    +0.000 A 
ATOM     18  C   UNL     1      27.227  24.638  27.116  0.00  0.00    +0.000 A 
ATOM     19  C   UNL     1      28.127  23.908  27.831  0.00  0.00    +0.000 A 
ATOM     20  C   UNL     1      27.780  23.265  29.002  0.00  0.00    +0.000 A 
BRANCH  15  22
ATOM     21  C   UNL     1      26.089  21.339  30.755  0.00  0.00    +0.000 C 
ATOM     22  O   UNL     1      26.083  22.731  30.650  0.00  0.00    +0.000 OA
ENDBRANCH  15  22
ENDBRANCH  14  18
ENDBRANCH   1  14
TORSDOF 4
ENDMDL
MODEL 3
REMARK VINA RESULT:      -6.2      2.598      6.183
REMARK  Name = 
REMARK  4 active torsions:
REMARK  status: ('A' for Active; 'I' for Inactive)
REMARK    1  A    between atoms: O_2  and  C_3
REMARK    2  A    between atoms: C_6  and  N_7
REMARK    3  A    between atoms: N_7  and  C_8
REMARK    4  A    between atoms: C_8  and  C_9
REMARK                            x       y       z     vdW  Elec       q    Type
REMARK                         _______ _______ _______ _____ _____    ______ ____
ROOT
ATOM      1  C   UNL     1      27.196  24.472  23.369  0.00  0.00    +0.000 C 
ATOM      2  C   UNL     1      26.638  25.717  24.023  0.00  0.00    +0.000 C 
ATOM      3  C   UNL     1      25.631  25.333  25.086  0.00  0.00    +0.000 C 
ATOM      4  C   UNL     1      26.099  24.113  25.888  0.00  0.00    +0.000 C 
ATOM      5  C   UNL     1      26.004  22.887  24.969  0.00  0.00    +0.000 C 
ATOM      6  C   UNL     1      26.215  23.392  23.599  0.00  0.00    +0.000 C 
ATOM      7  O   UNL     1      25.589  22.921  22.686  0.00  0.00    +0.000 OA
ENDROOT
BRANCH   1   8
ATOM      8  C   UNL     1      28.490  24.146  24.000  0.00  0.00    +0.000 A 
ATOM      9  C   UNL     1      29.163  25.114  24.700  0.00  0.00    +0.000 A 
ATOM     10  C   UNL     1      30.380  24.848  25.307  0.00  0.00    +0.000 A 
ATOM     11  C   UNL     1      30.933  23.607  25.218  0.00  0.00    +0.000 A 
ATOM     12  C   UNL     1      30.284  22.612  24.522  0.00  0.00    +0.000 A 
ATOM     13  C   UNL     1      29.053  22.898  23.913  0.00  0.00    +0.000 A 
ENDBRANCH   1   8
BRANCH   1  14
ATOM     14  N   UNL     1      27.445  24.650  21.968  0.00  0.00    +0.000 NA
BRANCH  14  18
ATOM     15  C   UNL     1      29.098  27.935  19.971  0.00  0.00    +0.000 A 
ATOM     16  C   UNL     1      29.779  26.768  20.147  0.00  0.00    +0.000 A 
ATOM     17  C   UNL     1      29.202  25.730  20.801  0.00  0.00    +0.000 A 
ATOM     18  C   UNL     1      27.906  25.791  21.322  0.00  0.00    +0.000 A 
ATOM     19  C   UNL     1      27.234  26.961  21.142  0.00  0.00    +0.000 A 
ATOM     20  C   UNL     1      27.798  28.032  20.479  0.00  0.00    +0.000 A 
BRANCH  15  22
ATOM     21  C   UNL     1      31.010  28.874  18.842  0.00  0.00    +0.000 C 
ATOM     22  O   UNL     1      29.697  28.978  19.305  0.00  0.00    +0.000 OA
ENDBRANCH  15  22
ENDBRANCH  14  18
ENDBRANCH   1  14
TORSDOF 4
ENDMDL
MODEL 4
REMARK VINA RESULT:      -6.1     13.385     16.020
REMARK  Name = 
REMARK  4 active torsions:
REMARK  status: ('A' for Active; 'I' for Inactive)
REMARK    1  A    between atoms: O_2  and  C_3
REMARK    2  A    between atoms: C_6  and  N_7
REMARK    3  A    between atoms: N_7  and  C_8
REMARK    4  A    between atoms: C_8  and  C_9
REMARK                            x       y       z     vdW  Elec       q    Type
REMARK                         _______ _______ _______ _____ _____    ______ ____
ROOT
ATOM      1  C   UNL     1      32.060  20.935   8.561  0.00  0.00    +0.000 C 
ATOM      2  C   UNL     1      32.454  22.382   8.768  0.00  0.00    +0.000 C 
ATOM      3  C   UNL     1      33.898  22.585   8.365  0.00  0.00    +0.000 C 
ATOM      4  C   UNL     1      34.239  21.807   7.088  0.00  0.00    +0.000 C 
ATOM      5  C   UNL     1      34.266  20.315   7.446  0.00  0.00    +0.000 C 
ATOM      6  C   UNL     1      33.311  20.148   8.557  0.00  0.00    +0.000 C 
ATOM      7  O   UNL     1      33.558  19.377   9.446  0.00  0.00    +0.000 OA
ENDROOT
BRANCH   1   8
ATOM      8  C   UNL     1      31.363  20.816   7.265  0.00  0.00    +0.000 A 
ATOM      9  C   UNL     1      31.004  19.576   6.802  0.00  0.00    +0.000 A 
ATOM     10  C   UNL     1      30.349  19.422   5.591  0.00  0.00    +0.000 A 
ATOM     11  C   UNL     1      30.047  20.512   4.832  0.00  0.00    +0.000 A 
ATOM     12  C   UNL     1      30.394  21.771   5.267  0.00  0.00    +0.000 A 
ATOM     13  C   UNL     1      31.057  21.909   6.496  0.00  0.00    +0.000 A 
ENDBRANCH   1   8
BRANCH   1  14
ATOM     14  N   UNL     1      31.157  20.460   9.569  0.00  0.00    +0.000 NA
BRANCH  14  18
ATOM     15  C   UNL     1      29.705  22.498  12.922  0.00  0.00    +0.000 A 
ATOM     16  C   UNL     1      29.020  22.447  11.745  0.00  0.00    +0.000 A 
ATOM     17  C   UNL     1      29.531  21.773  10.685  0.00  0.00    +0.000 A 
ATOM     18  C   UNL     1      30.760  21.108  10.732  0.00  0.00    +0.000 A 
ATOM     19  C   UNL     1      31.437  21.166  11.912  0.00  0.00    +0.000 A 
ATOM     20  C   UNL     1      30.939  21.844  13.006  0.00  0.00    +0.000 A 
BRANCH  15  22
ATOM     21  C   UNL     1      28.270  24.230  13.789  0.00  0.00    +0.000 C 
ATOM     22  O   UNL     1      29.173  23.185  13.988  0.00  0.00    +0.000 OA
ENDBRANCH  15  22
ENDBRANCH  14  18
ENDBRANCH   1  14
TORSDOF 4
ENDMDL
MODEL 5
REMARK VINA RESULT:      -5.9      3.281      4.596
REMARK  Name = 
REMARK  4 active torsions:
REMARK  status: ('A' for Active; 'I' for Inactive)
REMARK    1  A    between atoms: O_2  and  C_3
REMARK    2  A    between atoms: C_6  and  N_7
REMARK    3  A    between atoms: N_7  and  C_8
REMARK    4  A    between atoms: C_8  and  C_9
REMARK                            x       y       z     vdW  Elec       q    Type
REMARK                         _______ _______ _______ _____ _____    ______ ____
ROOT
ATOM      1  C   UNL     1      27.066  24.039  24.459  0.00  0.00    +0.000 C 
ATOM      2  C   UNL     1      28.378  23.341  24.750  0.00  0.00    +0.000 C 
ATOM      3  C   UNL     1      29.093  23.028  23.454  0.00  0.00    +0.000 C 
ATOM      4  C   UNL     1      28.973  24.185  22.453  0.00  0.00    +0.000 C 
ATOM      5  C   UNL     1      27.521  24.222  21.958  0.00  0.00    +0.000 C 
ATOM      6  C   UNL     1      26.702  23.700  23.068  0.00  0.00    +0.000 C 
ATOM      7  O   UNL     1      25.748  23.006  22.831  0.00  0.00    +0.000 OA
ENDROOT
BRANCH   1   8
ATOM      8  C   UNL     1      27.263  25.494  24.608  0.00  0.00    +0.000 A 
ATOM      9  C   UNL     1      26.331  26.358  24.093  0.00  0.00    +0.000 A 
ATOM     10  C   UNL     1      26.479  27.731  24.213  0.00  0.00    +0.000 A 
ATOM     11  C   UNL     1      27.564  28.250  24.851  0.00  0.00    +0.000 A 
ATOM     12  C   UNL     1      28.519  27.410  25.379  0.00  0.00    +0.000 A 
ATOM     13  C   UNL     1      28.354  26.023  25.249  0.00  0.00    +0.000 A 
ENDBRANCH   1   8
BRANCH   1  14
ATOM     14  N   UNL     1      26.026  23.660  25.370  0.00  0.00    +0.000 NA
BRANCH  14  18
ATOM     15  C   UNL     1      25.819  24.208  29.513  0.00  0.00    +0.000 A 
ATOM     16  C   UNL     1      25.092  24.959  28.640  0.00  0.00    +0.000 A 
ATOM     17  C   UNL     1      25.192  24.744  27.304  0.00  0.00    +0.000 A 
ATOM     18  C   UNL     1      26.026  23.766  26.755  0.00  0.00    +0.000 A 
ATOM     19  C   UNL     1      26.749  23.021  27.636  0.00  0.00    +0.000 A 
ATOM     20  C   UNL     1      26.665  23.218  29.000  0.00  0.00    +0.000 A 
BRANCH  15  22
ATOM     21  C   UNL     1      25.381  25.704  31.352  0.00  0.00    +0.000 C 
ATOM     22  O   UNL     1      25.706  24.437  30.864  0.00  0.00    +0.000 OA
ENDBRANCH  15  22
ENDBRANCH  14  18
ENDBRANCH   1  14
TORSDOF 4
ENDMDL
MODEL 6
REMARK VINA RESULT:      -5.9     33.843     35.885
REMARK  Name = 
REMARK  4 active torsions:
REMARK  status: ('A' for Active; 'I' for Inactive)
REMARK    1  A    between atoms: O_2  and  C_3
REMARK    2  A    between atoms: C_6  and  N_7
REMARK    3  A    between atoms: N_7  and  C_8
REMARK    4  A    between atoms: C_8  and  C_9
REMARK                            x       y       z     vdW  Elec       q    Type
REMARK                         _______ _______ _______ _____ _____    ______ ____
ROOT
ATOM      1  C   UNL     1      17.973  -9.169  26.897  0.00  0.00    +0.000 C 
ATOM      2  C   UNL     1      17.413  -9.235  28.302  0.00  0.00    +0.000 C 
ATOM      3  C   UNL     1      18.437  -9.840  29.237  0.00  0.00    +0.000 C 
ATOM      4  C   UNL     1      19.850  -9.328  28.929  0.00  0.00    +0.000 C 
ATOM      5  C   UNL     1      20.293  -9.955  27.600  0.00  0.00    +0.000 C 
ATOM      6  C   UNL     1      19.058 -10.169  26.823  0.00  0.00    +0.000 C 
ATOM      7  O   UNL     1      18.946 -11.152  26.139  0.00  0.00    +0.000 OA
ENDROOT
BRANCH   1   8
ATOM      8  C   UNL     1      18.498  -7.810  26.660  0.00  0.00    +0.000 A 
ATOM      9  C   UNL     1      17.920  -6.742  27.296  0.00  0.00    +0.000 A 
ATOM     10  C   UNL     1      18.383  -5.451  27.100  0.00  0.00    +0.000 A 
ATOM     11  C   UNL     1      19.433  -5.219  26.264  0.00  0.00    +0.000 A 
ATOM     12  C   UNL     1      20.036  -6.269  25.610  0.00  0.00    +0.000 A 
ATOM     13  C   UNL     1      19.555  -7.571  25.819  0.00  0.00    +0.000 A 
ENDBRANCH   1   8
BRANCH   1  14
ATOM     14  N   UNL     1      16.978  -9.416  25.895  0.00  0.00    +0.000 NA
BRANCH  14  18
ATOM     15  C   UNL     1      12.822  -9.582  26.355  0.00  0.00    +0.000 A 
ATOM     16  C   UNL     1      13.471  -8.442  25.985  0.00  0.00    +0.000 A 
ATOM     17  C   UNL     1      14.820  -8.437  25.848  0.00  0.00    +0.000 A 
ATOM     18  C   UNL     1      15.608  -9.570  26.074  0.00  0.00    +0.000 A 
ATOM     19  C   UNL     1      14.950 -10.703  26.443  0.00  0.00    +0.000 A 
ATOM     20  C   UNL     1      13.578 -10.736  26.589  0.00  0.00    +0.000 A 
BRANCH  15  22
ATOM     21  C   UNL     1      10.856  -9.572  27.751  0.00  0.00    +0.000 C 
ATOM     22  O   UNL     1      11.454  -9.571  26.489  0.00  0.00    +0.000 OA
ENDBRANCH  15  22
ENDBRANCH  14  18
ENDBRANCH   1  14
TORSDOF 4
ENDMDL
MODEL 7
REMARK VINA RESULT:      -5.9      2.530      4.246
REMARK  Name = 
REMARK  4 active torsions:
REMARK  status: ('A' for Active; 'I' for Inactive)
REMARK    1  A    between atoms: O_2  and  C_3
REMARK    2  A    between atoms: C_6  and  N_7
REMARK    3  A    between atoms: N_7  and  C_8
REMARK    4  A    between atoms: C_8  and  C_9
REMARK                            x       y       z     vdW  Elec       q    Type
REMARK                         _______ _______ _______ _____ _____    ______ ____
ROOT
ATOM      1  C   UNL     1      27.392  24.377  25.285  0.00  0.00    +0.000 C 
ATOM      2  C   UNL     1      26.555  23.147  25.006  0.00  0.00    +0.000 C 
ATOM      3  C   UNL     1      25.946  23.240  23.624  0.00  0.00    +0.000 C 
ATOM      4  C   UNL     1      26.944  23.813  22.609  0.00  0.00    +0.000 C 
ATOM      5  C   UNL     1      27.125  25.304  22.926  0.00  0.00    +0.000 C 
ATOM      6  C   UNL     1      26.906  25.438  24.378  0.00  0.00    +0.000 C 
ATOM      7  O   UNL     1      26.336  26.406  24.810  0.00  0.00    +0.000 OA
ENDROOT
BRANCH   1   8
ATOM      8  C   UNL     1      28.806  24.060  25.007  0.00  0.00    +0.000 A 
ATOM      9  C   UNL     1      29.208  22.750  24.957  0.00  0.00    +0.000 A 
ATOM     10  C   UNL     1      30.526  22.411  24.699  0.00  0.00    +0.000 A 
ATOM     11  C   UNL     1      31.455  23.384  24.489  0.00  0.00    +0.000 A 
ATOM     12  C   UNL     1      31.086  24.709  24.532  0.00  0.00    +0.000 A 
ATOM     13  C   UNL     1      29.746  25.035  24.795  0.00  0.00    +0.000 A 
ENDBRANCH   1   8
BRANCH   1  14
ATOM     14  N   UNL     1      27.316  24.796  26.654  0.00  0.00    +0.000 NA
BRANCH  14  18
ATOM     15  C   UNL     1      28.614  22.773  30.079  0.00  0.00    +0.000 A 
ATOM     16  C   UNL     1      29.355  23.748  29.482  0.00  0.00    +0.000 A 
ATOM     17  C   UNL     1      28.892  24.377  28.373  0.00  0.00    +0.000 A 
ATOM     18  C   UNL     1      27.660  24.070  27.788  0.00  0.00    +0.000 A 
ATOM     19  C   UNL     1      26.928  23.094  28.392  0.00  0.00    +0.000 A 
ATOM     20  C   UNL     1      27.375  22.439  29.522  0.00  0.00    +0.000 A 
BRANCH  15  22
ATOM     21  C   UNL     1      30.456  22.188  31.521  0.00  0.00    +0.000 C 
ATOM     22  O   UNL     1      29.097  22.146  31.203  0.00  0.00    +0.000 OA
ENDBRANCH  15  22
ENDBRANCH  14  18
ENDBRANCH   1  14
TORSDOF 4
ENDMDL
MODEL 8
REMARK VINA RESULT:      -5.9     12.516     15.366
REMARK  Name = 
REMARK  4 active torsions:
REMARK  status: ('A' for Active; 'I' for Inactive)
REMARK    1  A    between atoms: O_2  and  C_3
REMARK    2  A    between atoms: C_6  and  N_7
REMARK    3  A    between atoms: N_7  and  C_8
REMARK    4  A    between atoms: C_8  and  C_9
REMARK                            x       y       z     vdW  Elec       q    Type
REMARK                         _______ _______ _______ _____ _____    ______ ____
ROOT
ATOM      1  C   UNL     1      33.051  21.176  10.123  0.00  0.00    +0.000 C 
ATOM      2  C   UNL     1      33.357  22.630  10.415  0.00  0.00    +0.000 C 
ATOM      3  C   UNL     1      34.849  22.869  10.327  0.00  0.00    +0.000 C 
ATOM      4  C   UNL     1      35.470  22.111   9.147  0.00  0.00    +0.000 C 
ATOM      5  C   UNL     1      35.456  20.616   9.496  0.00  0.00    +0.000 C 
ATOM      6  C   UNL     1      34.292  20.418  10.380  0.00  0.00    +0.000 C 
ATOM      7  O   UNL     1      34.364  19.644  11.298  0.00  0.00    +0.000 OA
ENDROOT
BRANCH   1   8
ATOM      8  C   UNL     1      32.647  21.054   8.709  0.00  0.00    +0.000 A 
ATOM      9  C   UNL     1      32.191  22.159   8.038  0.00  0.00    +0.000 A 
ATOM     10  C   UNL     1      31.803  22.086   6.710  0.00  0.00    +0.000 A 
ATOM     11  C   UNL     1      31.868  20.901   6.041  0.00  0.00    +0.000 A 
ATOM     12  C   UNL     1      32.320  19.772   6.686  0.00  0.00    +0.000 A 
ATOM     13  C   UNL     1      32.710  19.863   8.031  0.00  0.00    +0.000 A 
ENDBRANCH   1   8
BRANCH   1  14
ATOM     14  N   UNL     1      31.967  20.672  10.915  0.00  0.00    +0.000 NA
BRANCH  14  18
ATOM     15  C   UNL     1      28.644  22.762  12.365  0.00  0.00    +0.000 A 
ATOM     16  C   UNL     1      28.642  22.134  11.156  0.00  0.00    +0.000 A 
ATOM     17  C   UNL     1      29.743  21.468  10.728  0.00  0.00    +0.000 A 
ATOM     18  C   UNL     1      30.919  21.388  11.480  0.00  0.00    +0.000 A 
ATOM     19  C   UNL     1      30.912  22.019  12.686  0.00  0.00    +0.000 A 
ATOM     20  C   UNL     1      29.804  22.703  13.146  0.00  0.00    +0.000 A 
BRANCH  15  22
ATOM     21  C   UNL     1      27.549  24.241  13.922  0.00  0.00    +0.000 C 
ATOM     22  O   UNL     1      27.520  23.432  12.784  0.00  0.00    +0.000 OA
ENDBRANCH  15  22
ENDBRANCH  14  18
ENDBRANCH   1  14
TORSDOF 4
ENDMDL
MODEL 9
REMARK VINA RESULT:      -5.8     28.720     31.510
REMARK  Name = 
REMARK  4 active torsions:
REMARK  status: ('A' for Active; 'I' for Inactive)
REMARK    1  A    between atoms: O_2  and  C_3
REMARK    2  A    between atoms: C_6  and  N_7
REMARK    3  A    between atoms: N_7  and  C_8
REMARK    4  A    between atoms: C_8  and  C_9
REMARK                            x       y       z     vdW  Elec       q    Type
REMARK                         _______ _______ _______ _____ _____    ______ ____
ROOT
ATOM      1  C   UNL     1      33.565  -6.435  31.235  0.00  0.00    +0.000 C 
ATOM      2  C   UNL     1      33.418  -5.212  30.354  0.00  0.00    +0.000 C 
ATOM      3  C   UNL     1      33.969  -5.501  28.975  0.00  0.00    +0.000 C 
ATOM      4  C   UNL     1      33.593  -6.912  28.505  0.00  0.00    +0.000 C 
ATOM      5  C   UNL     1      34.408  -7.911  29.337  0.00  0.00    +0.000 C 
ATOM      6  C   UNL     1      34.635  -7.262  30.641  0.00  0.00    +0.000 C 
ATOM      7  O   UNL     1      35.686  -7.410  31.207  0.00  0.00    +0.000 OA
ENDROOT
BRANCH   1   8
ATOM      8  C   UNL     1      32.283  -7.167  31.244  0.00  0.00    +0.000 A 
ATOM      9  C   UNL     1      32.256  -8.477  31.645  0.00  0.00    +0.000 A 
ATOM     10  C   UNL     1      31.073  -9.199  31.668  0.00  0.00    +0.000 A 
ATOM     11  C   UNL     1      29.905  -8.611  31.289  0.00  0.00    +0.000 A 
ATOM     12  C   UNL     1      29.897  -7.297  30.880  0.00  0.00    +0.000 A 
ATOM     13  C   UNL     1      31.103  -6.580  30.862  0.00  0.00    +0.000 A 
ENDBRANCH   1   8
BRANCH   1  14
ATOM     14  N   UNL     1      33.867  -6.101  32.596  0.00  0.00    +0.000 NA
BRANCH  14  18
ATOM     15  C   UNL     1      32.413  -2.830  34.763  0.00  0.00    +0.000 A 
ATOM     16  C   UNL     1      33.386  -2.705  33.817  0.00  0.00    +0.000 A 
ATOM     17  C   UNL     1      33.825  -3.795  33.140  0.00  0.00    +0.000 A 
ATOM     18  C   UNL     1      33.322  -5.080  33.365  0.00  0.00    +0.000 A 
ATOM     19  C   UNL     1      32.351  -5.194  34.312  0.00  0.00    +0.000 A 
ATOM     20  C   UNL     1      31.885  -4.101  35.015  0.00  0.00    +0.000 A 
BRANCH  15  22
ATOM     21  C   UNL     1      32.240  -0.433  34.956  0.00  0.00    +0.000 C 
ATOM     22  O   UNL     1      31.978  -1.716  35.441  0.00  0.00    +0.000 OA
ENDBRANCH  15  22
ENDBRANCH  14  18
ENDBRANCH   1  14
TORSDOF 4
ENDMDL
MODEL 10
REMARK VINA RESULT:      -5.8      3.052      4.537
REMARK  Name = 
REMARK  4 active torsions:
REMARK  status: ('A' for Active; 'I' for Inactive)
REMARK    1  A    between atoms: O_2  and  C_3
REMARK    2  A    between atoms: C_6  and  N_7
REMARK    3  A    between atoms: N_7  and  C_8
REMARK    4  A    between atoms: C_8  and  C_9
REMARK                            x       y       z     vdW  Elec       q    Type
REMARK                         _______ _______ _______ _____ _____    ______ ____
ROOT
ATOM      1  C   UNL     1      29.053  23.757  25.560  0.00  0.00    +0.000 C 
ATOM      2  C   UNL     1      29.541  24.983  26.303  0.00  0.00    +0.000 C 
ATOM      3  C   UNL     1      31.038  25.124  26.137  0.00  0.00    +0.000 C 
ATOM      4  C   UNL     1      31.478  24.792  24.705  0.00  0.00    +0.000 C 
ATOM      5  C   UNL     1      31.326  23.277  24.512  0.00  0.00    +0.000 C 
ATOM      6  C   UNL     1      30.220  22.865  25.396  0.00  0.00    +0.000 C 
ATOM      7  O   UNL     1      30.277  21.812  25.974  0.00  0.00    +0.000 OA
ENDROOT
BRANCH   1   8
ATOM      8  C   UNL     1      28.529  24.179  24.246  0.00  0.00    +0.000 A 
ATOM      9  C   UNL     1      28.470  23.272  23.220  0.00  0.00    +0.000 A 
ATOM     10  C   UNL     1      27.984  23.628  21.972  0.00  0.00    +0.000 A 
ATOM     11  C   UNL     1      27.551  24.899  21.743  0.00  0.00    +0.000 A 
ATOM     12  C   UNL     1      27.598  25.834  22.751  0.00  0.00    +0.000 A 
ATOM     13  C   UNL     1      28.093  25.457  24.009  0.00  0.00    +0.000 A 
ENDBRANCH   1   8
BRANCH   1  14
ATOM     14  N   UNL     1      27.986  23.087  26.244  0.00  0.00    +0.000 NA
BRANCH  14  18
ATOM     15  C   UNL     1      26.248  24.052  29.926  0.00  0.00    +0.000 A 
ATOM     16  C   UNL     1      25.723  24.467  28.739  0.00  0.00    +0.000 A 
ATOM     17  C   UNL     1      26.322  24.129  27.570  0.00  0.00    +0.000 A 
ATOM     18  C   UNL     1      27.484  23.355  27.512  0.00  0.00    +0.000 A 
ATOM     19  C   UNL     1      28.001  22.946  28.703  0.00  0.00    +0.000 A 
ATOM     20  C   UNL     1      27.412  23.275  29.906  0.00  0.00    +0.000 A 
BRANCH  15  22
ATOM     21  C   UNL     1      26.073  25.496  31.848  0.00  0.00    +0.000 C 
ATOM     22  O   UNL     1      25.629  24.403  31.102  0.00  0.00    +0.000 OA
ENDBRANCH  15  22
ENDBRANCH  14  18
ENDBRANCH   1  14
TORSDOF 4
ENDMDL
