MODEL 1
REMARK VINA RESULT:      -7.9      0.000      0.000
REMARK  Name = 
REMARK  4 active torsions:
REMARK  status: ('A' for Active; 'I' for Inactive)
REMARK    1  A    between atoms: C_2  and  O_5
REMARK    2  A    between atoms: O_5  and  C_6
REMARK    3  A    between atoms: N_8  and  N_9
REMARK    4  A    between atoms: N_9  and  C_10
REMARK                            x       y       z     vdW  Elec       q    Type
REMARK                         _______ _______ _______ _____ _____    ______ ____
ROOT
ATOM      1  C   UNL     1      14.307  12.770  35.524  0.00  0.00    +0.000 C 
ATOM      2  C   UNL     1      14.181  13.223  34.306  0.00  0.00    +0.000 C 
ATOM      3  C   UNL     1      13.448  14.461  34.078  0.00  0.00    +0.000 C 
ATOM      4  O   UNL     1      12.943  15.081  35.050  0.00  0.00    +0.000 OA
ATOM      5  C   UNL     1      13.331  14.929  32.703  0.00  0.00    +0.000 C 
ATOM      6  C   UNL     1      13.872  14.256  31.700  0.00  0.00    +0.000 C 
ATOM      7  C   UNL     1      14.617  13.003  31.916  0.00  0.00    +0.000 A 
ATOM      8  C   UNL     1      15.182  12.298  30.876  0.00  0.00    +0.000 A 
ATOM      9  C   UNL     1      15.883  11.118  31.074  0.00  0.00    +0.000 A 
ATOM     10  C   UNL     1      16.025  10.626  32.353  0.00  0.00    +0.000 A 
ATOM     11  C   UNL     1      15.473  11.307  33.418  0.00  0.00    +0.000 A 
ATOM     12  C   UNL     1      14.775  12.487  33.188  0.00  0.00    +0.000 A 
ENDROOT
BRANCH   1  13
ATOM     13  N   UNL     1      15.009  11.576  35.799  0.00  0.00    +0.000 NA
BRANCH  13  16
ATOM     14  C   UNL     1      16.770  10.550  37.197  0.00  0.00    +0.000 C 
ATOM     15  O   UNL     1      16.932   9.724  36.261  0.00  0.00    +0.000 OA
ATOM     16  N   UNL     1      15.760  11.552  37.000  0.00  0.00    +0.000 NA
BRANCH  14  17
ATOM     17  O   UNL     1      17.530  10.498  38.370  0.00  0.00    +0.000 OA
BRANCH  17  19
ATOM     18  C   UNL     1      19.045  12.246  37.921  0.00  0.00    +0.000 C 
ATOM     19  C   UNL     1      18.919  10.770  38.310  0.00  0.00    +0.000 C 
ATOM     20  C   UNL     1      19.615   9.889  37.295  0.00  0.00    +0.000 C 
ATOM     21  C   UNL     1      19.519  10.587  39.693  0.00  0.00    +0.000 C 
ENDBRANCH  17  19
ENDBRANCH  14  17
ENDBRANCH  13  16
ENDBRANCH   1  13
TORSDOF 4
ENDMDL
MODEL 2
REMARK VINA RESULT:      -6.6     21.241     23.444
REMARK  Name = 
REMARK  4 active torsions:
REMARK  status: ('A' for Active; 'I' for Inactive)
REMARK    1  A    between atoms: C_2  and  O_5
REMARK    2  A    between atoms: O_5  and  C_6
REMARK    3  A    between atoms: N_8  and  N_9
REMARK    4  A    between atoms: N_9  and  C_10
REMARK                            x       y       z     vdW  Elec       q    Type
REMARK                         _______ _______ _______ _____ _____    ______ ____
ROOT
ATOM      1  C   UNL     1      21.454  -8.966  25.741  0.00  0.00    +0.000 C 
ATOM      2  C   UNL     1      20.320  -8.854  26.379  0.00  0.00    +0.000 C 
ATOM      3  C   UNL     1      19.730 -10.036  26.995  0.00  0.00    +0.000 C 
ATOM      4  O   UNL     1      20.313 -11.148  26.907  0.00  0.00    +0.000 OA
ATOM      5  C   UNL     1      18.464  -9.867  27.697  0.00  0.00    +0.000 C 
ATOM      6  C   UNL     1      17.875  -8.685  27.772  0.00  0.00    +0.000 C 
ATOM      7  C   UNL     1      18.460  -7.482  27.156  0.00  0.00    +0.000 A 
ATOM      8  C   UNL     1      17.850  -6.249  27.231  0.00  0.00    +0.000 A 
ATOM      9  C   UNL     1      18.397  -5.114  26.652  0.00  0.00    +0.000 A 
ATOM     10  C   UNL     1      19.593  -5.213  25.975  0.00  0.00    +0.000 A 
ATOM     11  C   UNL     1      20.230  -6.432  25.879  0.00  0.00    +0.000 A 
ATOM     12  C   UNL     1      19.658  -7.552  26.471  0.00  0.00    +0.000 A 
ENDROOT
BRANCH   1  13
ATOM     13  N   UNL     1      22.068  -7.852  25.128  0.00  0.00    +0.000 NA
BRANCH  13  16
ATOM     14  C   UNL     1      24.127  -6.986  24.068  0.00  0.00    +0.000 C 
ATOM     15  O   UNL     1      23.406  -6.081  23.573  0.00  0.00    +0.000 OA
ATOM     16  N   UNL     1      23.463  -7.951  24.901  0.00  0.00    +0.000 NA
BRANCH  14  17
ATOM     17  O   UNL     1      25.503  -7.055  23.823  0.00  0.00    +0.000 OA
BRANCH  17  19
ATOM     18  C   UNL     1      27.258  -7.592  22.346  0.00  0.00    +0.000 C 
ATOM     19  C   UNL     1      26.019  -8.134  23.065  0.00  0.00    +0.000 C 
ATOM     20  C   UNL     1      25.004  -8.649  22.068  0.00  0.00    +0.000 C 
ATOM     21  C   UNL     1      26.460  -9.236  24.013  0.00  0.00    +0.000 C 
ENDBRANCH  17  19
ENDBRANCH  14  17
ENDBRANCH  13  16
ENDBRANCH   1  13
TORSDOF 4
ENDMDL
MODEL 3
REMARK VINA RESULT:      -6.5      3.631      7.913
REMARK  Name = 
REMARK  4 active torsions:
REMARK  status: ('A' for Active; 'I' for Inactive)
REMARK    1  A    between atoms: C_2  and  O_5
REMARK    2  A    between atoms: O_5  and  C_6
REMARK    3  A    between atoms: N_8  and  N_9
REMARK    4  A    between atoms: N_9  and  C_10
REMARK                            x       y       z     vdW  Elec       q    Type
REMARK                         _______ _______ _______ _____ _____    ______ ____
ROOT
ATOM      1  C   UNL     1      20.749  12.030  38.719  0.00  0.00    +0.000 C 
ATOM      2  C   UNL     1      21.979  12.291  38.369  0.00  0.00    +0.000 C 
ATOM      3  C   UNL     1      22.594  13.539  38.804  0.00  0.00    +0.000 C 
ATOM      4  O   UNL     1      21.938  14.350  39.509  0.00  0.00    +0.000 OA
ATOM      5  C   UNL     1      23.968  13.791  38.390  0.00  0.00    +0.000 C 
ATOM      6  C   UNL     1      24.632  12.920  37.649  0.00  0.00    +0.000 C 
ATOM      7  C   UNL     1      24.024  11.655  37.202  0.00  0.00    +0.000 A 
ATOM      8  C   UNL     1      24.710  10.744  36.429  0.00  0.00    +0.000 A 
ATOM      9  C   UNL     1      24.143   9.552  36.005  0.00  0.00    +0.000 A 
ATOM     10  C   UNL     1      22.845   9.260  36.366  0.00  0.00    +0.000 A 
ATOM     11  C   UNL     1      22.128  10.149  37.139  0.00  0.00    +0.000 A 
ATOM     12  C   UNL     1      22.725  11.336  37.548  0.00  0.00    +0.000 A 
ENDROOT
BRANCH   1  13
ATOM     13  N   UNL     1      20.107  10.835  38.324  0.00  0.00    +0.000 NA
BRANCH  13  16
ATOM     14  C   UNL     1      17.968  10.423  37.157  0.00  0.00    +0.000 C 
ATOM     15  O   UNL     1      18.658  10.042  36.176  0.00  0.00    +0.000 OA
ATOM     16  N   UNL     1      18.691  10.854  38.321  0.00  0.00    +0.000 NA
BRANCH  14  17
ATOM     17  O   UNL     1      16.569  10.430  37.121  0.00  0.00    +0.000 OA
BRANCH  17  19
ATOM     18  C   UNL     1      15.661  11.375  35.163  0.00  0.00    +0.000 C 
ATOM     19  C   UNL     1      15.893  11.587  36.662  0.00  0.00    +0.000 C 
ATOM     20  C   UNL     1      16.706  12.840  36.905  0.00  0.00    +0.000 C 
ATOM     21  C   UNL     1      14.541  11.672  37.347  0.00  0.00    +0.000 C 
ENDBRANCH  17  19
ENDBRANCH  14  17
ENDBRANCH  13  16
ENDBRANCH   1  13
TORSDOF 4
ENDMDL
MODEL 4
REMARK VINA RESULT:      -6.5     17.700     18.662
REMARK  Name = 
REMARK  4 active torsions:
REMARK  status: ('A' for Active; 'I' for Inactive)
REMARK    1  A    between atoms: C_2  and  O_5
REMARK    2  A    between atoms: O_5  and  C_6
REMARK    3  A    between atoms: N_8  and  N_9
REMARK    4  A    between atoms: N_9  and  C_10
REMARK                            x       y       z     vdW  Elec       q    Type
REMARK                         _______ _______ _______ _____ _____    ______ ____
ROOT
ATOM      1  C   UNL     1      28.868  22.390  27.851  0.00  0.00    +0.000 C 
ATOM      2  C   UNL     1      29.230  22.623  26.619  0.00  0.00    +0.000 C 
ATOM      3  C   UNL     1      30.648  22.637  26.283  0.00  0.00    +0.000 C 
ATOM      4  O   UNL     1      31.508  22.427  27.178  0.00  0.00    +0.000 OA
ATOM      5  C   UNL     1      31.007  22.902  24.896  0.00  0.00    +0.000 C 
ATOM      6  C   UNL     1      30.081  23.120  23.977  0.00  0.00    +0.000 C 
ATOM      7  C   UNL     1      28.644  23.108  24.302  0.00  0.00    +0.000 A 
ATOM      8  C   UNL     1      27.676  23.334  23.349  0.00  0.00    +0.000 A 
ATOM      9  C   UNL     1      26.322  23.325  23.649  0.00  0.00    +0.000 A 
ATOM     10  C   UNL     1      25.922  23.081  24.945  0.00  0.00    +0.000 A 
ATOM     11  C   UNL     1      26.865  22.850  25.924  0.00  0.00    +0.000 A 
ATOM     12  C   UNL     1      28.215  22.866  25.592  0.00  0.00    +0.000 A 
ENDROOT
BRANCH   1  13
ATOM     13  N   UNL     1      27.507  22.365  28.229  0.00  0.00    +0.000 NA
BRANCH  13  16
ATOM     14  C   UNL     1      26.176  23.727  29.804  0.00  0.00    +0.000 C 
ATOM     15  O   UNL     1      25.566  24.168  28.796  0.00  0.00    +0.000 OA
ATOM     16  N   UNL     1      27.217  22.768  29.556  0.00  0.00    +0.000 NA
BRANCH  14  17
ATOM     17  O   UNL     1      25.863  24.147  31.102  0.00  0.00    +0.000 OA
BRANCH  17  19
ATOM     18  C   UNL     1      24.648  26.152  31.336  0.00  0.00    +0.000 C 
ATOM     19  C   UNL     1      26.033  25.510  31.449  0.00  0.00    +0.000 C 
ATOM     20  C   UNL     1      27.019  26.200  30.532  0.00  0.00    +0.000 C 
ATOM     21  C   UNL     1      26.483  25.596  32.898  0.00  0.00    +0.000 C 
ENDBRANCH  17  19
ENDBRANCH  14  17
ENDBRANCH  13  16
ENDBRANCH   1  13
TORSDOF 4
ENDMDL
MODEL 5
REMARK VINA RESULT:      -6.3     21.420     23.485
REMARK  Name = 
REMARK  4 active torsions:
REMARK  status: ('A' for Active; 'I' for Inactive)
REMARK    1  A    between atoms: C_2  and  O_5
REMARK    2  A    between atoms: O_5  and  C_6
REMARK    3  A    between atoms: N_8  and  N_9
REMARK    4  A    between atoms: N_9  and  C_10
REMARK                            x       y       z     vdW  Elec       q    Type
REMARK                         _______ _______ _______ _____ _____    ______ ____
ROOT
ATOM      1  C   UNL     1      21.206  -6.850  25.366  0.00  0.00    +0.000 C 
ATOM      2  C   UNL     1      20.109  -7.009  26.057  0.00  0.00    +0.000 C 
ATOM      3  C   UNL     1      19.159  -5.907  26.148  0.00  0.00    +0.000 C 
ATOM      4  O   UNL     1      19.401  -4.819  25.564  0.00  0.00    +0.000 OA
ATOM      5  C   UNL     1      17.949  -6.126  26.930  0.00  0.00    +0.000 C 
ATOM      6  C   UNL     1      17.722  -7.282  27.533  0.00  0.00    +0.000 C 
ATOM      7  C   UNL     1      18.673  -8.403  27.449  0.00  0.00    +0.000 A 
ATOM      8  C   UNL     1      18.442  -9.609  28.076  0.00  0.00    +0.000 A 
ATOM      9  C   UNL     1      19.334 -10.667  28.001  0.00  0.00    +0.000 A 
ATOM     10  C   UNL     1      20.497 -10.518  27.276  0.00  0.00    +0.000 A 
ATOM     11  C   UNL     1      20.760  -9.325  26.636  0.00  0.00    +0.000 A 
ATOM     12  C   UNL     1      19.846  -8.282  26.730  0.00  0.00    +0.000 A 
ENDROOT
BRANCH   1  13
ATOM     13  N   UNL     1      22.159  -7.886  25.246  0.00  0.00    +0.000 NA
BRANCH  13  16
ATOM     14  C   UNL     1      23.821  -7.660  23.431  0.00  0.00    +0.000 C 
ATOM     15  O   UNL     1      22.948  -8.147  22.667  0.00  0.00    +0.000 OA
ATOM     16  N   UNL     1      23.451  -7.502  24.810  0.00  0.00    +0.000 NA
BRANCH  14  17
ATOM     17  O   UNL     1      25.089  -7.292  22.968  0.00  0.00    +0.000 OA
BRANCH  17  19
ATOM     18  C   UNL     1      27.348  -7.561  22.354  0.00  0.00    +0.000 C 
ATOM     19  C   UNL     1      26.055  -8.297  22.717  0.00  0.00    +0.000 C 
ATOM     20  C   UNL     1      25.626  -9.212  21.590  0.00  0.00    +0.000 C 
ATOM     21  C   UNL     1      26.294  -9.081  23.995  0.00  0.00    +0.000 C 
ENDBRANCH  17  19
ENDBRANCH  14  17
ENDBRANCH  13  16
ENDBRANCH   1  13
TORSDOF 4
ENDMDL
MODEL 6
REMARK VINA RESULT:      -6.3     17.581     18.446
REMARK  Name = 
REMARK  4 active torsions:
REMARK  status: ('A' for Active; 'I' for Inactive)
REMARK    1  A    between atoms: C_2  and  O_5
REMARK    2  A    between atoms: O_5  and  C_6
REMARK    3  A    between atoms: N_8  and  N_9
REMARK    4  A    between atoms: N_9  and  C_10
REMARK                            x       y       z     vdW  Elec       q    Type
REMARK                         _______ _______ _______ _____ _____    ______ ____
ROOT
ATOM      1  C   UNL     1      26.092  23.560  26.657  0.00  0.00    +0.000 C 
ATOM      2  C   UNL     1      26.927  23.421  25.663  0.00  0.00    +0.000 C 
ATOM      3  C   UNL     1      26.461  23.659  24.303  0.00  0.00    +0.000 C 
ATOM      4  O   UNL     1      25.265  23.994  24.098  0.00  0.00    +0.000 OA
ATOM      5  C   UNL     1      27.425  23.492  23.224  0.00  0.00    +0.000 C 
ATOM      6  C   UNL     1      28.676  23.139  23.470  0.00  0.00    +0.000 C 
ATOM      7  C   UNL     1      29.161  22.896  24.840  0.00  0.00    +0.000 A 
ATOM      8  C   UNL     1      30.462  22.527  25.102  0.00  0.00    +0.000 A 
ATOM      9  C   UNL     1      30.924  22.297  26.389  0.00  0.00    +0.000 A 
ATOM     10  C   UNL     1      30.056  22.438  27.450  0.00  0.00    +0.000 A 
ATOM     11  C   UNL     1      28.746  22.806  27.224  0.00  0.00    +0.000 A 
ATOM     12  C   UNL     1      28.313  23.030  25.922  0.00  0.00    +0.000 A 
ENDROOT
BRANCH   1  13
ATOM     13  N   UNL     1      26.493  23.342  27.994  0.00  0.00    +0.000 NA
BRANCH  13  16
ATOM     14  C   UNL     1      25.883  23.974  30.304  0.00  0.00    +0.000 C 
ATOM     15  O   UNL     1      26.036  22.760  30.601  0.00  0.00    +0.000 OA
ATOM     16  N   UNL     1      26.113  24.333  28.932  0.00  0.00    +0.000 NA
BRANCH  14  17
ATOM     17  O   UNL     1      25.507  24.928  31.257  0.00  0.00    +0.000 OA
BRANCH  17  19
ATOM     18  C   UNL     1      26.418  27.097  31.124  0.00  0.00    +0.000 C 
ATOM     19  C   UNL     1      26.500  25.748  31.845  0.00  0.00    +0.000 C 
ATOM     20  C   UNL     1      27.880  25.146  31.696  0.00  0.00    +0.000 C 
ATOM     21  C   UNL     1      26.156  25.967  33.308  0.00  0.00    +0.000 C 
ENDBRANCH  17  19
ENDBRANCH  14  17
ENDBRANCH  13  16
ENDBRANCH   1  13
TORSDOF 4
ENDMDL
MODEL 7
REMARK VINA RESULT:      -6.2      4.265      6.647
REMARK  Name = 
REMARK  4 active torsions:
REMARK  status: ('A' for Active; 'I' for Inactive)
REMARK    1  A    between atoms: C_2  and  O_5
REMARK    2  A    between atoms: O_5  and  C_6
REMARK    3  A    between atoms: N_8  and  N_9
REMARK    4  A    between atoms: N_9  and  C_10
REMARK                            x       y       z     vdW  Elec       q    Type
REMARK                         _______ _______ _______ _____ _____    ______ ____
ROOT
ATOM      1  C   UNL     1      18.295  10.600  37.213  0.00  0.00    +0.000 C 
ATOM      2  C   UNL     1      17.116  10.624  37.773  0.00  0.00    +0.000 C 
ATOM      3  C   UNL     1      16.005  11.253  37.068  0.00  0.00    +0.000 C 
ATOM      4  O   UNL     1      16.190  11.764  35.933  0.00  0.00    +0.000 OA
ATOM      5  C   UNL     1      14.707  11.258  37.730  0.00  0.00    +0.000 C 
ATOM      6  C   UNL     1      14.543  10.712  38.924  0.00  0.00    +0.000 C 
ATOM      7  C   UNL     1      15.656  10.073  39.647  0.00  0.00    +0.000 A 
ATOM      8  C   UNL     1      15.491   9.503  40.890  0.00  0.00    +0.000 A 
ATOM      9  C   UNL     1      16.535   8.901  41.575  0.00  0.00    +0.000 A 
ATOM     10  C   UNL     1      17.786   8.866  41.000  0.00  0.00    +0.000 A 
ATOM     11  C   UNL     1      17.987   9.427  39.756  0.00  0.00    +0.000 A 
ATOM     12  C   UNL     1      16.921  10.024  39.093  0.00  0.00    +0.000 A 
ENDROOT
BRANCH   1  13
ATOM     13  N   UNL     1      19.403  10.003  37.852  0.00  0.00    +0.000 NA
BRANCH  13  16
ATOM     14  C   UNL     1      21.830  10.132  38.306  0.00  0.00    +0.000 C 
ATOM     15  O   UNL     1      21.652   9.202  39.135  0.00  0.00    +0.000 OA
ATOM     16  N   UNL     1      20.666  10.593  37.600  0.00  0.00    +0.000 NA
BRANCH  14  17
ATOM     17  O   UNL     1      23.092  10.693  38.081  0.00  0.00    +0.000 OA
BRANCH  17  19
ATOM     18  C   UNL     1      24.658  11.127  36.376  0.00  0.00    +0.000 C 
ATOM     19  C   UNL     1      24.001  10.031  37.219  0.00  0.00    +0.000 C 
ATOM     20  C   UNL     1      23.297   9.025  36.335  0.00  0.00    +0.000 C 
ATOM     21  C   UNL     1      25.076   9.362  38.057  0.00  0.00    +0.000 C 
ENDBRANCH  17  19
ENDBRANCH  14  17
ENDBRANCH  13  16
ENDBRANCH   1  13
TORSDOF 4
ENDMDL
MODEL 8
REMARK VINA RESULT:      -6.2     20.746     22.550
REMARK  Name = 
REMARK  4 active torsions:
REMARK  status: ('A' for Active; 'I' for Inactive)
REMARK    1  A    between atoms: C_2  and  O_5
REMARK    2  A    between atoms: O_5  and  C_6
REMARK    3  A    between atoms: N_8  and  N_9
REMARK    4  A    between atoms: N_9  and  C_10
REMARK                            x       y       z     vdW  Elec       q    Type
REMARK                         _______ _______ _______ _____ _____    ______ ____
ROOT
ATOM      1  C   UNL     1      17.987  -8.693  27.198  0.00  0.00    +0.000 C 
ATOM      2  C   UNL     1      18.617  -7.640  26.753  0.00  0.00    +0.000 C 
ATOM      3  C   UNL     1      17.989  -6.331  26.873  0.00  0.00    +0.000 C 
ATOM      4  O   UNL     1      16.851  -6.226  27.401  0.00  0.00    +0.000 OA
ATOM      5  C   UNL     1      18.726  -5.182  26.362  0.00  0.00    +0.000 C 
ATOM      6  C   UNL     1      19.921  -5.324  25.811  0.00  0.00    +0.000 C 
ATOM      7  C   UNL     1      20.568  -6.641  25.684  0.00  0.00    +0.000 A 
ATOM      8  C   UNL     1      21.812  -6.794  25.111  0.00  0.00    +0.000 A 
ATOM      9  C   UNL     1      22.425  -8.031  24.988  0.00  0.00    +0.000 A 
ATOM     10  C   UNL     1      21.775  -9.154  25.453  0.00  0.00    +0.000 A 
ATOM     11  C   UNL     1      20.529  -9.037  26.032  0.00  0.00    +0.000 A 
ATOM     12  C   UNL     1      19.939  -7.783  26.141  0.00  0.00    +0.000 A 
ENDROOT
BRANCH   1  13
ATOM     13  N   UNL     1      18.552  -9.985  27.107  0.00  0.00    +0.000 NA
BRANCH  13  16
ATOM     14  C   UNL     1      19.120 -10.910  29.327  0.00  0.00    +0.000 C 
ATOM     15  O   UNL     1      20.106 -10.128  29.322  0.00  0.00    +0.000 OA
ATOM     16  N   UNL     1      18.265 -10.872  28.173  0.00  0.00    +0.000 NA
BRANCH  14  17
ATOM     17  O   UNL     1      18.866 -11.774  30.398  0.00  0.00    +0.000 OA
BRANCH  17  19
ATOM     18  C   UNL     1      16.735 -12.394  31.190  0.00  0.00    +0.000 C 
ATOM     19  C   UNL     1      17.897 -11.412  31.366  0.00  0.00    +0.000 C 
ATOM     20  C   UNL     1      17.426  -9.986  31.176  0.00  0.00    +0.000 C 
ATOM     21  C   UNL     1      18.486 -11.612  32.751  0.00  0.00    +0.000 C 
ENDBRANCH  17  19
ENDBRANCH  14  17
ENDBRANCH  13  16
ENDBRANCH   1  13
TORSDOF 4
ENDMDL
MODEL 9
REMARK VINA RESULT:      -6.1     17.983     19.391
REMARK  Name = 
REMARK  4 active torsions:
REMARK  status: ('A' for Active; 'I' for Inactive)
REMARK    1  A    between atoms: C_2  and  O_5
REMARK    2  A    between atoms: O_5  and  C_6
REMARK    3  A    between atoms: N_8  and  N_9
REMARK    4  A    between atoms: N_9  and  C_10
REMARK                            x       y       z     vdW  Elec       q    Type
REMARK                         _______ _______ _______ _____ _____    ______ ____
ROOT
ATOM      1  C   UNL     1      25.427  24.236  25.999  0.00  0.00    +0.000 C 
ATOM      2  C   UNL     1      25.267  24.650  27.227  0.00  0.00    +0.000 C 
ATOM      3  C   UNL     1      24.355  25.755  27.492  0.00  0.00    +0.000 C 
ATOM      4  O   UNL     1      23.733  26.298  26.543  0.00  0.00    +0.000 OA
ATOM      5  C   UNL     1      24.208  26.186  28.877  0.00  0.00    +0.000 C 
ATOM      6  C   UNL     1      24.876  25.596  29.854  0.00  0.00    +0.000 C 
ATOM      7  C   UNL     1      25.800  24.478  29.600  0.00  0.00    +0.000 A 
ATOM      8  C   UNL     1      26.499  23.859  30.614  0.00  0.00    +0.000 A 
ATOM      9  C   UNL     1      27.371  22.807  30.380  0.00  0.00    +0.000 A 
ATOM     10  C   UNL     1      27.552  22.357  29.090  0.00  0.00    +0.000 A 
ATOM     11  C   UNL     1      26.868  22.952  28.051  0.00  0.00    +0.000 A 
ATOM     12  C   UNL     1      26.001  24.006  28.317  0.00  0.00    +0.000 A 
ENDROOT
BRANCH   1  13
ATOM     13  N   UNL     1      26.298  23.168  25.688  0.00  0.00    +0.000 NA
BRANCH  13  16
ATOM     14  C   UNL     1      27.305  23.386  23.441  0.00  0.00    +0.000 C 
ATOM     15  O   UNL     1      26.195  23.010  22.985  0.00  0.00    +0.000 OA
ATOM     16  N   UNL     1      27.411  23.485  24.870  0.00  0.00    +0.000 NA
BRANCH  14  17
ATOM     17  O   UNL     1      28.385  23.691  22.605  0.00  0.00    +0.000 OA
BRANCH  17  19
ATOM     18  C   UNL     1      29.325  25.133  20.996  0.00  0.00    +0.000 C 
ATOM     19  C   UNL     1      28.753  25.045  22.414  0.00  0.00    +0.000 C 
ATOM     20  C   UNL     1      29.780  25.491  23.432  0.00  0.00    +0.000 C 
ATOM     21  C   UNL     1      27.506  25.909  22.481  0.00  0.00    +0.000 C 
ENDBRANCH  17  19
ENDBRANCH  14  17
ENDBRANCH  13  16
ENDBRANCH   1  13
TORSDOF 4
ENDMDL
MODEL 10
REMARK VINA RESULT:      -6.1     19.648     21.106
REMARK  Name = 
REMARK  4 active torsions:
REMARK  status: ('A' for Active; 'I' for Inactive)
REMARK    1  A    between atoms: C_2  and  O_5
REMARK    2  A    between atoms: O_5  and  C_6
REMARK    3  A    between atoms: N_8  and  N_9
REMARK    4  A    between atoms: N_9  and  C_10
REMARK                            x       y       z     vdW  Elec       q    Type
REMARK                         _______ _______ _______ _____ _____    ______ ____
ROOT
ATOM      1  C   UNL     1      26.521  23.827  24.537  0.00  0.00    +0.000 C 
ATOM      2  C   UNL     1      26.791  23.648  25.801  0.00  0.00    +0.000 C 
ATOM      3  C   UNL     1      25.796  24.016  26.801  0.00  0.00    +0.000 C 
ATOM      4  O   UNL     1      24.692  24.499  26.440  0.00  0.00    +0.000 OA
ATOM      5  C   UNL     1      26.139  23.800  28.201  0.00  0.00    +0.000 C 
ATOM      6  C   UNL     1      27.309  23.290  28.550  0.00  0.00    +0.000 C 
ATOM      7  C   UNL     1      28.324  22.914  27.550  0.00  0.00    +0.000 A 
ATOM      8  C   UNL     1      29.543  22.382  27.908  0.00  0.00    +0.000 A 
ATOM      9  C   UNL     1      30.502  22.027  26.972  0.00  0.00    +0.000 A 
ATOM     10  C   UNL     1      30.234  22.209  25.632  0.00  0.00    +0.000 A 
ATOM     11  C   UNL     1      29.023  22.738  25.238  0.00  0.00    +0.000 A 
ATOM     12  C   UNL     1      28.082  23.085  26.201  0.00  0.00    +0.000 A 
ENDROOT
BRANCH   1  13
ATOM     13  N   UNL     1      27.450  23.487  23.528  0.00  0.00    +0.000 NA
BRANCH  13  16
ATOM     14  C   UNL     1      28.828  24.633  21.826  0.00  0.00    +0.000 C 
ATOM     15  O   UNL     1      29.811  24.014  22.308  0.00  0.00    +0.000 OA
ATOM     16  N   UNL     1      27.552  24.388  22.440  0.00  0.00    +0.000 NA
BRANCH  14  17
ATOM     17  O   UNL     1      28.964  25.516  20.749  0.00  0.00    +0.000 OA
BRANCH  17  19
ATOM     18  C   UNL     1      29.310  27.205  22.355  0.00  0.00    +0.000 C 
ATOM     19  C   UNL     1      28.759  26.902  20.959  0.00  0.00    +0.000 C 
ATOM     20  C   UNL     1      27.293  27.267  20.872  0.00  0.00    +0.000 C 
ATOM     21  C   UNL     1      29.576  27.681  19.943  0.00  0.00    +0.000 C 
ENDBRANCH  17  19
ENDBRANCH  14  17
ENDBRANCH  13  16
ENDBRANCH   1  13
TORSDOF 4
ENDMDL
