MODEL 1
REMARK VINA RESULT:      -6.0      0.000      0.000
REMARK  Name = 
REMARK  2 active torsions:
REMARK  status: ('A' for Active; 'I' for Inactive)
REMARK    1  A    between atoms: C_5  and  C_6
REMARK    2  A    between atoms: C_13  and  O_14
REMARK                            x       y       z     vdW  Elec       q    Type
REMARK                         _______ _______ _______ _____ _____    ______ ____
ROOT
ATOM      1  C   UNL     1      19.598  -7.740  26.404  0.00  0.00    +0.000 A 
ATOM      2  C   UNL     1      19.296  -6.407  26.207  0.00  0.00    +0.000 A 
ATOM      3  C   UNL     1      18.054  -5.702  26.673  0.00  0.00    +0.000 C 
ATOM      4  N   UNL     1      20.280  -5.807  25.531  0.00  0.00    +0.000 NA
ATOM      5  C   UNL     1      21.212  -6.743  25.290  0.00  0.00    +0.000 A 
ATOM      6  C   UNL     1      22.426  -6.695  24.639  0.00  0.00    +0.000 A 
ATOM      7  C   UNL     1      23.222  -7.813  24.516  0.00  0.00    +0.000 A 
ATOM      8  C   UNL     1      22.817  -9.018  25.051  0.00  0.00    +0.000 A 
ATOM      9  C   UNL     1      21.606  -9.093  25.708  0.00  0.00    +0.000 A 
ATOM     10  C   UNL     1      20.812  -7.946  25.820  0.00  0.00    +0.000 A 
ENDROOT
BRANCH   1  15
ATOM     11  C   UNL     1      19.285  -9.744  31.192  0.00  0.00    +0.000 C 
ATOM     12  N   UNL     1      18.274 -10.343  30.352  0.00  0.00    +0.000 NA
ATOM     13  C   UNL     1      18.196  -9.918  28.982  0.00  0.00    +0.000 A 
ATOM     14  N   UNL     1      18.958  -9.022  28.378  0.00  0.00    +0.000 NA
ATOM     15  C   UNL     1      18.755  -8.747  27.115  0.00  0.00    +0.000 A 
ATOM     16  C   UNL     1      17.746  -9.417  26.479  0.00  0.00    +0.000 A 
ATOM     17  C   UNL     1      17.302  -9.293  25.041  0.00  0.00    +0.000 C 
ATOM     18  S   UNL     1      17.143 -10.405  27.731  0.00  0.00    +0.000 S 
ENDBRANCH   1  15
BRANCH   8  19
ATOM     19  O   UNL     1      23.610 -10.168  24.939  0.00  0.00    +0.000 OA
ATOM     20  C   UNL     1      24.081 -10.815  26.099  0.00  0.00    +0.000 C 
ENDBRANCH   8  19
TORSDOF 2
ENDMDL
MODEL 2
REMARK VINA RESULT:      -5.9     19.376     21.467
REMARK  Name = 
REMARK  2 active torsions:
REMARK  status: ('A' for Active; 'I' for Inactive)
REMARK    1  A    between atoms: C_5  and  C_6
REMARK    2  A    between atoms: C_13  and  O_14
REMARK                            x       y       z     vdW  Elec       q    Type
REMARK                         _______ _______ _______ _____ _____    ______ ____
ROOT
ATOM      1  C   UNL     1      17.873   8.004  40.302  0.00  0.00    +0.000 A 
ATOM      2  C   UNL     1      16.715   8.265  41.008  0.00  0.00    +0.000 A 
ATOM      3  C   UNL     1      15.901   9.527  40.940  0.00  0.00    +0.000 C 
ATOM      4  N   UNL     1      16.401   7.221  41.782  0.00  0.00    +0.000 NA
ATOM      5  C   UNL     1      17.349   6.291  41.580  0.00  0.00    +0.000 A 
ATOM      6  C   UNL     1      17.534   5.030  42.104  0.00  0.00    +0.000 A 
ATOM      7  C   UNL     1      18.606   4.247  41.736  0.00  0.00    +0.000 A 
ATOM      8  C   UNL     1      19.527   4.713  40.821  0.00  0.00    +0.000 A 
ATOM      9  C   UNL     1      19.364   5.973  40.280  0.00  0.00    +0.000 A 
ATOM     10  C   UNL     1      18.268   6.752  40.670  0.00  0.00    +0.000 A 
ENDROOT
BRANCH   1  15
ATOM     11  C   UNL     1      17.762   8.870  35.177  0.00  0.00    +0.000 C 
ATOM     12  N   UNL     1      18.708   9.768  35.797  0.00  0.00    +0.000 NA
ATOM     13  C   UNL     1      18.885   9.685  37.219  0.00  0.00    +0.000 A 
ATOM     14  N   UNL     1      18.271   8.864  38.055  0.00  0.00    +0.000 NA
ATOM     15  C   UNL     1      18.549   8.917  39.333  0.00  0.00    +0.000 A 
ATOM     16  C   UNL     1      19.476   9.836  39.739  0.00  0.00    +0.000 A 
ATOM     17  C   UNL     1      19.976  10.105  41.138  0.00  0.00    +0.000 C 
ATOM     18  S   UNL     1      19.900  10.576  38.262  0.00  0.00    +0.000 S 
ENDBRANCH   1  15
BRANCH   8  19
ATOM     19  O   UNL     1      20.625   3.935  40.430  0.00  0.00    +0.000 OA
ATOM     20  C   UNL     1      20.610   2.541  40.639  0.00  0.00    +0.000 C 
ENDBRANCH   8  19
TORSDOF 2
ENDMDL
MODEL 3
REMARK VINA RESULT:      -5.7     31.626     33.356
REMARK  Name = 
REMARK  2 active torsions:
REMARK  status: ('A' for Active; 'I' for Inactive)
REMARK    1  A    between atoms: C_5  and  C_6
REMARK    2  A    between atoms: C_13  and  O_14
REMARK                            x       y       z     vdW  Elec       q    Type
REMARK                         _______ _______ _______ _____ _____    ______ ____
ROOT
ATOM      1  C   UNL     1      27.710  23.686  25.997  0.00  0.00    +0.000 A 
ATOM      2  C   UNL     1      27.140  23.301  24.800  0.00  0.00    +0.000 A 
ATOM      3  C   UNL     1      25.669  23.211  24.508  0.00  0.00    +0.000 C 
ATOM      4  N   UNL     1      28.092  23.013  23.907  0.00  0.00    +0.000 NA
ATOM      5  C   UNL     1      29.271  23.208  24.522  0.00  0.00    +0.000 A 
ATOM      6  C   UNL     1      30.572  23.067  24.092  0.00  0.00    +0.000 A 
ATOM      7  C   UNL     1      31.638  23.332  24.924  0.00  0.00    +0.000 A 
ATOM      8  C   UNL     1      31.422  23.749  26.221  0.00  0.00    +0.000 A 
ATOM      9  C   UNL     1      30.127  23.898  26.676  0.00  0.00    +0.000 A 
ATOM     10  C   UNL     1      29.060  23.623  25.814  0.00  0.00    +0.000 A 
ENDROOT
BRANCH   1  15
ATOM     11  C   UNL     1      26.406  21.481  30.522  0.00  0.00    +0.000 C 
ATOM     12  N   UNL     1      25.923  22.842  30.492  0.00  0.00    +0.000 NA
ATOM     13  C   UNL     1      26.184  23.626  29.318  0.00  0.00    +0.000 A 
ATOM     14  N   UNL     1      26.831  23.244  28.229  0.00  0.00    +0.000 NA
ATOM     15  C   UNL     1      26.985  24.086  27.240  0.00  0.00    +0.000 A 
ATOM     16  C   UNL     1      26.457  25.339  27.391  0.00  0.00    +0.000 A 
ATOM     17  C   UNL     1      26.491  26.492  26.417  0.00  0.00    +0.000 C 
ATOM     18  S   UNL     1      25.768  25.238  28.948  0.00  0.00    +0.000 S 
ENDBRANCH   1  15
BRANCH   8  19
ATOM     19  O   UNL     1      32.490  24.024  27.085  0.00  0.00    +0.000 OA
ATOM     20  C   UNL     1      32.482  23.514  28.400  0.00  0.00    +0.000 C 
ENDBRANCH   8  19
TORSDOF 2
ENDMDL
MODEL 4
REMARK VINA RESULT:      -5.3     33.459     35.748
REMARK  Name = 
REMARK  2 active torsions:
REMARK  status: ('A' for Active; 'I' for Inactive)
REMARK    1  A    between atoms: C_5  and  C_6
REMARK    2  A    between atoms: C_13  and  O_14
REMARK                            x       y       z     vdW  Elec       q    Type
REMARK                         _______ _______ _______ _____ _____    ______ ____
ROOT
ATOM      1  C   UNL     1      28.737  24.929  22.609  0.00  0.00    +0.000 A 
ATOM      2  C   UNL     1      27.820  23.907  22.465  0.00  0.00    +0.000 A 
ATOM      3  C   UNL     1      26.556  23.958  21.652  0.00  0.00    +0.000 C 
ATOM      4  N   UNL     1      28.210  22.835  23.161  0.00  0.00    +0.000 NA
ATOM      5  C   UNL     1      29.372  23.159  23.752  0.00  0.00    +0.000 A 
ATOM      6  C   UNL     1      30.218  22.453  24.579  0.00  0.00    +0.000 A 
ATOM      7  C   UNL     1      31.378  23.012  25.071  0.00  0.00    +0.000 A 
ATOM      8  C   UNL     1      31.721  24.307  24.740  0.00  0.00    +0.000 A 
ATOM      9  C   UNL     1      30.890  25.036  23.913  0.00  0.00    +0.000 A 
ATOM     10  C   UNL     1      29.717  24.448  23.426  0.00  0.00    +0.000 A 
ENDROOT
BRANCH   1  15
ATOM     11  C   UNL     1      30.524  27.263  18.321  0.00  0.00    +0.000 C 
ATOM     12  N   UNL     1      29.754  28.206  19.097  0.00  0.00    +0.000 NA
ATOM     13  C   UNL     1      29.170  27.751  20.328  0.00  0.00    +0.000 A 
ATOM     14  N   UNL     1      29.255  26.540  20.853  0.00  0.00    +0.000 NA
ATOM     15  C   UNL     1      28.661  26.286  21.990  0.00  0.00    +0.000 A 
ATOM     16  C   UNL     1      27.973  27.308  22.584  0.00  0.00    +0.000 A 
ATOM     17  C   UNL     1      27.206  27.288  23.885  0.00  0.00    +0.000 C 
ATOM     18  S   UNL     1      28.217  28.580  21.474  0.00  0.00    +0.000 S 
ENDBRANCH   1  15
BRANCH   8  19
ATOM     19  O   UNL     1      32.894  24.897  25.228  0.00  0.00    +0.000 OA
ATOM     20  C   UNL     1      34.148  24.487  24.732  0.00  0.00    +0.000 C 
ENDBRANCH   8  19
TORSDOF 2
ENDMDL
MODEL 5
REMARK VINA RESULT:      -5.3     32.549     34.367
REMARK  Name = 
REMARK  2 active torsions:
REMARK  status: ('A' for Active; 'I' for Inactive)
REMARK    1  A    between atoms: C_5  and  C_6
REMARK    2  A    between atoms: C_13  and  O_14
REMARK                            x       y       z     vdW  Elec       q    Type
REMARK                         _______ _______ _______ _____ _____    ______ ____
ROOT
ATOM      1  C   UNL     1      28.045  23.993  25.965  0.00  0.00    +0.000 A 
ATOM      2  C   UNL     1      26.815  23.639  26.483  0.00  0.00    +0.000 A 
ATOM      3  C   UNL     1      26.457  23.554  27.940  0.00  0.00    +0.000 C 
ATOM      4  N   UNL     1      25.957  23.375  25.493  0.00  0.00    +0.000 NA
ATOM      5  C   UNL     1      26.626  23.556  24.342  0.00  0.00    +0.000 A 
ATOM      6  C   UNL     1      26.249  23.428  23.023  0.00  0.00    +0.000 A 
ATOM      7  C   UNL     1      27.133  23.672  21.994  0.00  0.00    +0.000 A 
ATOM      8  C   UNL     1      28.430  24.056  22.267  0.00  0.00    +0.000 A 
ATOM      9  C   UNL     1      28.832  24.191  23.580  0.00  0.00    +0.000 A 
ATOM     10  C   UNL     1      27.918  23.937  24.609  0.00  0.00    +0.000 A 
ENDROOT
BRANCH   1  15
ATOM     11  C   UNL     1      30.199  28.337  27.842  0.00  0.00    +0.000 C 
ATOM     12  N   UNL     1      31.026  27.204  28.182  0.00  0.00    +0.000 NA
ATOM     13  C   UNL     1      30.599  25.902  27.751  0.00  0.00    +0.000 A 
ATOM     14  N   UNL     1      29.511  25.606  27.060  0.00  0.00    +0.000 NA
ATOM     15  C   UNL     1      29.265  24.360  26.745  0.00  0.00    +0.000 A 
ATOM     16  C   UNL     1      30.166  23.417  27.155  0.00  0.00    +0.000 A 
ATOM     17  C   UNL     1      30.127  21.924  26.928  0.00  0.00    +0.000 C 
ATOM     18  S   UNL     1      31.318  24.372  27.973  0.00  0.00    +0.000 S 
ENDBRANCH   1  15
BRANCH   8  19
ATOM     19  O   UNL     1      29.346  24.309  21.238  0.00  0.00    +0.000 OA
ATOM     20  C   UNL     1      29.436  25.600  20.676  0.00  0.00    +0.000 C 
ENDBRANCH   8  19
TORSDOF 2
ENDMDL
MODEL 6
REMARK VINA RESULT:      -5.3     21.756     23.578
REMARK  Name = 
REMARK  2 active torsions:
REMARK  status: ('A' for Active; 'I' for Inactive)
REMARK    1  A    between atoms: C_5  and  C_6
REMARK    2  A    between atoms: C_13  and  O_14
REMARK                            x       y       z     vdW  Elec       q    Type
REMARK                         _______ _______ _______ _____ _____    ______ ____
ROOT
ATOM      1  C   UNL     1      22.583  10.873  37.711  0.00  0.00    +0.000 A 
ATOM      2  C   UNL     1      23.622  10.294  37.011  0.00  0.00    +0.000 A 
ATOM      3  C   UNL     1      23.650   8.894  36.464  0.00  0.00    +0.000 C 
ATOM      4  N   UNL     1      24.629  11.162  36.878  0.00  0.00    +0.000 NA
ATOM      5  C   UNL     1      24.246  12.296  37.487  0.00  0.00    +0.000 A 
ATOM      6  C   UNL     1      24.872  13.511  37.661  0.00  0.00    +0.000 A 
ATOM      7  C   UNL     1      24.264  14.546  38.338  0.00  0.00    +0.000 A 
ATOM      8  C   UNL     1      22.997  14.386  38.861  0.00  0.00    +0.000 A 
ATOM      9  C   UNL     1      22.348  13.179  38.700  0.00  0.00    +0.000 A 
ATOM     10  C   UNL     1      22.985  12.141  38.010  0.00  0.00    +0.000 A 
ENDROOT
BRANCH   1  15
ATOM     11  C   UNL     1      18.069   9.851  35.342  0.00  0.00    +0.000 C 
ATOM     12  N   UNL     1      18.017   9.374  36.704  0.00  0.00    +0.000 NA
ATOM     13  C   UNL     1      19.176   9.562  37.530  0.00  0.00    +0.000 A 
ATOM     14  N   UNL     1      20.317  10.137  37.188  0.00  0.00    +0.000 NA
ATOM     15  C   UNL     1      21.282  10.231  38.067  0.00  0.00    +0.000 A 
ATOM     16  C   UNL     1      21.050   9.720  39.314  0.00  0.00    +0.000 A 
ATOM     17  C   UNL     1      21.981   9.696  40.503  0.00  0.00    +0.000 C 
ATOM     18  S   UNL     1      19.458   9.131  39.156  0.00  0.00    +0.000 S 
ENDBRANCH   1  15
BRANCH   8  19
ATOM     19  O   UNL     1      22.359  15.423  39.552  0.00  0.00    +0.000 OA
ATOM     20  C   UNL     1      21.967  16.592  38.866  0.00  0.00    +0.000 C 
ENDBRANCH   8  19
TORSDOF 2
ENDMDL
MODEL 7
REMARK VINA RESULT:      -5.3      3.361      5.443
REMARK  Name = 
REMARK  2 active torsions:
REMARK  status: ('A' for Active; 'I' for Inactive)
REMARK    1  A    between atoms: C_5  and  C_6
REMARK    2  A    between atoms: C_13  and  O_14
REMARK                            x       y       z     vdW  Elec       q    Type
REMARK                         _______ _______ _______ _____ _____    ______ ____
ROOT
ATOM      1  C   UNL     1      21.055  -8.307  25.103  0.00  0.00    +0.000 A 
ATOM      2  C   UNL     1      22.100  -7.453  24.812  0.00  0.00    +0.000 A 
ATOM      3  C   UNL     1      23.430  -7.846  24.231  0.00  0.00    +0.000 C 
ATOM      4  N   UNL     1      21.769  -6.196  25.121  0.00  0.00    +0.000 NA
ATOM      5  C   UNL     1      20.518  -6.235  25.610  0.00  0.00    +0.000 A 
ATOM      6  C   UNL     1      19.678  -5.250  26.082  0.00  0.00    +0.000 A 
ATOM      7  C   UNL     1      18.412  -5.541  26.541  0.00  0.00    +0.000 A 
ATOM      8  C   UNL     1      17.953  -6.842  26.537  0.00  0.00    +0.000 A 
ATOM      9  C   UNL     1      18.775  -7.848  26.070  0.00  0.00    +0.000 A 
ATOM     10  C   UNL     1      20.057  -7.529  25.608  0.00  0.00    +0.000 A 
ENDROOT
BRANCH   1  15
ATOM     11  C   UNL     1      19.524 -11.623  21.402  0.00  0.00    +0.000 C 
ATOM     12  N   UNL     1      20.067 -12.363  22.517  0.00  0.00    +0.000 NA
ATOM     13  C   UNL     1      20.549 -11.622  23.649  0.00  0.00    +0.000 A 
ATOM     14  N   UNL     1      20.556 -10.308  23.801  0.00  0.00    +0.000 NA
ATOM     15  C   UNL     1      21.033  -9.787  24.902  0.00  0.00    +0.000 A 
ATOM     16  C   UNL     1      21.507 -10.649  25.852  0.00  0.00    +0.000 A 
ATOM     17  C   UNL     1      22.106 -10.318  27.199  0.00  0.00    +0.000 C 
ATOM     18  S   UNL     1      21.241 -12.161  25.112  0.00  0.00    +0.000 S 
ENDBRANCH   1  15
BRANCH   8  19
ATOM     19  O   UNL     1      16.670  -7.163  27.000  0.00  0.00    +0.000 OA
ATOM     20  C   UNL     1      15.863  -8.062  26.273  0.00  0.00    +0.000 C 
ENDBRANCH   8  19
TORSDOF 2
ENDMDL
MODEL 8
REMARK VINA RESULT:      -5.2     14.779     16.596
REMARK  Name = 
REMARK  2 active torsions:
REMARK  status: ('A' for Active; 'I' for Inactive)
REMARK    1  A    between atoms: C_5  and  C_6
REMARK    2  A    between atoms: C_13  and  O_14
REMARK                            x       y       z     vdW  Elec       q    Type
REMARK                         _______ _______ _______ _____ _____    ______ ____
ROOT
ATOM      1  C   UNL     1      33.946  -4.629  34.050  0.00  0.00    +0.000 A 
ATOM      2  C   UNL     1      34.908  -5.216  34.848  0.00  0.00    +0.000 A 
ATOM      3  C   UNL     1      35.258  -6.677  34.884  0.00  0.00    +0.000 C 
ATOM      4  N   UNL     1      35.508  -4.291  35.604  0.00  0.00    +0.000 NA
ATOM      5  C   UNL     1      34.938  -3.113  35.300  0.00  0.00    +0.000 A 
ATOM      6  C   UNL     1      35.153  -1.834  35.763  0.00  0.00    +0.000 A 
ATOM      7  C   UNL     1      34.426  -0.764  35.290  0.00  0.00    +0.000 A 
ATOM      8  C   UNL     1      33.455  -0.952  34.328  0.00  0.00    +0.000 A 
ATOM      9  C   UNL     1      33.220  -2.225  33.847  0.00  0.00    +0.000 A 
ATOM     10  C   UNL     1      33.970  -3.298  34.343  0.00  0.00    +0.000 A 
ENDROOT
BRANCH   1  15
ATOM     11  C   UNL     1      34.000  -5.689  28.961  0.00  0.00    +0.000 C 
ATOM     12  N   UNL     1      32.794  -6.220  29.550  0.00  0.00    +0.000 NA
ATOM     13  C   UNL     1      32.591  -6.031  30.959  0.00  0.00    +0.000 A 
ATOM     14  N   UNL     1      33.394  -5.410  31.807  0.00  0.00    +0.000 NA
ATOM     15  C   UNL     1      33.060  -5.323  33.068  0.00  0.00    +0.000 A 
ATOM     16  C   UNL     1      31.874  -5.889  33.446  0.00  0.00    +0.000 A 
ATOM     17  C   UNL     1      31.254  -5.932  34.823  0.00  0.00    +0.000 C 
ATOM     18  S   UNL     1      31.303  -6.517  31.967  0.00  0.00    +0.000 S 
ENDBRANCH   1  15
BRANCH   8  19
ATOM     19  O   UNL     1      32.704   0.120  33.831  0.00  0.00    +0.000 OA
ATOM     20  C   UNL     1      33.304   1.385  33.666  0.00  0.00    +0.000 C 
ENDBRANCH   8  19
TORSDOF 2
ENDMDL
MODEL 9
REMARK VINA RESULT:      -5.2     31.877     33.832
REMARK  Name = 
REMARK  2 active torsions:
REMARK  status: ('A' for Active; 'I' for Inactive)
REMARK    1  A    between atoms: C_5  and  C_6
REMARK    2  A    between atoms: C_13  and  O_14
REMARK                            x       y       z     vdW  Elec       q    Type
REMARK                         _______ _______ _______ _____ _____    ______ ____
ROOT
ATOM      1  C   UNL     1      28.812  24.588  26.931  0.00  0.00    +0.000 A 
ATOM      2  C   UNL     1      30.157  24.839  27.118  0.00  0.00    +0.000 A 
ATOM      3  C   UNL     1      30.803  25.298  28.395  0.00  0.00    +0.000 C 
ATOM      4  N   UNL     1      30.830  24.613  25.986  0.00  0.00    +0.000 NA
ATOM      5  C   UNL     1      29.929  24.220  25.072  0.00  0.00    +0.000 A 
ATOM      6  C   UNL     1      30.052  23.859  23.748  0.00  0.00    +0.000 A 
ATOM      7  C   UNL     1      28.958  23.485  22.998  0.00  0.00    +0.000 A 
ATOM      8  C   UNL     1      27.700  23.463  23.565  0.00  0.00    +0.000 A 
ATOM      9  C   UNL     1      27.550  23.820  24.890  0.00  0.00    +0.000 A 
ATOM     10  C   UNL     1      28.675  24.197  25.632  0.00  0.00    +0.000 A 
ENDROOT
BRANCH   1  15
ATOM     11  C   UNL     1      26.519  21.546  30.469  0.00  0.00    +0.000 C 
ATOM     12  N   UNL     1      25.930  22.863  30.513  0.00  0.00    +0.000 NA
ATOM     13  C   UNL     1      26.430  23.857  29.605  0.00  0.00    +0.000 A 
ATOM     14  N   UNL     1      27.391  23.710  28.708  0.00  0.00    +0.000 NA
ATOM     15  C   UNL     1      27.731  24.722  27.953  0.00  0.00    +0.000 A 
ATOM     16  C   UNL     1      27.059  25.899  28.137  0.00  0.00    +0.000 A 
ATOM     17  C   UNL     1      27.249  27.209  27.409  0.00  0.00    +0.000 C 
ATOM     18  S   UNL     1      25.975  25.487  29.387  0.00  0.00    +0.000 S 
ENDBRANCH   1  15
BRANCH   8  19
ATOM     19  O   UNL     1      26.573  23.087  22.823  0.00  0.00    +0.000 OA
ATOM     20  C   UNL     1      25.299  23.086  23.427  0.00  0.00    +0.000 C 
ENDBRANCH   8  19
TORSDOF 2
ENDMDL
MODEL 10
REMARK VINA RESULT:      -5.1     14.164     16.960
REMARK  Name = 
REMARK  2 active torsions:
REMARK  status: ('A' for Active; 'I' for Inactive)
REMARK    1  A    between atoms: C_5  and  C_6
REMARK    2  A    between atoms: C_13  and  O_14
REMARK                            x       y       z     vdW  Elec       q    Type
REMARK                         _______ _______ _______ _____ _____    ______ ____
ROOT
ATOM      1  C   UNL     1      25.583   2.770  16.755  0.00  0.00    +0.000 A 
ATOM      2  C   UNL     1      26.400   1.660  16.674  0.00  0.00    +0.000 A 
ATOM      3  C   UNL     1      27.859   1.659  16.312  0.00  0.00    +0.000 C 
ATOM      4  N   UNL     1      25.709   0.555  16.968  0.00  0.00    +0.000 NA
ATOM      5  C   UNL     1      24.452   0.945  17.237  0.00  0.00    +0.000 A 
ATOM      6  C   UNL     1      23.322   0.243  17.595  0.00  0.00    +0.000 A 
ATOM      7  C   UNL     1      22.120   0.878  17.823  0.00  0.00    +0.000 A 
ATOM      8  C   UNL     1      22.023   2.249  17.697  0.00  0.00    +0.000 A 
ATOM      9  C   UNL     1      23.141   2.975  17.339  0.00  0.00    +0.000 A 
ATOM     10  C   UNL     1      24.351   2.309  17.112  0.00  0.00    +0.000 A 
ENDROOT
BRANCH   1  15
ATOM     11  C   UNL     1      27.984   6.578  19.357  0.00  0.00    +0.000 C 
ATOM     12  N   UNL     1      27.616   7.050  18.043  0.00  0.00    +0.000 NA
ATOM     13  C   UNL     1      26.937   6.140  17.163  0.00  0.00    +0.000 A 
ATOM     14  N   UNL     1      26.598   4.886  17.416  0.00  0.00    +0.000 NA
ATOM     15  C   UNL     1      25.979   4.187  16.500  0.00  0.00    +0.000 A 
ATOM     16  C   UNL     1      25.712   4.805  15.310  0.00  0.00    +0.000 A 
ATOM     17  C   UNL     1      25.018   4.235  14.095  0.00  0.00    +0.000 C 
ATOM     18  S   UNL     1      26.366   6.357  15.571  0.00  0.00    +0.000 S 
ENDBRANCH   1  15
BRANCH   8  19
ATOM     19  O   UNL     1      20.813   2.917  17.923  0.00  0.00    +0.000 OA
ATOM     20  C   UNL     1      19.589   2.255  17.695  0.00  0.00    +0.000 C 
ENDBRANCH   8  19
TORSDOF 2
ENDMDL
