MODEL 1
REMARK VINA RESULT:      -5.7      0.000      0.000
REMARK  Name = 
REMARK  4 active torsions:
REMARK  status: ('A' for Active; 'I' for Inactive)
REMARK    1  A    between atoms: C_4  and  O_5
REMARK    2  A    between atoms: O_5  and  C_6
REMARK    3  A    between atoms: C_6  and  C_8
REMARK    4  A    between atoms: C_8  and  C_10
REMARK                            x       y       z     vdW  Elec       q    Type
REMARK                         _______ _______ _______ _____ _____    ______ ____
ROOT
ATOM      1  O   UNL     1      27.038  25.235  23.750  0.00  0.00    +0.000 OA
ENDROOT
BRANCH   1   5
ATOM      2  C   UNL     1      27.380  22.612  26.641  0.00  0.00    +0.000 C 
ATOM      3  C   UNL     1      27.353  24.133  27.318  0.00  0.00    +0.000 C 
ATOM      4  C   UNL     1      27.553  25.026  25.978  0.00  0.00    +0.000 C 
ATOM      5  C   UNL     1      26.519  24.289  24.871  0.00  0.00    +0.000 C 
ATOM      6  C   UNL     1      25.230  25.349  25.216  0.00  0.00    +0.000 C 
ATOM      7  C   UNL     1      25.254  25.451  26.710  0.00  0.00    +0.000 C 
ATOM      8  C   UNL     1      25.989  26.694  27.193  0.00  0.00    +0.000 C 
ATOM      9  C   UNL     1      23.823  25.638  27.098  0.00  0.00    +0.000 C 
ATOM     10  C   UNL     1      25.726  24.205  27.369  0.00  0.00    +0.000 C 
ENDBRANCH   1   5
BRANCH   1  11
ATOM     11  C   UNL     1      27.674  24.620  22.730  0.00  0.00    +0.000 C 
ATOM     12  O   UNL     1      27.228  23.643  22.097  0.00  0.00    +0.000 OA
BRANCH  11  13
ATOM     13  C   UNL     1      29.118  25.152  22.254  0.00  0.00    +0.000 C 
ATOM     14  O   UNL     1      29.414  23.996  21.285  0.00  0.00    +0.000 OA
BRANCH  13  15
ATOM     15  C   UNL     1      29.943  24.513  23.485  0.00  0.00    +0.000 A 
ATOM     16  C   UNL     1      30.694  25.324  24.232  0.00  0.00    +0.000 A 
ATOM     17  C   UNL     1      31.426  24.790  25.293  0.00  0.00    +0.000 A 
ATOM     18  C   UNL     1      31.349  23.434  25.538  0.00  0.00    +0.000 A 
ATOM     19  C   UNL     1      30.560  22.630  24.740  0.00  0.00    +0.000 A 
ATOM     20  C   UNL     1      29.842  23.178  23.693  0.00  0.00    +0.000 A 
ENDBRANCH  13  15
ENDBRANCH  11  13
ENDBRANCH   1  11
TORSDOF 4
ENDMDL
MODEL 2
REMARK VINA RESULT:      -5.7      1.239      1.841
REMARK  Name = 
REMARK  4 active torsions:
REMARK  status: ('A' for Active; 'I' for Inactive)
REMARK    1  A    between atoms: C_4  and  O_5
REMARK    2  A    between atoms: O_5  and  C_6
REMARK    3  A    between atoms: C_6  and  C_8
REMARK    4  A    between atoms: C_8  and  C_10
REMARK                            x       y       z     vdW  Elec       q    Type
REMARK                         _______ _______ _______ _____ _____    ______ ____
ROOT
ATOM      1  O   UNL     1      26.801  24.644  24.994  0.00  0.00    +0.000 OA
ENDROOT
BRANCH   1   5
ATOM      2  C   UNL     1      28.192  22.090  27.620  0.00  0.00    +0.000 C 
ATOM      3  C   UNL     1      28.452  23.628  28.202  0.00  0.00    +0.000 C 
ATOM      4  C   UNL     1      28.132  24.479  26.858  0.00  0.00    +0.000 C 
ATOM      5  C   UNL     1      26.740  23.743  26.261  0.00  0.00    +0.000 C 
ATOM      6  C   UNL     1      25.701  24.846  27.040  0.00  0.00    +0.000 C 
ATOM      7  C   UNL     1      26.301  24.987  28.405  0.00  0.00    +0.000 C 
ATOM      8  C   UNL     1      27.185  26.222  28.522  0.00  0.00    +0.000 C 
ATOM      9  C   UNL     1      25.134  25.224  29.307  0.00  0.00    +0.000 C 
ATOM     10  C   UNL     1      26.972  23.747  28.874  0.00  0.00    +0.000 C 
ENDBRANCH   1   5
BRANCH   1  11
ATOM     11  C   UNL     1      26.867  23.980  23.821  0.00  0.00    +0.000 C 
ATOM     12  O   UNL     1      26.171  22.989  23.523  0.00  0.00    +0.000 OA
BRANCH  11  13
ATOM     13  C   UNL     1      27.903  24.465  22.687  0.00  0.00    +0.000 C 
ATOM     14  O   UNL     1      27.886  23.161  21.874  0.00  0.00    +0.000 OA
BRANCH  13  15
ATOM     15  C   UNL     1      29.238  24.092  23.514  0.00  0.00    +0.000 A 
ATOM     16  C   UNL     1      29.427  22.820  23.871  0.00  0.00    +0.000 A 
ATOM     17  C   UNL     1      30.567  22.478  24.597  0.00  0.00    +0.000 A 
ATOM     18  C   UNL     1      31.469  23.470  24.925  0.00  0.00    +0.000 A 
ATOM     19  C   UNL     1      31.235  24.774  24.537  0.00  0.00    +0.000 A 
ATOM     20  C   UNL     1      30.099  25.093  23.818  0.00  0.00    +0.000 A 
ENDBRANCH  13  15
ENDBRANCH  11  13
ENDBRANCH   1  11
TORSDOF 4
ENDMDL
MODEL 3
REMARK VINA RESULT:      -5.5      1.809      2.293
REMARK  Name = 
REMARK  4 active torsions:
REMARK  status: ('A' for Active; 'I' for Inactive)
REMARK    1  A    between atoms: C_4  and  O_5
REMARK    2  A    between atoms: O_5  and  C_6
REMARK    3  A    between atoms: C_6  and  C_8
REMARK    4  A    between atoms: C_8  and  C_10
REMARK                            x       y       z     vdW  Elec       q    Type
REMARK                         _______ _______ _______ _____ _____    ______ ____
ROOT
ATOM      1  O   UNL     1      27.813  24.254  25.144  0.00  0.00    +0.000 OA
ENDROOT
BRANCH   1   5
ATOM      2  C   UNL     1      30.238  21.993  27.231  0.00  0.00    +0.000 C 
ATOM      3  C   UNL     1      29.843  23.321  28.153  0.00  0.00    +0.000 C 
ATOM      4  C   UNL     1      29.150  24.242  27.011  0.00  0.00    +0.000 C 
ATOM      5  C   UNL     1      28.180  23.147  26.175  0.00  0.00    +0.000 C 
ATOM      6  C   UNL     1      26.798  23.506  27.105  0.00  0.00    +0.000 C 
ATOM      7  C   UNL     1      27.327  23.570  28.505  0.00  0.00    +0.000 C 
ATOM      8  C   UNL     1      27.610  24.998  28.951  0.00  0.00    +0.000 C 
ATOM      9  C   UNL     1      26.200  23.084  29.356  0.00  0.00    +0.000 C 
ATOM     10  C   UNL     1      28.474  22.653  28.734  0.00  0.00    +0.000 C 
ENDBRANCH   1   5
BRANCH   1  11
ATOM     11  C   UNL     1      28.151  23.982  23.866  0.00  0.00    +0.000 C 
ATOM     12  O   UNL     1      27.884  22.921  23.268  0.00  0.00    +0.000 OA
BRANCH  11  13
ATOM     13  C   UNL     1      28.958  25.078  23.004  0.00  0.00    +0.000 C 
ATOM     14  O   UNL     1      29.415  24.117  21.895  0.00  0.00    +0.000 OA
BRANCH  13  15
ATOM     15  C   UNL     1      30.330  24.972  23.848  0.00  0.00    +0.000 A 
ATOM     16  C   UNL     1      30.801  26.076  24.433  0.00  0.00    +0.000 A 
ATOM     17  C   UNL     1      31.991  26.010  25.156  0.00  0.00    +0.000 A 
ATOM     18  C   UNL     1      32.649  24.799  25.245  0.00  0.00    +0.000 A 
ATOM     19  C   UNL     1      32.128  23.681  24.625  0.00  0.00    +0.000 A 
ATOM     20  C   UNL     1      30.946  23.767  23.913  0.00  0.00    +0.000 A 
ENDBRANCH  13  15
ENDBRANCH  11  13
ENDBRANCH   1  11
TORSDOF 4
ENDMDL
MODEL 4
REMARK VINA RESULT:      -5.4     28.453     30.510
REMARK  Name = 
REMARK  4 active torsions:
REMARK  status: ('A' for Active; 'I' for Inactive)
REMARK    1  A    between atoms: C_4  and  O_5
REMARK    2  A    between atoms: O_5  and  C_6
REMARK    3  A    between atoms: C_6  and  C_8
REMARK    4  A    between atoms: C_8  and  C_10
REMARK                            x       y       z     vdW  Elec       q    Type
REMARK                         _______ _______ _______ _____ _____    ______ ____
ROOT
ATOM      1  O   UNL     1      32.768  -4.507  33.344  0.00  0.00    +0.000 OA
ENDROOT
BRANCH   1   5
ATOM      2  C   UNL     1      36.285  -6.225  33.183  0.00  0.00    +0.000 C 
ATOM      3  C   UNL     1      35.184  -7.223  32.432  0.00  0.00    +0.000 C 
ATOM      4  C   UNL     1      33.808  -6.507  32.909  0.00  0.00    +0.000 C 
ATOM      5  C   UNL     1      34.137  -4.868  32.700  0.00  0.00    +0.000 C 
ATOM      6  C   UNL     1      33.455  -4.827  31.139  0.00  0.00    +0.000 C 
ATOM      7  C   UNL     1      33.967  -6.081  30.501  0.00  0.00    +0.000 C 
ATOM      8  C   UNL     1      32.956  -7.218  30.569  0.00  0.00    +0.000 C 
ATOM      9  C   UNL     1      34.109  -5.737  29.054  0.00  0.00    +0.000 C 
ATOM     10  C   UNL     1      35.314  -6.473  30.991  0.00  0.00    +0.000 C 
ENDBRANCH   1   5
BRANCH   1  11
ATOM     11  C   UNL     1      32.836  -3.700  34.424  0.00  0.00    +0.000 C 
ATOM     12  O   UNL     1      31.853  -3.297  35.076  0.00  0.00    +0.000 OA
BRANCH  11  13
ATOM     13  C   UNL     1      34.271  -3.194  34.951  0.00  0.00    +0.000 C 
ATOM     14  O   UNL     1      33.897  -3.145  36.441  0.00  0.00    +0.000 OA
BRANCH  13  15
ATOM     15  C   UNL     1      33.998  -1.625  34.691  0.00  0.00    +0.000 A 
ATOM     16  C   UNL     1      33.843  -0.825  35.749  0.00  0.00    +0.000 A 
ATOM     17  C   UNL     1      33.593   0.532  35.546  0.00  0.00    +0.000 A 
ATOM     18  C   UNL     1      33.514   1.007  34.253  0.00  0.00    +0.000 A 
ATOM     19  C   UNL     1      33.680   0.146  33.187  0.00  0.00    +0.000 A 
ATOM     20  C   UNL     1      33.927  -1.196  33.408  0.00  0.00    +0.000 A 
ENDBRANCH  13  15
ENDBRANCH  11  13
ENDBRANCH   1  11
TORSDOF 4
ENDMDL
MODEL 5
REMARK VINA RESULT:      -5.4     31.730     33.800
REMARK  Name = 
REMARK  4 active torsions:
REMARK  status: ('A' for Active; 'I' for Inactive)
REMARK    1  A    between atoms: C_4  and  O_5
REMARK    2  A    between atoms: O_5  and  C_6
REMARK    3  A    between atoms: C_6  and  C_8
REMARK    4  A    between atoms: C_8  and  C_10
REMARK                            x       y       z     vdW  Elec       q    Type
REMARK                         _______ _______ _______ _____ _____    ______ ____
ROOT
ATOM      1  O   UNL     1      21.256  -9.706  24.283  0.00  0.00    +0.000 OA
ENDROOT
BRANCH   1   5
ATOM      2  C   UNL     1      22.662  -6.105  23.645  0.00  0.00    +0.000 C 
ATOM      3  C   UNL     1      23.914  -7.067  24.173  0.00  0.00    +0.000 C 
ATOM      4  C   UNL     1      23.066  -8.352  24.685  0.00  0.00    +0.000 C 
ATOM      5  C   UNL     1      21.939  -8.581  23.454  0.00  0.00    +0.000 C 
ATOM      6  C   UNL     1      22.910  -9.720  22.639  0.00  0.00    +0.000 C 
ATOM      7  C   UNL     1      24.280  -9.117  22.699  0.00  0.00    +0.000 C 
ATOM      8  C   UNL     1      25.114  -9.690  23.836  0.00  0.00    +0.000 C 
ATOM      9  C   UNL     1      24.941  -9.560  21.434  0.00  0.00    +0.000 C 
ATOM     10  C   UNL     1      24.260  -7.631  22.684  0.00  0.00    +0.000 C 
ENDBRANCH   1   5
BRANCH   1  11
ATOM     11  C   UNL     1      20.083  -9.365  24.857  0.00  0.00    +0.000 C 
ATOM     12  O   UNL     1      19.038  -9.092  24.235  0.00  0.00    +0.000 OA
BRANCH  11  13
ATOM     13  C   UNL     1      19.973  -9.291  26.462  0.00  0.00    +0.000 C 
ATOM     14  O   UNL     1      18.593  -9.960  26.568  0.00  0.00    +0.000 OA
BRANCH  13  15
ATOM     15  C   UNL     1      19.397  -7.784  26.518  0.00  0.00    +0.000 A 
ATOM     16  C   UNL     1      20.113  -6.811  25.949  0.00  0.00    +0.000 A 
ATOM     17  C   UNL     1      19.640  -5.500  25.997  0.00  0.00    +0.000 A 
ATOM     18  C   UNL     1      18.442  -5.248  26.635  0.00  0.00    +0.000 A 
ATOM     19  C   UNL     1      17.734  -6.283  27.210  0.00  0.00    +0.000 A 
ATOM     20  C   UNL     1      18.218  -7.576  27.152  0.00  0.00    +0.000 A 
ENDBRANCH  13  15
ENDBRANCH  11  13
ENDBRANCH   1  11
TORSDOF 4
ENDMDL
MODEL 6
REMARK VINA RESULT:      -5.3      2.387      4.605
REMARK  Name = 
REMARK  4 active torsions:
REMARK  status: ('A' for Active; 'I' for Inactive)
REMARK    1  A    between atoms: C_4  and  O_5
REMARK    2  A    between atoms: O_5  and  C_6
REMARK    3  A    between atoms: C_6  and  C_8
REMARK    4  A    between atoms: C_8  and  C_10
REMARK                            x       y       z     vdW  Elec       q    Type
REMARK                         _______ _______ _______ _____ _____    ______ ____
ROOT
ATOM      1  O   UNL     1      28.369  23.420  24.456  0.00  0.00    +0.000 OA
ENDROOT
BRANCH   1   5
ATOM      2  C   UNL     1      29.766  22.691  28.043  0.00  0.00    +0.000 C 
ATOM      3  C   UNL     1      30.975  22.382  26.940  0.00  0.00    +0.000 C 
ATOM      4  C   UNL     1      30.103  22.411  25.572  0.00  0.00    +0.000 C 
ATOM      5  C   UNL     1      29.113  23.758  25.780  0.00  0.00    +0.000 C 
ATOM      6  C   UNL     1      30.182  24.798  24.956  0.00  0.00    +0.000 C 
ATOM      7  C   UNL     1      31.527  24.404  25.483  0.00  0.00    +0.000 C 
ATOM      8  C   UNL     1      32.252  23.438  24.555  0.00  0.00    +0.000 C 
ATOM      9  C   UNL     1      32.322  25.669  25.470  0.00  0.00    +0.000 C 
ATOM     10  C   UNL     1      31.482  23.931  26.892  0.00  0.00    +0.000 C 
ENDBRANCH   1   5
BRANCH   1  11
ATOM     11  C   UNL     1      27.026  23.326  24.559  0.00  0.00    +0.000 C 
ATOM     12  O   UNL     1      26.423  22.691  25.447  0.00  0.00    +0.000 OA
BRANCH  11  13
ATOM     13  C   UNL     1      26.089  24.072  23.483  0.00  0.00    +0.000 C 
ATOM     14  O   UNL     1      26.057  22.924  22.462  0.00  0.00    +0.000 OA
BRANCH  13  15
ATOM     15  C   UNL     1      27.285  24.872  22.750  0.00  0.00    +0.000 A 
ATOM     16  C   UNL     1      27.426  26.174  23.008  0.00  0.00    +0.000 A 
ATOM     17  C   UNL     1      28.444  26.887  22.376  0.00  0.00    +0.000 A 
ATOM     18  C   UNL     1      29.277  26.221  21.500  0.00  0.00    +0.000 A 
ATOM     19  C   UNL     1      29.096  24.874  21.261  0.00  0.00    +0.000 A 
ATOM     20  C   UNL     1      28.081  24.184  21.897  0.00  0.00    +0.000 A 
ENDBRANCH  13  15
ENDBRANCH  11  13
ENDBRANCH   1  11
TORSDOF 4
ENDMDL
MODEL 7
REMARK VINA RESULT:      -5.3     20.500     21.990
REMARK  Name = 
REMARK  4 active torsions:
REMARK  status: ('A' for Active; 'I' for Inactive)
REMARK    1  A    between atoms: C_4  and  O_5
REMARK    2  A    between atoms: O_5  and  C_6
REMARK    3  A    between atoms: C_6  and  C_8
REMARK    4  A    between atoms: C_8  and  C_10
REMARK                            x       y       z     vdW  Elec       q    Type
REMARK                         _______ _______ _______ _____ _____    ______ ____
ROOT
ATOM      1  O   UNL     1      25.022   4.737  15.072  0.00  0.00    +0.000 OA
ENDROOT
BRANCH   1   5
ATOM      2  C   UNL     1      26.806   1.264  15.398  0.00  0.00    +0.000 C 
ATOM      3  C   UNL     1      26.663   1.920  16.922  0.00  0.00    +0.000 C 
ATOM      4  C   UNL     1      26.237   3.434  16.521  0.00  0.00    +0.000 C 
ATOM      5  C   UNL     1      25.095   3.200  15.305  0.00  0.00    +0.000 C 
ATOM      6  C   UNL     1      23.781   3.266  16.387  0.00  0.00    +0.000 C 
ATOM      7  C   UNL     1      24.246   2.445  17.551  0.00  0.00    +0.000 C 
ATOM      8  C   UNL     1      24.807   3.304  18.676  0.00  0.00    +0.000 C 
ATOM      9  C   UNL     1      23.002   1.816  18.089  0.00  0.00    +0.000 C 
ATOM     10  C   UNL     1      25.158   1.340  17.154  0.00  0.00    +0.000 C 
ENDBRANCH   1   5
BRANCH   1  11
ATOM     11  C   UNL     1      25.984   5.242  14.271  0.00  0.00    +0.000 C 
ATOM     12  O   UNL     1      26.711   4.566  13.517  0.00  0.00    +0.000 OA
BRANCH  11  13
ATOM     13  C   UNL     1      26.251   6.830  14.249  0.00  0.00    +0.000 C 
ATOM     14  O   UNL     1      27.574   6.769  13.469  0.00  0.00    +0.000 OA
BRANCH  13  15
ATOM     15  C   UNL     1      26.952   6.899  15.701  0.00  0.00    +0.000 A 
ATOM     16  C   UNL     1      28.285   6.922  15.760  0.00  0.00    +0.000 A 
ATOM     17  C   UNL     1      28.912   6.968  17.005  0.00  0.00    +0.000 A 
ATOM     18  C   UNL     1      28.130   6.989  18.142  0.00  0.00    +0.000 A 
ATOM     19  C   UNL     1      26.754   6.965  18.037  0.00  0.00    +0.000 A 
ATOM     20  C   UNL     1      26.152   6.919  16.794  0.00  0.00    +0.000 A 
ENDBRANCH  13  15
ENDBRANCH  11  13
ENDBRANCH   1  11
TORSDOF 4
ENDMDL
MODEL 8
REMARK VINA RESULT:      -5.2     21.049     23.189
REMARK  Name = 
REMARK  4 active torsions:
REMARK  status: ('A' for Active; 'I' for Inactive)
REMARK    1  A    between atoms: C_4  and  O_5
REMARK    2  A    between atoms: O_5  and  C_6
REMARK    3  A    between atoms: C_6  and  C_8
REMARK    4  A    between atoms: C_8  and  C_10
REMARK                            x       y       z     vdW  Elec       q    Type
REMARK                         _______ _______ _______ _____ _____    ______ ____
ROOT
ATOM      1  O   UNL     1      19.533   9.872  40.180  0.00  0.00    +0.000 OA
ENDROOT
BRANCH   1   5
ATOM      2  C   UNL     1      18.466   6.135  40.679  0.00  0.00    +0.000 C 
ATOM      3  C   UNL     1      17.879   7.020  41.961  0.00  0.00    +0.000 C 
ATOM      4  C   UNL     1      18.703   8.399  41.734  0.00  0.00    +0.000 C 
ATOM      5  C   UNL     1      18.581   8.646  40.071  0.00  0.00    +0.000 C 
ATOM      6  C   UNL     1      17.213   9.651  40.219  0.00  0.00    +0.000 C 
ATOM      7  C   UNL     1      16.367   8.941  41.231  0.00  0.00    +0.000 C 
ATOM      8  C   UNL     1      16.543   9.510  42.633  0.00  0.00    +0.000 C 
ATOM      9  C   UNL     1      14.961   9.251  40.830  0.00  0.00    +0.000 C 
ATOM     10  C   UNL     1      16.519   7.464  41.181  0.00  0.00    +0.000 C 
ENDBRANCH   1   5
BRANCH   1  11
ATOM     11  C   UNL     1      20.568   9.873  39.313  0.00  0.00    +0.000 C 
ATOM     12  O   UNL     1      21.437   8.982  39.239  0.00  0.00    +0.000 OA
BRANCH  11  13
ATOM     13  C   UNL     1      20.737  11.093  38.275  0.00  0.00    +0.000 C 
ATOM     14  O   UNL     1      20.090  12.165  39.166  0.00  0.00    +0.000 OA
BRANCH  13  15
ATOM     15  C   UNL     1      19.393  10.783  37.437  0.00  0.00    +0.000 A 
ATOM     16  C   UNL     1      19.361   9.688  36.674  0.00  0.00    +0.000 A 
ATOM     17  C   UNL     1      18.215   9.409  35.931  0.00  0.00    +0.000 A 
ATOM     18  C   UNL     1      17.144  10.277  36.008  0.00  0.00    +0.000 A 
ATOM     19  C   UNL     1      17.219  11.398  36.809  0.00  0.00    +0.000 A 
ATOM     20  C   UNL     1      18.365  11.659  37.538  0.00  0.00    +0.000 A 
ENDBRANCH  13  15
ENDBRANCH  11  13
ENDBRANCH   1  11
TORSDOF 4
ENDMDL
MODEL 9
REMARK VINA RESULT:      -5.1      2.139      4.545
REMARK  Name = 
REMARK  4 active torsions:
REMARK  status: ('A' for Active; 'I' for Inactive)
REMARK    1  A    between atoms: C_4  and  O_5
REMARK    2  A    between atoms: O_5  and  C_6
REMARK    3  A    between atoms: C_6  and  C_8
REMARK    4  A    between atoms: C_8  and  C_10
REMARK                            x       y       z     vdW  Elec       q    Type
REMARK                         _______ _______ _______ _____ _____    ______ ____
ROOT
ATOM      1  O   UNL     1      27.706  23.906  26.453  0.00  0.00    +0.000 OA
ENDROOT
BRANCH   1   5
ATOM      2  C   UNL     1      30.973  22.796  24.597  0.00  0.00    +0.000 C 
ATOM      3  C   UNL     1      31.382  23.949  25.726  0.00  0.00    +0.000 C 
ATOM      4  C   UNL     1      29.900  24.489  26.106  0.00  0.00    +0.000 C 
ATOM      5  C   UNL     1      29.002  23.070  26.249  0.00  0.00    +0.000 C 
ATOM      6  C   UNL     1      29.244  22.967  27.932  0.00  0.00    +0.000 C 
ATOM      7  C   UNL     1      30.694  23.303  28.097  0.00  0.00    +0.000 C 
ATOM      8  C   UNL     1      30.910  24.762  28.474  0.00  0.00    +0.000 C 
ATOM      9  C   UNL     1      31.135  22.499  29.277  0.00  0.00    +0.000 C 
ATOM     10  C   UNL     1      31.524  22.873  26.941  0.00  0.00    +0.000 C 
ENDBRANCH   1   5
BRANCH   1  11
ATOM     11  C   UNL     1      26.709  23.641  25.583  0.00  0.00    +0.000 C 
ATOM     12  O   UNL     1      26.194  22.519  25.408  0.00  0.00    +0.000 OA
BRANCH  11  13
ATOM     13  C   UNL     1      26.102  24.829  24.679  0.00  0.00    +0.000 C 
ATOM     14  O   UNL     1      25.182  23.940  23.827  0.00  0.00    +0.000 OA
BRANCH  13  15
ATOM     15  C   UNL     1      27.306  24.848  23.604  0.00  0.00    +0.000 A 
ATOM     16  C   UNL     1      27.494  23.767  22.845  0.00  0.00    +0.000 A 
ATOM     17  C   UNL     1      28.536  23.758  21.918  0.00  0.00    +0.000 A 
ATOM     18  C   UNL     1      29.343  24.872  21.814  0.00  0.00    +0.000 A 
ATOM     19  C   UNL     1      29.114  25.970  22.619  0.00  0.00    +0.000 A 
ATOM     20  C   UNL     1      28.076  25.960  23.531  0.00  0.00    +0.000 A 
ENDBRANCH  13  15
ENDBRANCH  11  13
ENDBRANCH   1  11
TORSDOF 4
ENDMDL
MODEL 10
REMARK VINA RESULT:      -5.1     31.113     32.920
REMARK  Name = 
REMARK  4 active torsions:
REMARK  status: ('A' for Active; 'I' for Inactive)
REMARK    1  A    between atoms: C_4  and  O_5
REMARK    2  A    between atoms: O_5  and  C_6
REMARK    3  A    between atoms: C_6  and  C_8
REMARK    4  A    between atoms: C_8  and  C_10
REMARK                            x       y       z     vdW  Elec       q    Type
REMARK                         _______ _______ _______ _____ _____    ______ ____
ROOT
ATOM      1  O   UNL     1      31.564  -8.035  29.375  0.00  0.00    +0.000 OA
ENDROOT
BRANCH   1   5
ATOM      2  C   UNL     1      31.929  -7.745  33.265  0.00  0.00    +0.000 C 
ATOM      3  C   UNL     1      30.357  -7.374  32.860  0.00  0.00    +0.000 C 
ATOM      4  C   UNL     1      30.523  -7.222  31.254  0.00  0.00    +0.000 C 
ATOM      5  C   UNL     1      31.489  -8.541  30.844  0.00  0.00    +0.000 C 
ATOM      6  C   UNL     1      30.154  -9.532  30.472  0.00  0.00    +0.000 C 
ATOM      7  C   UNL     1      29.192  -9.253  31.585  0.00  0.00    +0.000 C 
ATOM      8  C   UNL     1      28.137  -8.227  31.193  0.00  0.00    +0.000 C 
ATOM      9  C   UNL     1      28.463 -10.542  31.786  0.00  0.00    +0.000 C 
ATOM     10  C   UNL     1      29.867  -8.928  32.869  0.00  0.00    +0.000 C 
ENDBRANCH   1   5
BRANCH   1  11
ATOM     11  C   UNL     1      32.806  -7.980  28.849  0.00  0.00    +0.000 C 
ATOM     12  O   UNL     1      33.544  -8.967  28.660  0.00  0.00    +0.000 OA
BRANCH  11  13
ATOM     13  C   UNL     1      33.427  -6.558  28.416  0.00  0.00    +0.000 C 
ATOM     14  O   UNL     1      34.807  -7.095  28.004  0.00  0.00    +0.000 OA
BRANCH  13  15
ATOM     15  C   UNL     1      33.888  -6.121  29.900  0.00  0.00    +0.000 A 
ATOM     16  C   UNL     1      33.207  -5.151  30.514  0.00  0.00    +0.000 A 
ATOM     17  C   UNL     1      33.596  -4.749  31.791  0.00  0.00    +0.000 A 
ATOM     18  C   UNL     1      34.679  -5.369  32.382  0.00  0.00    +0.000 A 
ATOM     19  C   UNL     1      35.356  -6.367  31.712  0.00  0.00    +0.000 A 
ATOM     20  C   UNL     1      34.955  -6.752  30.446  0.00  0.00    +0.000 A 
ENDBRANCH  13  15
ENDBRANCH  11  13
ENDBRANCH   1  11
TORSDOF 4
ENDMDL
