MODEL 1
REMARK VINA RESULT:      -8.1      0.000      0.000
REMARK  Name = 
REMARK  7 active torsions:
REMARK  status: ('A' for Active; 'I' for Inactive)
REMARK    1  A    between atoms: C_5  and  C_6
REMARK    2  A    between atoms: N_8  and  C_9
REMARK    3  A    between atoms: C_9  and  C_16
REMARK    4  A    between atoms: C_10  and  C_11
REMARK    5  A    between atoms: N_18  and  C_19
REMARK    6  A    between atoms: C_19  and  C_20
REMARK    7  A    between atoms: C_20  and  C_21
REMARK                            x       y       z     vdW  Elec       q    Type
REMARK                         _______ _______ _______ _____ _____    ______ ____
ROOT
ATOM      1  C   UNL     1      38.122   3.902  15.855  0.00  0.00    +0.000 C 
ATOM      2  C   UNL     1      39.078   3.431  15.118  0.00  0.00    +0.000 C 
ENDROOT
BRANCH   2   3
ATOM      3  C   UNL     1      39.065   2.253  14.269  0.00  0.00    +0.000 A 
ATOM      4  C   UNL     1      39.386   0.962  14.481  0.00  0.00    +0.000 A 
ATOM      5  C   UNL     1      39.266   0.085  13.492  0.00  0.00    +0.000 A 
ATOM      6  C   UNL     1      38.816   0.548  12.288  0.00  0.00    +0.000 A 
ATOM      7  S   UNL     1      38.579   2.205  12.604  0.00  0.00    +0.000 S 
ENDBRANCH   2   3
BRANCH   1  10
ATOM      8  C   UNL     1      38.594   5.076  18.023  0.00  0.00    +0.000 C 
ATOM      9  O   UNL     1      38.675   3.972  18.609  0.00  0.00    +0.000 OA
ATOM     10  N   UNL     1      38.323   5.107  16.653  0.00  0.00    +0.000 NA
BRANCH   8  15
ATOM     11  C   UNL     1      39.376  10.005  20.851  0.00  0.00    +0.000 C 
ATOM     12  C   UNL     1      39.153   8.743  20.105  0.00  0.00    +0.000 A 
ATOM     13  C   UNL     1      39.956   7.636  20.358  0.00  0.00    +0.000 A 
ATOM     14  C   UNL     1      39.764   6.466  19.677  0.00  0.00    +0.000 A 
ATOM     15  C   UNL     1      38.774   6.358  18.732  0.00  0.00    +0.000 A 
ATOM     16  C   UNL     1      37.953   7.440  18.452  0.00  0.00    +0.000 A 
ATOM     17  C   UNL     1      38.170   8.610  19.155  0.00  0.00    +0.000 A 
ATOM     18  C   UNL     1      37.292   9.801  18.879  0.00  0.00    +0.000 C 
ENDBRANCH   8  15
ENDBRANCH   1  10
BRANCH   1  19
ATOM     19  C   UNL     1      36.827   3.249  15.858  0.00  0.00    +0.000 C 
ATOM     20  O   UNL     1      35.877   3.492  15.125  0.00  0.00    +0.000 OA
ATOM     21  N   UNL     1      36.619   2.191  16.828  0.00  0.00    +0.000 NA
BRANCH  21  22
ATOM     22  C   UNL     1      35.308   1.511  16.861  0.00  0.00    +0.000 C 
BRANCH  22  23
ATOM     23  C   UNL     1      35.479   0.083  16.382  0.00  0.00    +0.000 C 
BRANCH  23  24
ATOM     24  C   UNL     1      36.403  -0.704  17.206  0.00  0.00    +0.000 A 
ATOM     25  C   UNL     1      37.474  -1.326  16.632  0.00  0.00    +0.000 A 
ATOM     26  C   UNL     1      38.354  -2.068  17.408  0.00  0.00    +0.000 A 
ATOM     27  C   UNL     1      38.140  -2.171  18.766  0.00  0.00    +0.000 A 
ATOM     28  C   UNL     1      37.064  -1.543  19.323  0.00  0.00    +0.000 A 
ATOM     29  C   UNL     1      36.200  -0.813  18.553  0.00  0.00    +0.000 A 
ENDBRANCH  23  24
ENDBRANCH  22  23
ENDBRANCH  21  22
ENDBRANCH   1  19
TORSDOF 7
ENDMDL
MODEL 2
REMARK VINA RESULT:      -7.7      0.983      1.690
REMARK  Name = 
REMARK  7 active torsions:
REMARK  status: ('A' for Active; 'I' for Inactive)
REMARK    1  A    between atoms: C_5  and  C_6
REMARK    2  A    between atoms: N_8  and  C_9
REMARK    3  A    between atoms: C_9  and  C_16
REMARK    4  A    between atoms: C_10  and  C_11
REMARK    5  A    between atoms: N_18  and  C_19
REMARK    6  A    between atoms: C_19  and  C_20
REMARK    7  A    between atoms: C_20  and  C_21
REMARK                            x       y       z     vdW  Elec       q    Type
REMARK                         _______ _______ _______ _____ _____    ______ ____
ROOT
ATOM      1  C   UNL     1      37.781   3.570  15.820  0.00  0.00    +0.000 C 
ATOM      2  C   UNL     1      38.483   3.063  14.855  0.00  0.00    +0.000 C 
ENDROOT
BRANCH   2   3
ATOM      3  C   UNL     1      38.171   1.916  14.021  0.00  0.00    +0.000 A 
ATOM      4  C   UNL     1      37.326   1.730  12.989  0.00  0.00    +0.000 A 
ATOM      5  C   UNL     1      37.257   0.541  12.404  0.00  0.00    +0.000 A 
ATOM      6  C   UNL     1      38.060  -0.451  12.889  0.00  0.00    +0.000 A 
ATOM      7  S   UNL     1      38.884   0.339  14.155  0.00  0.00    +0.000 S 
ENDBRANCH   2   3
BRANCH   1  10
ATOM      8  C   UNL     1      38.480   4.722  17.937  0.00  0.00    +0.000 C 
ATOM      9  O   UNL     1      38.261   3.674  18.587  0.00  0.00    +0.000 OA
ATOM     10  N   UNL     1      38.262   4.733  16.558  0.00  0.00    +0.000 NA
BRANCH   8  15
ATOM     11  C   UNL     1      40.265   9.595  20.383  0.00  0.00    +0.000 C 
ATOM     12  C   UNL     1      39.826   8.322  19.760  0.00  0.00    +0.000 A 
ATOM     13  C   UNL     1      38.623   8.267  19.067  0.00  0.00    +0.000 A 
ATOM     14  C   UNL     1      38.204   7.101  18.488  0.00  0.00    +0.000 A 
ATOM     15  C   UNL     1      38.963   5.960  18.581  0.00  0.00    +0.000 A 
ATOM     16  C   UNL     1      40.169   5.975  19.264  0.00  0.00    +0.000 A 
ATOM     17  C   UNL     1      40.567   7.168  19.839  0.00  0.00    +0.000 A 
ATOM     18  C   UNL     1      41.874   7.219  20.583  0.00  0.00    +0.000 C 
ENDBRANCH   8  15
ENDBRANCH   1  10
BRANCH   1  19
ATOM     19  C   UNL     1      36.487   2.999  16.146  0.00  0.00    +0.000 C 
ATOM     20  O   UNL     1      35.388   3.468  15.883  0.00  0.00    +0.000 OA
ATOM     21  N   UNL     1      36.479   1.738  16.861  0.00  0.00    +0.000 NA
BRANCH  21  22
ATOM     22  C   UNL     1      35.178   1.134  17.214  0.00  0.00    +0.000 C 
BRANCH  22  23
ATOM     23  C   UNL     1      35.210  -0.344  16.880  0.00  0.00    +0.000 C 
BRANCH  23  24
ATOM     24  C   UNL     1      36.287  -1.074  17.559  0.00  0.00    +0.000 A 
ATOM     25  C   UNL     1      37.259  -1.697  16.830  0.00  0.00    +0.000 A 
ATOM     26  C   UNL     1      38.282  -2.385  17.468  0.00  0.00    +0.000 A 
ATOM     27  C   UNL     1      38.311  -2.434  18.846  0.00  0.00    +0.000 A 
ATOM     28  C   UNL     1      37.331  -1.806  19.557  0.00  0.00    +0.000 A 
ATOM     29  C   UNL     1      36.325  -1.129  18.923  0.00  0.00    +0.000 A 
ENDBRANCH  23  24
ENDBRANCH  22  23
ENDBRANCH  21  22
ENDBRANCH   1  19
TORSDOF 7
ENDMDL
MODEL 3
REMARK VINA RESULT:      -7.6      2.315      8.570
REMARK  Name = 
REMARK  7 active torsions:
REMARK  status: ('A' for Active; 'I' for Inactive)
REMARK    1  A    between atoms: C_5  and  C_6
REMARK    2  A    between atoms: N_8  and  C_9
REMARK    3  A    between atoms: C_9  and  C_16
REMARK    4  A    between atoms: C_10  and  C_11
REMARK    5  A    between atoms: N_18  and  C_19
REMARK    6  A    between atoms: C_19  and  C_20
REMARK    7  A    between atoms: C_20  and  C_21
REMARK                            x       y       z     vdW  Elec       q    Type
REMARK                         _______ _______ _______ _____ _____    ______ ____
ROOT
ATOM      1  C   UNL     1      37.049   2.130  15.344  0.00  0.00    +0.000 C 
ATOM      2  C   UNL     1      36.164   2.540  14.491  0.00  0.00    +0.000 C 
ENDROOT
BRANCH   2   3
ATOM      3  C   UNL     1      35.967   3.881  13.970  0.00  0.00    +0.000 A 
ATOM      4  C   UNL     1      35.153   4.895  14.321  0.00  0.00    +0.000 A 
ATOM      5  C   UNL     1      35.199   6.037  13.646  0.00  0.00    +0.000 A 
ATOM      6  C   UNL     1      36.085   6.124  12.611  0.00  0.00    +0.000 A 
ATOM      7  S   UNL     1      36.821   4.588  12.634  0.00  0.00    +0.000 S 
ENDBRANCH   2   3
BRANCH   1  10
ATOM      8  C   UNL     1      37.929  -0.214  15.164  0.00  0.00    +0.000 C 
ATOM      9  O   UNL     1      38.689   0.137  14.232  0.00  0.00    +0.000 OA
ATOM     10  N   UNL     1      37.091   0.732  15.759  0.00  0.00    +0.000 NA
BRANCH   8  15
ATOM     11  C   UNL     1      37.863  -5.594  17.153  0.00  0.00    +0.000 C 
ATOM     12  C   UNL     1      37.856  -4.208  16.624  0.00  0.00    +0.000 A 
ATOM     13  C   UNL     1      38.837  -3.308  17.025  0.00  0.00    +0.000 A 
ATOM     14  C   UNL     1      38.844  -2.027  16.547  0.00  0.00    +0.000 A 
ATOM     15  C   UNL     1      37.884  -1.603  15.662  0.00  0.00    +0.000 A 
ATOM     16  C   UNL     1      36.890  -2.472  15.239  0.00  0.00    +0.000 A 
ATOM     17  C   UNL     1      36.907  -3.760  15.738  0.00  0.00    +0.000 A 
ATOM     18  C   UNL     1      35.845  -4.730  15.295  0.00  0.00    +0.000 C 
ENDBRANCH   8  15
ENDBRANCH   1  10
BRANCH   1  19
ATOM     19  C   UNL     1      38.033   3.062  15.864  0.00  0.00    +0.000 C 
ATOM     20  O   UNL     1      39.121   3.334  15.373  0.00  0.00    +0.000 OA
ATOM     21  N   UNL     1      37.708   3.752  17.096  0.00  0.00    +0.000 NA
BRANCH  21  22
ATOM     22  C   UNL     1      38.692   4.701  17.655  0.00  0.00    +0.000 C 
BRANCH  22  23
ATOM     23  C   UNL     1      38.227   6.118  17.378  0.00  0.00    +0.000 C 
BRANCH  23  24
ATOM     24  C   UNL     1      38.334   7.006  18.540  0.00  0.00    +0.000 A 
ATOM     25  C   UNL     1      37.459   8.042  18.695  0.00  0.00    +0.000 A 
ATOM     26  C   UNL     1      37.553   8.882  19.797  0.00  0.00    +0.000 A 
ATOM     27  C   UNL     1      38.539   8.663  20.735  0.00  0.00    +0.000 A 
ATOM     28  C   UNL     1      39.406   7.623  20.563  0.00  0.00    +0.000 A 
ATOM     29  C   UNL     1      39.308   6.798  19.476  0.00  0.00    +0.000 A 
ENDBRANCH  23  24
ENDBRANCH  22  23
ENDBRANCH  21  22
ENDBRANCH   1  19
TORSDOF 7
ENDMDL
MODEL 4
REMARK VINA RESULT:      -7.4      1.476      2.322
REMARK  Name = 
REMARK  7 active torsions:
REMARK  status: ('A' for Active; 'I' for Inactive)
REMARK    1  A    between atoms: C_5  and  C_6
REMARK    2  A    between atoms: N_8  and  C_9
REMARK    3  A    between atoms: C_9  and  C_16
REMARK    4  A    between atoms: C_10  and  C_11
REMARK    5  A    between atoms: N_18  and  C_19
REMARK    6  A    between atoms: C_19  and  C_20
REMARK    7  A    between atoms: C_20  and  C_21
REMARK                            x       y       z     vdW  Elec       q    Type
REMARK                         _______ _______ _______ _____ _____    ______ ____
ROOT
ATOM      1  C   UNL     1      37.643   2.856  16.002  0.00  0.00    +0.000 C 
ATOM      2  C   UNL     1      38.370   2.570  14.968  0.00  0.00    +0.000 C 
ENDROOT
BRANCH   2   3
ATOM      3  C   UNL     1      38.092   1.618  13.907  0.00  0.00    +0.000 A 
ATOM      4  C   UNL     1      38.228   0.282  13.809  0.00  0.00    +0.000 A 
ATOM      5  C   UNL     1      37.878  -0.334  12.687  0.00  0.00    +0.000 A 
ATOM      6  C   UNL     1      37.391   0.436  11.669  0.00  0.00    +0.000 A 
ATOM      7  S   UNL     1      37.446   2.001  12.342  0.00  0.00    +0.000 S 
ENDBRANCH   2   3
BRANCH   1  10
ATOM      8  C   UNL     1      38.040   5.221  16.744  0.00  0.00    +0.000 C 
ATOM      9  O   UNL     1      37.586   5.644  15.656  0.00  0.00    +0.000 OA
ATOM     10  N   UNL     1      38.093   3.845  16.976  0.00  0.00    +0.000 NA
BRANCH   8  15
ATOM     11  C   UNL     1      39.858   8.840  20.806  0.00  0.00    +0.000 C 
ATOM     12  C   UNL     1      39.408   7.885  19.764  0.00  0.00    +0.000 A 
ATOM     13  C   UNL     1      38.321   8.202  18.957  0.00  0.00    +0.000 A 
ATOM     14  C   UNL     1      37.893   7.332  17.992  0.00  0.00    +0.000 A 
ATOM     15  C   UNL     1      38.528   6.130  17.800  0.00  0.00    +0.000 A 
ATOM     16  C   UNL     1      39.616   5.779  18.585  0.00  0.00    +0.000 A 
ATOM     17  C   UNL     1      40.026   6.677  19.552  0.00  0.00    +0.000 A 
ATOM     18  C   UNL     1      41.207   6.329  20.417  0.00  0.00    +0.000 C 
ENDBRANCH   8  15
ENDBRANCH   1  10
BRANCH   1  19
ATOM     19  C   UNL     1      36.353   2.215  16.175  0.00  0.00    +0.000 C 
ATOM     20  O   UNL     1      35.269   2.622  15.776  0.00  0.00    +0.000 OA
ATOM     21  N   UNL     1      36.327   0.957  16.895  0.00  0.00    +0.000 NA
BRANCH  21  22
ATOM     22  C   UNL     1      35.028   0.284  17.095  0.00  0.00    +0.000 C 
BRANCH  22  23
ATOM     23  C   UNL     1      35.272  -1.135  17.571  0.00  0.00    +0.000 C 
BRANCH  23  24
ATOM     24  C   UNL     1      36.093  -1.928  16.649  0.00  0.00    +0.000 A 
ATOM     25  C   UNL     1      37.382  -2.239  16.973  0.00  0.00    +0.000 A 
ATOM     26  C   UNL     1      38.162  -2.992  16.105  0.00  0.00    +0.000 A 
ATOM     27  C   UNL     1      37.624  -3.426  14.912  0.00  0.00    +0.000 A 
ATOM     28  C   UNL     1      36.334  -3.105  14.606  0.00  0.00    +0.000 A 
ATOM     29  C   UNL     1      35.570  -2.362  15.464  0.00  0.00    +0.000 A 
ENDBRANCH  23  24
ENDBRANCH  22  23
ENDBRANCH  21  22
ENDBRANCH   1  19
TORSDOF 7
ENDMDL
MODEL 5
REMARK VINA RESULT:      -7.3      2.875      8.278
REMARK  Name = 
REMARK  7 active torsions:
REMARK  status: ('A' for Active; 'I' for Inactive)
REMARK    1  A    between atoms: C_5  and  C_6
REMARK    2  A    between atoms: N_8  and  C_9
REMARK    3  A    between atoms: C_9  and  C_16
REMARK    4  A    between atoms: C_10  and  C_11
REMARK    5  A    between atoms: N_18  and  C_19
REMARK    6  A    between atoms: C_19  and  C_20
REMARK    7  A    between atoms: C_20  and  C_21
REMARK                            x       y       z     vdW  Elec       q    Type
REMARK                         _______ _______ _______ _____ _____    ______ ____
ROOT
ATOM      1  C   UNL     1      36.170   3.978  14.584  0.00  0.00    +0.000 C 
ATOM      2  C   UNL     1      35.163   4.533  13.986  0.00  0.00    +0.000 C 
ENDROOT
BRANCH   2   3
ATOM      3  C   UNL     1      34.962   5.938  13.677  0.00  0.00    +0.000 A 
ATOM      4  C   UNL     1      34.308   6.934  14.304  0.00  0.00    +0.000 A 
ATOM      5  C   UNL     1      34.299   8.150  13.773  0.00  0.00    +0.000 A 
ATOM      6  C   UNL     1      34.964   8.329  12.593  0.00  0.00    +0.000 A 
ATOM      7  S   UNL     1      35.578   6.770  12.284  0.00  0.00    +0.000 S 
ENDBRANCH   2   3
BRANCH   1  10
ATOM      8  C   UNL     1      35.356   1.899  15.731  0.00  0.00    +0.000 C 
ATOM      9  O   UNL     1      34.535   2.578  16.390  0.00  0.00    +0.000 OA
ATOM     10  N   UNL     1      36.195   2.537  14.816  0.00  0.00    +0.000 NA
BRANCH   8  15
ATOM     11  C   UNL     1      35.748  -3.779  16.446  0.00  0.00    +0.000 C 
ATOM     12  C   UNL     1      35.663  -2.313  16.238  0.00  0.00    +0.000 A 
ATOM     13  C   UNL     1      34.905  -1.533  17.104  0.00  0.00    +0.000 A 
ATOM     14  C   UNL     1      34.815  -0.180  16.925  0.00  0.00    +0.000 A 
ATOM     15  C   UNL     1      35.472   0.435  15.888  0.00  0.00    +0.000 A 
ATOM     16  C   UNL     1      36.237  -0.309  15.004  0.00  0.00    +0.000 A 
ATOM     17  C   UNL     1      36.310  -1.674  15.208  0.00  0.00    +0.000 A 
ATOM     18  C   UNL     1      37.137  -2.511  14.269  0.00  0.00    +0.000 C 
ENDBRANCH   8  15
ENDBRANCH   1  10
BRANCH   1  19
ATOM     19  C   UNL     1      37.301   4.789  14.994  0.00  0.00    +0.000 C 
ATOM     20  O   UNL     1      38.183   5.239  14.275  0.00  0.00    +0.000 OA
ATOM     21  N   UNL     1      37.413   5.109  16.403  0.00  0.00    +0.000 NA
BRANCH  21  22
ATOM     22  C   UNL     1      38.557   5.927  16.853  0.00  0.00    +0.000 C 
BRANCH  22  23
ATOM     23  C   UNL     1      39.020   5.428  18.209  0.00  0.00    +0.000 C 
BRANCH  23  24
ATOM     24  C   UNL     1      40.310   5.988  18.628  0.00  0.00    +0.000 A 
ATOM     25  C   UNL     1      40.533   6.289  19.940  0.00  0.00    +0.000 A 
ATOM     26  C   UNL     1      41.754   6.814  20.343  0.00  0.00    +0.000 A 
ATOM     27  C   UNL     1      42.741   7.030  19.405  0.00  0.00    +0.000 A 
ATOM     28  C   UNL     1      42.500   6.724  18.098  0.00  0.00    +0.000 A 
ATOM     29  C   UNL     1      41.296   6.206  17.707  0.00  0.00    +0.000 A 
ENDBRANCH  23  24
ENDBRANCH  22  23
ENDBRANCH  21  22
ENDBRANCH   1  19
TORSDOF 7
ENDMDL
MODEL 6
REMARK VINA RESULT:      -7.2     24.572     28.564
REMARK  Name = 
REMARK  7 active torsions:
REMARK  status: ('A' for Active; 'I' for Inactive)
REMARK    1  A    between atoms: C_5  and  C_6
REMARK    2  A    between atoms: N_8  and  C_9
REMARK    3  A    between atoms: C_9  and  C_16
REMARK    4  A    between atoms: C_10  and  C_11
REMARK    5  A    between atoms: N_18  and  C_19
REMARK    6  A    between atoms: C_19  and  C_20
REMARK    7  A    between atoms: C_20  and  C_21
REMARK                            x       y       z     vdW  Elec       q    Type
REMARK                         _______ _______ _______ _____ _____    ______ ____
ROOT
ATOM      1  C   UNL     1      25.251  14.539  40.955  0.00  0.00    +0.000 C 
ATOM      2  C   UNL     1      25.339  15.500  41.819  0.00  0.00    +0.000 C 
ENDROOT
BRANCH   2   3
ATOM      3  C   UNL     1      24.971  16.895  41.655  0.00  0.00    +0.000 A 
ATOM      4  C   UNL     1      25.656  17.988  41.268  0.00  0.00    +0.000 A 
ATOM      5  C   UNL     1      25.040  19.162  41.208  0.00  0.00    +0.000 A 
ATOM      6  C   UNL     1      23.718  19.200  41.550  0.00  0.00    +0.000 A 
ATOM      7  S   UNL     1      23.400  17.573  41.942  0.00  0.00    +0.000 S 
ENDBRANCH   2   3
BRANCH   1  10
ATOM      8  C   UNL     1      26.944  12.686  40.986  0.00  0.00    +0.000 C 
ATOM      9  O   UNL     1      27.765  13.418  40.386  0.00  0.00    +0.000 OA
ATOM     10  N   UNL     1      25.679  13.187  41.299  0.00  0.00    +0.000 NA
BRANCH   8  15
ATOM     11  C   UNL     1      28.102   7.303  42.594  0.00  0.00    +0.000 C 
ATOM     12  C   UNL     1      27.827   8.695  42.163  0.00  0.00    +0.000 A 
ATOM     13  C   UNL     1      26.675   9.340  42.598  0.00  0.00    +0.000 A 
ATOM     14  C   UNL     1      26.406  10.623  42.208  0.00  0.00    +0.000 A 
ATOM     15  C   UNL     1      27.267  11.300  41.380  0.00  0.00    +0.000 A 
ATOM     16  C   UNL     1      28.425  10.689  40.925  0.00  0.00    +0.000 A 
ATOM     17  C   UNL     1      28.672   9.393  41.335  0.00  0.00    +0.000 A 
ATOM     18  C   UNL     1      29.924   8.703  40.863  0.00  0.00    +0.000 C 
ENDBRANCH   8  15
ENDBRANCH   1  10
BRANCH   1  19
ATOM     19  C   UNL     1      24.688  14.799  39.643  0.00  0.00    +0.000 C 
ATOM     20  O   UNL     1      23.523  14.650  39.298  0.00  0.00    +0.000 OA
ATOM     21  N   UNL     1      25.590  15.290  38.619  0.00  0.00    +0.000 NA
BRANCH  21  22
ATOM     22  C   UNL     1      25.049  15.557  37.271  0.00  0.00    +0.000 C 
BRANCH  22  23
ATOM     23  C   UNL     1      26.186  15.542  36.268  0.00  0.00    +0.000 C 
BRANCH  23  24
ATOM     24  C   UNL     1      25.737  15.600  34.873  0.00  0.00    +0.000 A 
ATOM     25  C   UNL     1      25.253  16.767  34.356  0.00  0.00    +0.000 A 
ATOM     26  C   UNL     1      24.830  16.828  33.035  0.00  0.00    +0.000 A 
ATOM     27  C   UNL     1      24.903  15.699  32.246  0.00  0.00    +0.000 A 
ATOM     28  C   UNL     1      25.389  14.541  32.780  0.00  0.00    +0.000 A 
ATOM     29  C   UNL     1      25.804  14.487  34.083  0.00  0.00    +0.000 A 
ENDBRANCH  23  24
ENDBRANCH  22  23
ENDBRANCH  21  22
ENDBRANCH   1  19
TORSDOF 7
ENDMDL
MODEL 7
REMARK VINA RESULT:      -7.2      2.355      3.125
REMARK  Name = 
REMARK  7 active torsions:
REMARK  status: ('A' for Active; 'I' for Inactive)
REMARK    1  A    between atoms: C_5  and  C_6
REMARK    2  A    between atoms: N_8  and  C_9
REMARK    3  A    between atoms: C_9  and  C_16
REMARK    4  A    between atoms: C_10  and  C_11
REMARK    5  A    between atoms: N_18  and  C_19
REMARK    6  A    between atoms: C_19  and  C_20
REMARK    7  A    between atoms: C_20  and  C_21
REMARK                            x       y       z     vdW  Elec       q    Type
REMARK                         _______ _______ _______ _____ _____    ______ ____
ROOT
ATOM      1  C   UNL     1      38.571   3.740  14.202  0.00  0.00    +0.000 C 
ATOM      2  C   UNL     1      38.777   4.238  13.024  0.00  0.00    +0.000 C 
ENDROOT
BRANCH   2   3
ATOM      3  C   UNL     1      38.128   3.889  11.772  0.00  0.00    +0.000 A 
ATOM      4  C   UNL     1      37.113   4.437  11.077  0.00  0.00    +0.000 A 
ATOM      5  C   UNL     1      36.729   3.887   9.932  0.00  0.00    +0.000 A 
ATOM      6  C   UNL     1      37.396   2.772   9.512  0.00  0.00    +0.000 A 
ATOM      7  S   UNL     1      38.541   2.546  10.753  0.00  0.00    +0.000 S 
ENDBRANCH   2   3
BRANCH   1  10
ATOM      8  C   UNL     1      38.983   5.361  16.073  0.00  0.00    +0.000 C 
ATOM      9  O   UNL     1      37.974   6.020  15.732  0.00  0.00    +0.000 OA
ATOM     10  N   UNL     1      39.330   4.216  15.354  0.00  0.00    +0.000 NA
BRANCH   8  15
ATOM     11  C   UNL     1      42.167   6.874  20.599  0.00  0.00    +0.000 C 
ATOM     12  C   UNL     1      41.366   6.488  19.412  0.00  0.00    +0.000 A 
ATOM     13  C   UNL     1      40.045   6.084  19.568  0.00  0.00    +0.000 A 
ATOM     14  C   UNL     1      39.294   5.723  18.484  0.00  0.00    +0.000 A 
ATOM     15  C   UNL     1      39.828   5.752  17.219  0.00  0.00    +0.000 A 
ATOM     16  C   UNL     1      41.142   6.148  17.023  0.00  0.00    +0.000 A 
ATOM     17  C   UNL     1      41.877   6.508  18.137  0.00  0.00    +0.000 A 
ATOM     18  C   UNL     1      43.305   6.948  17.958  0.00  0.00    +0.000 C 
ENDBRANCH   8  15
ENDBRANCH   1  10
BRANCH   1  19
ATOM     19  C   UNL     1      37.550   2.725  14.387  0.00  0.00    +0.000 C 
ATOM     20  O   UNL     1      37.673   1.518  14.228  0.00  0.00    +0.000 OA
ATOM     21  N   UNL     1      36.236   3.174  14.804  0.00  0.00    +0.000 NA
BRANCH  21  22
ATOM     22  C   UNL     1      35.173   2.167  14.994  0.00  0.00    +0.000 C 
BRANCH  22  23
ATOM     23  C   UNL     1      34.918   1.988  16.478  0.00  0.00    +0.000 C 
BRANCH  23  24
ATOM     24  C   UNL     1      35.337   0.679  16.989  0.00  0.00    +0.000 A 
ATOM     25  C   UNL     1      35.386  -0.400  16.154  0.00  0.00    +0.000 A 
ATOM     26  C   UNL     1      35.787  -1.640  16.633  0.00  0.00    +0.000 A 
ATOM     27  C   UNL     1      36.136  -1.775  17.960  0.00  0.00    +0.000 A 
ATOM     28  C   UNL     1      36.080  -0.686  18.780  0.00  0.00    +0.000 A 
ATOM     29  C   UNL     1      35.685   0.534  18.303  0.00  0.00    +0.000 A 
ENDBRANCH  23  24
ENDBRANCH  22  23
ENDBRANCH  21  22
ENDBRANCH   1  19
TORSDOF 7
ENDMDL
MODEL 8
REMARK VINA RESULT:      -7.0      3.248      4.123
REMARK  Name = 
REMARK  7 active torsions:
REMARK  status: ('A' for Active; 'I' for Inactive)
REMARK    1  A    between atoms: C_5  and  C_6
REMARK    2  A    between atoms: N_8  and  C_9
REMARK    3  A    between atoms: C_9  and  C_16
REMARK    4  A    between atoms: C_10  and  C_11
REMARK    5  A    between atoms: N_18  and  C_19
REMARK    6  A    between atoms: C_19  and  C_20
REMARK    7  A    between atoms: C_20  and  C_21
REMARK                            x       y       z     vdW  Elec       q    Type
REMARK                         _______ _______ _______ _____ _____    ______ ____
ROOT
ATOM      1  C   UNL     1      36.869   6.073  14.356  0.00  0.00    +0.000 C 
ATOM      2  C   UNL     1      37.042   6.785  13.287  0.00  0.00    +0.000 C 
ENDROOT
BRANCH   2   3
ATOM      3  C   UNL     1      36.301   6.732  12.039  0.00  0.00    +0.000 A 
ATOM      4  C   UNL     1      35.269   7.447  11.551  0.00  0.00    +0.000 A 
ATOM      5  C   UNL     1      34.790   7.167  10.345  0.00  0.00    +0.000 A 
ATOM      6  C   UNL     1      35.378   6.148   9.652  0.00  0.00    +0.000 A 
ATOM      7  S   UNL     1      36.587   5.627  10.733  0.00  0.00    +0.000 S 
ENDBRANCH   2   3
BRANCH   1  10
ATOM      8  C   UNL     1      38.940   5.598  15.692  0.00  0.00    +0.000 C 
ATOM      9  O   UNL     1      39.332   4.800  14.810  0.00  0.00    +0.000 OA
ATOM     10  N   UNL     1      37.724   6.264  15.523  0.00  0.00    +0.000 NA
BRANCH   8  15
ATOM     11  C   UNL     1      41.869   6.627  20.516  0.00  0.00    +0.000 C 
ATOM     12  C   UNL     1      41.135   6.365  19.254  0.00  0.00    +0.000 A 
ATOM     13  C   UNL     1      39.789   6.019  19.293  0.00  0.00    +0.000 A 
ATOM     14  C   UNL     1      39.099   5.774  18.138  0.00  0.00    +0.000 A 
ATOM     15  C   UNL     1      39.721   5.864  16.917  0.00  0.00    +0.000 A 
ATOM     16  C   UNL     1      41.062   6.206  16.838  0.00  0.00    +0.000 A 
ATOM     17  C   UNL     1      41.734   6.449  18.020  0.00  0.00    +0.000 A 
ATOM     18  C   UNL     1      43.190   6.828  17.969  0.00  0.00    +0.000 C 
ENDBRANCH   8  15
ENDBRANCH   1  10
BRANCH   1  19
ATOM     19  C   UNL     1      35.790   5.104  14.409  0.00  0.00    +0.000 C 
ATOM     20  O   UNL     1      34.592   5.328  14.298  0.00  0.00    +0.000 OA
ATOM     21  N   UNL     1      36.154   3.716  14.614  0.00  0.00    +0.000 NA
BRANCH  21  22
ATOM     22  C   UNL     1      35.079   2.706  14.680  0.00  0.00    +0.000 C 
BRANCH  22  23
ATOM     23  C   UNL     1      35.018   2.138  16.085  0.00  0.00    +0.000 C 
BRANCH  23  24
ATOM     24  C   UNL     1      35.294   0.698  16.146  0.00  0.00    +0.000 A 
ATOM     25  C   UNL     1      36.158   0.127  15.257  0.00  0.00    +0.000 A 
ATOM     26  C   UNL     1      36.426  -1.234  15.314  0.00  0.00    +0.000 A 
ATOM     27  C   UNL     1      35.812  -2.007  16.277  0.00  0.00    +0.000 A 
ATOM     28  C   UNL     1      34.952  -1.419  17.157  0.00  0.00    +0.000 A 
ATOM     29  C   UNL     1      34.691  -0.077  17.096  0.00  0.00    +0.000 A 
ENDBRANCH  23  24
ENDBRANCH  22  23
ENDBRANCH  21  22
ENDBRANCH   1  19
TORSDOF 7
ENDMDL
MODEL 9
REMARK VINA RESULT:      -7.0      2.493      8.179
REMARK  Name = 
REMARK  7 active torsions:
REMARK  status: ('A' for Active; 'I' for Inactive)
REMARK    1  A    between atoms: C_5  and  C_6
REMARK    2  A    between atoms: N_8  and  C_9
REMARK    3  A    between atoms: C_9  and  C_16
REMARK    4  A    between atoms: C_10  and  C_11
REMARK    5  A    between atoms: N_18  and  C_19
REMARK    6  A    between atoms: C_19  and  C_20
REMARK    7  A    between atoms: C_20  and  C_21
REMARK                            x       y       z     vdW  Elec       q    Type
REMARK                         _______ _______ _______ _____ _____    ______ ____
ROOT
ATOM      1  C   UNL     1      38.719   3.366  15.235  0.00  0.00    +0.000 C 
ATOM      2  C   UNL     1      39.559   3.640  14.287  0.00  0.00    +0.000 C 
ENDROOT
BRANCH   2   3
ATOM      3  C   UNL     1      40.175   4.917  13.970  0.00  0.00    +0.000 A 
ATOM      4  C   UNL     1      41.275   5.546  14.424  0.00  0.00    +0.000 A 
ATOM      5  C   UNL     1      41.601   6.735  13.932  0.00  0.00    +0.000 A 
ATOM      6  C   UNL     1      40.786   7.268  12.975  0.00  0.00    +0.000 A 
ATOM      7  S   UNL     1      39.591   6.065  12.807  0.00  0.00    +0.000 S 
ENDBRANCH   2   3
BRANCH   1  10
ATOM      8  C   UNL     1      36.946   1.617  14.921  0.00  0.00    +0.000 C 
ATOM      9  O   UNL     1      36.226   2.448  14.320  0.00  0.00    +0.000 OA
ATOM     10  N   UNL     1      38.197   2.013  15.398  0.00  0.00    +0.000 NA
BRANCH   8  15
ATOM     11  C   UNL     1      35.218  -3.764  15.903  0.00  0.00    +0.000 C 
ATOM     12  C   UNL     1      35.682  -2.382  15.628  0.00  0.00    +0.000 A 
ATOM     13  C   UNL     1      35.157  -1.318  16.353  0.00  0.00    +0.000 A 
ATOM     14  C   UNL     1      35.573  -0.038  16.111  0.00  0.00    +0.000 A 
ATOM     15  C   UNL     1      36.518   0.223  15.149  0.00  0.00    +0.000 A 
ATOM     16  C   UNL     1      37.064  -0.812  14.406  0.00  0.00    +0.000 A 
ATOM     17  C   UNL     1      36.625  -2.096  14.671  0.00  0.00    +0.000 A 
ATOM     18  C   UNL     1      37.202  -3.242  13.886  0.00  0.00    +0.000 C 
ENDBRANCH   8  15
ENDBRANCH   1  10
BRANCH   1  19
ATOM     19  C   UNL     1      38.322   4.404  16.167  0.00  0.00    +0.000 C 
ATOM     20  O   UNL     1      37.462   5.258  15.996  0.00  0.00    +0.000 OA
ATOM     21  N   UNL     1      39.008   4.449  17.443  0.00  0.00    +0.000 NA
BRANCH  21  22
ATOM     22  C   UNL     1      38.631   5.499  18.412  0.00  0.00    +0.000 C 
BRANCH  22  23
ATOM     23  C   UNL     1      39.451   6.745  18.136  0.00  0.00    +0.000 C 
BRANCH  23  24
ATOM     24  C   UNL     1      40.807   6.687  18.694  0.00  0.00    +0.000 A 
ATOM     25  C   UNL     1      40.990   6.502  20.034  0.00  0.00    +0.000 A 
ATOM     26  C   UNL     1      42.271   6.442  20.566  0.00  0.00    +0.000 A 
ATOM     27  C   UNL     1      43.360   6.571  19.730  0.00  0.00    +0.000 A 
ATOM     28  C   UNL     1      43.158   6.756  18.393  0.00  0.00    +0.000 A 
ATOM     29  C   UNL     1      41.893   6.814  17.874  0.00  0.00    +0.000 A 
ENDBRANCH  23  24
ENDBRANCH  22  23
ENDBRANCH  21  22
ENDBRANCH   1  19
TORSDOF 7
ENDMDL
MODEL 10
REMARK VINA RESULT:      -6.9      2.446      8.315
REMARK  Name = 
REMARK  7 active torsions:
REMARK  status: ('A' for Active; 'I' for Inactive)
REMARK    1  A    between atoms: C_5  and  C_6
REMARK    2  A    between atoms: N_8  and  C_9
REMARK    3  A    between atoms: C_9  and  C_16
REMARK    4  A    between atoms: C_10  and  C_11
REMARK    5  A    between atoms: N_18  and  C_19
REMARK    6  A    between atoms: C_19  and  C_20
REMARK    7  A    between atoms: C_20  and  C_21
REMARK                            x       y       z     vdW  Elec       q    Type
REMARK                         _______ _______ _______ _____ _____    ______ ____
ROOT
ATOM      1  C   UNL     1      36.636   3.379  14.512  0.00  0.00    +0.000 C 
ATOM      2  C   UNL     1      35.560   3.913  14.027  0.00  0.00    +0.000 C 
ENDROOT
BRANCH   2   3
ATOM      3  C   UNL     1      35.281   5.317  13.784  0.00  0.00    +0.000 A 
ATOM      4  C   UNL     1      34.348   6.166  14.255  0.00  0.00    +0.000 A 
ATOM      5  C   UNL     1      34.341   7.428  13.846  0.00  0.00    +0.000 A 
ATOM      6  C   UNL     1      35.299   7.806  12.948  0.00  0.00    +0.000 A 
ATOM      7  S   UNL     1      36.172   6.361  12.721  0.00  0.00    +0.000 S 
ENDBRANCH   2   3
BRANCH   1  10
ATOM      8  C   UNL     1      36.454   1.298  15.904  0.00  0.00    +0.000 C 
ATOM      9  O   UNL     1      36.099   1.983  16.891  0.00  0.00    +0.000 OA
ATOM     10  N   UNL     1      36.733   1.934  14.693  0.00  0.00    +0.000 NA
BRANCH   8  15
ATOM     11  C   UNL     1      36.867  -4.416  16.197  0.00  0.00    +0.000 C 
ATOM     12  C   UNL     1      36.788  -2.937  16.119  0.00  0.00    +0.000 A 
ATOM     13  C   UNL     1      35.551  -2.305  16.159  0.00  0.00    +0.000 A 
ATOM     14  C   UNL     1      35.461  -0.943  16.087  0.00  0.00    +0.000 A 
ATOM     15  C   UNL     1      36.591  -0.170  15.973  0.00  0.00    +0.000 A 
ATOM     16  C   UNL     1      37.843  -0.764  15.930  0.00  0.00    +0.000 A 
ATOM     17  C   UNL     1      37.903  -2.143  16.005  0.00  0.00    +0.000 A 
ATOM     18  C   UNL     1      39.248  -2.819  15.965  0.00  0.00    +0.000 C 
ENDBRANCH   8  15
ENDBRANCH   1  10
BRANCH   1  19
ATOM     19  C   UNL     1      37.770   4.221  14.846  0.00  0.00    +0.000 C 
ATOM     20  O   UNL     1      38.698   4.532  14.110  0.00  0.00    +0.000 OA
ATOM     21  N   UNL     1      37.825   4.759  16.190  0.00  0.00    +0.000 NA
BRANCH  21  22
ATOM     22  C   UNL     1      38.970   5.613  16.563  0.00  0.00    +0.000 C 
BRANCH  22  23
ATOM     23  C   UNL     1      39.246   5.455  18.046  0.00  0.00    +0.000 C 
BRANCH  23  24
ATOM     24  C   UNL     1      38.847   6.620  18.843  0.00  0.00    +0.000 A 
ATOM     25  C   UNL     1      37.814   7.412  18.430  0.00  0.00    +0.000 A 
ATOM     26  C   UNL     1      37.430   8.513  19.183  0.00  0.00    +0.000 A 
ATOM     27  C   UNL     1      38.100   8.802  20.353  0.00  0.00    +0.000 A 
ATOM     28  C   UNL     1      39.129   8.000  20.750  0.00  0.00    +0.000 A 
ATOM     29  C   UNL     1      39.504   6.915  20.004  0.00  0.00    +0.000 A 
ENDBRANCH  23  24
ENDBRANCH  22  23
ENDBRANCH  21  22
ENDBRANCH   1  19
TORSDOF 7
ENDMDL
