MODEL 1
REMARK VINA RESULT:      -8.1      0.000      0.000
REMARK  Name = 
REMARK  8 active torsions:
REMARK  status: ('A' for Active; 'I' for Inactive)
REMARK    1  A    between atoms: C_7  and  S_8
REMARK    2  A    between atoms: S_8  and  C_9
REMARK    3  A    between atoms: C_9  and  C_11
REMARK    4  A    between atoms: N_13  and  N_14
REMARK    5  A    between atoms: C_15  and  C_16
REMARK    6  A    between atoms: C_19  and  O_20
REMARK    7  A    between atoms: O_20  and  C_21
REMARK    8  A    between atoms: C_21  and  C_22
REMARK                            x       y       z     vdW  Elec       q    Type
REMARK                         _______ _______ _______ _____ _____    ______ ____
ROOT
ATOM      1  N   UNL     1      37.729   5.016  15.548  0.00  0.00    +0.000 NA
ATOM      2  C   UNL     1      38.593   5.581  16.069  0.00  0.00    +0.000 C 
ENDROOT
BRANCH   2   3
ATOM      3  C   UNL     1      39.445   5.857  17.157  0.00  0.00    +0.000 A 
ATOM      4  C   UNL     1      40.796   6.170  17.009  0.00  0.00    +0.000 A 
ATOM      5  C   UNL     1      41.612   6.439  18.078  0.00  0.00    +0.000 A 
ATOM      6  C   UNL     1      41.147   6.416  19.370  0.00  0.00    +0.000 A 
ATOM      7  C   UNL     1      39.798   6.105  19.546  0.00  0.00    +0.000 A 
ATOM      8  C   UNL     1      38.994   5.839  18.464  0.00  0.00    +0.000 A 
BRANCH   6   9
ATOM      9  O   UNL     1      41.910   6.675  20.485  0.00  0.00    +0.000 OA
BRANCH   9  10
ATOM     10  C   UNL     1      43.143   7.350  20.512  0.00  0.00    +0.000 C 
BRANCH  10  11
ATOM     11  C   UNL     1      44.234   6.386  20.770  0.00  0.00    +0.000 A 
ATOM     12  C   UNL     1      44.139   5.486  21.804  0.00  0.00    +0.000 A 
ATOM     13  C   UNL     1      45.156   4.565  22.068  0.00  0.00    +0.000 A 
ATOM     14  C   UNL     1      46.252   4.582  21.269  0.00  0.00    +0.000 A 
ATOM     15  C   UNL     1      46.398   5.461  20.221  0.00  0.00    +0.000 A 
ATOM     16  C   UNL     1      45.370   6.357  19.992  0.00  0.00    +0.000 A 
ENDBRANCH  10  11
ENDBRANCH   9  10
ENDBRANCH   6   9
ENDBRANCH   2   3
BRANCH   1  19
ATOM     17  C   UNL     1      36.571   3.058  16.569  0.00  0.00    +0.000 C 
ATOM     18  O   UNL     1      37.379   3.026  17.489  0.00  0.00    +0.000 OA
ATOM     19  N   UNL     1      36.753   4.072  15.584  0.00  0.00    +0.000 NA
BRANCH  17  20
ATOM     20  C   UNL     1      35.383   2.091  16.401  0.00  0.00    +0.000 C 
ATOM     21  C   UNL     1      34.574   2.987  15.376  0.00  0.00    +0.000 C 
BRANCH  20  22
ATOM     22  S   UNL     1      36.141   0.849  15.199  0.00  0.00    +0.000 S 
BRANCH  22  29
ATOM     23  C   UNL     1      37.202  -1.796  19.496  0.00  0.00    +0.000 C 
ATOM     24  C   UNL     1      37.514  -1.502  18.085  0.00  0.00    +0.000 A 
ATOM     25  C   UNL     1      38.555  -2.169  17.491  0.00  0.00    +0.000 A 
ATOM     26  C   UNL     1      38.840  -1.888  16.170  0.00  0.00    +0.000 A 
ATOM     27  C   UNL     1      39.960  -2.571  15.446  0.00  0.00    +0.000 C 
ATOM     28  N   UNL     1      38.139  -0.989  15.452  0.00  0.00    +0.000 NA
ATOM     29  C   UNL     1      37.117  -0.342  16.051  0.00  0.00    +0.000 A 
ATOM     30  N   UNL     1      36.838  -0.614  17.338  0.00  0.00    +0.000 NA
ENDBRANCH  22  29
ENDBRANCH  20  22
ENDBRANCH  17  20
ENDBRANCH   1  19
TORSDOF 8
ENDMDL
MODEL 2
REMARK VINA RESULT:      -8.0      3.891      5.321
REMARK  Name = 
REMARK  8 active torsions:
REMARK  status: ('A' for Active; 'I' for Inactive)
REMARK    1  A    between atoms: C_7  and  S_8
REMARK    2  A    between atoms: S_8  and  C_9
REMARK    3  A    between atoms: C_9  and  C_11
REMARK    4  A    between atoms: N_13  and  N_14
REMARK    5  A    between atoms: C_15  and  C_16
REMARK    6  A    between atoms: C_19  and  O_20
REMARK    7  A    between atoms: O_20  and  C_21
REMARK    8  A    between atoms: C_21  and  C_22
REMARK                            x       y       z     vdW  Elec       q    Type
REMARK                         _______ _______ _______ _____ _____    ______ ____
ROOT
ATOM      1  N   UNL     1      38.504   4.206  17.496  0.00  0.00    +0.000 NA
ATOM      2  C   UNL     1      38.945   5.172  17.954  0.00  0.00    +0.000 C 
ENDROOT
BRANCH   2   3
ATOM      3  C   UNL     1      38.883   6.332  18.752  0.00  0.00    +0.000 A 
ATOM      4  C   UNL     1      39.770   6.587  19.798  0.00  0.00    +0.000 A 
ATOM      5  C   UNL     1      39.698   7.722  20.564  0.00  0.00    +0.000 A 
ATOM      6  C   UNL     1      38.743   8.685  20.350  0.00  0.00    +0.000 A 
ATOM      7  C   UNL     1      37.843   8.453  19.308  0.00  0.00    +0.000 A 
ATOM      8  C   UNL     1      37.929   7.311  18.550  0.00  0.00    +0.000 A 
BRANCH   6   9
ATOM      9  O   UNL     1      38.616   9.843  21.079  0.00  0.00    +0.000 OA
BRANCH   9  10
ATOM     10  C   UNL     1      39.482  10.951  21.042  0.00  0.00    +0.000 C 
BRANCH  10  11
ATOM     11  C   UNL     1      38.701  12.199  21.174  0.00  0.00    +0.000 A 
ATOM     12  C   UNL     1      37.966  12.678  20.116  0.00  0.00    +0.000 A 
ATOM     13  C   UNL     1      37.221  13.855  20.217  0.00  0.00    +0.000 A 
ATOM     14  C   UNL     1      37.241  14.522  21.398  0.00  0.00    +0.000 A 
ATOM     15  C   UNL     1      37.959  14.087  22.488  0.00  0.00    +0.000 A 
ATOM     16  C   UNL     1      38.684  12.919  22.349  0.00  0.00    +0.000 A 
ENDBRANCH  10  11
ENDBRANCH   9  10
ENDBRANCH   6   9
ENDBRANCH   2   3
BRANCH   1  19
ATOM     17  C   UNL     1      36.629   3.178  16.213  0.00  0.00    +0.000 C 
ATOM     18  O   UNL     1      36.862   3.895  15.248  0.00  0.00    +0.000 OA
ATOM     19  N   UNL     1      37.468   3.340  17.355  0.00  0.00    +0.000 NA
BRANCH  17  20
ATOM     20  C   UNL     1      35.507   2.124  16.282  0.00  0.00    +0.000 C 
ATOM     21  C   UNL     1      34.518   2.859  15.287  0.00  0.00    +0.000 C 
BRANCH  20  22
ATOM     22  S   UNL     1      36.213   0.820  15.116  0.00  0.00    +0.000 S 
BRANCH  22  29
ATOM     23  C   UNL     1      37.217  -1.735  19.480  0.00  0.00    +0.000 C 
ATOM     24  C   UNL     1      37.534  -1.487  18.061  0.00  0.00    +0.000 A 
ATOM     25  C   UNL     1      38.555  -2.196  17.483  0.00  0.00    +0.000 A 
ATOM     26  C   UNL     1      38.845  -1.958  16.155  0.00  0.00    +0.000 A 
ATOM     27  C   UNL     1      39.945  -2.687  15.447  0.00  0.00    +0.000 C 
ATOM     28  N   UNL     1      38.165  -1.061  15.414  0.00  0.00    +0.000 NA
ATOM     29  C   UNL     1      37.161  -0.372  15.997  0.00  0.00    +0.000 A 
ATOM     30  N   UNL     1      36.878  -0.603  17.291  0.00  0.00    +0.000 NA
ENDBRANCH  22  29
ENDBRANCH  20  22
ENDBRANCH  17  20
ENDBRANCH   1  19
TORSDOF 8
ENDMDL
MODEL 3
REMARK VINA RESULT:      -7.7      1.999      2.962
REMARK  Name = 
REMARK  8 active torsions:
REMARK  status: ('A' for Active; 'I' for Inactive)
REMARK    1  A    between atoms: C_7  and  S_8
REMARK    2  A    between atoms: S_8  and  C_9
REMARK    3  A    between atoms: C_9  and  C_11
REMARK    4  A    between atoms: N_13  and  N_14
REMARK    5  A    between atoms: C_15  and  C_16
REMARK    6  A    between atoms: C_19  and  O_20
REMARK    7  A    between atoms: O_20  and  C_21
REMARK    8  A    between atoms: C_21  and  C_22
REMARK                            x       y       z     vdW  Elec       q    Type
REMARK                         _______ _______ _______ _____ _____    ______ ____
ROOT
ATOM      1  N   UNL     1      37.936   3.261  16.110  0.00  0.00    +0.000 NA
ATOM      2  C   UNL     1      38.171   4.184  16.765  0.00  0.00    +0.000 C 
ENDROOT
BRANCH   2   3
ATOM      3  C   UNL     1      39.042   5.092  17.400  0.00  0.00    +0.000 A 
ATOM      4  C   UNL     1      39.003   5.356  18.769  0.00  0.00    +0.000 A 
ATOM      5  C   UNL     1      39.859   6.241  19.374  0.00  0.00    +0.000 A 
ATOM      6  C   UNL     1      40.815   6.927  18.665  0.00  0.00    +0.000 A 
ATOM      7  C   UNL     1      40.874   6.680  17.292  0.00  0.00    +0.000 A 
ATOM      8  C   UNL     1      40.009   5.790  16.703  0.00  0.00    +0.000 A 
BRANCH   6   9
ATOM      9  O   UNL     1      41.703   7.826  19.207  0.00  0.00    +0.000 OA
BRANCH   9  10
ATOM     10  C   UNL     1      43.087   7.878  18.965  0.00  0.00    +0.000 C 
BRANCH  10  11
ATOM     11  C   UNL     1      43.798   7.039  19.953  0.00  0.00    +0.000 A 
ATOM     12  C   UNL     1      45.043   6.529  19.670  0.00  0.00    +0.000 A 
ATOM     13  C   UNL     1      45.734   5.734  20.587  0.00  0.00    +0.000 A 
ATOM     14  C   UNL     1      45.139   5.474  21.779  0.00  0.00    +0.000 A 
ATOM     15  C   UNL     1      43.895   5.958  22.113  0.00  0.00    +0.000 A 
ATOM     16  C   UNL     1      43.243   6.740  21.178  0.00  0.00    +0.000 A 
ENDBRANCH  10  11
ENDBRANCH   9  10
ENDBRANCH   6   9
ENDBRANCH   2   3
BRANCH   1  19
ATOM     17  C   UNL     1      37.653   1.557  14.312  0.00  0.00    +0.000 C 
ATOM     18  O   UNL     1      36.531   1.975  14.055  0.00  0.00    +0.000 OA
ATOM     19  N   UNL     1      38.365   2.214  15.358  0.00  0.00    +0.000 NA
BRANCH  17  20
ATOM     20  C   UNL     1      38.346   0.383  13.593  0.00  0.00    +0.000 C 
ATOM     21  C   UNL     1      39.726   1.120  13.350  0.00  0.00    +0.000 C 
BRANCH  20  22
ATOM     22  S   UNL     1      38.816  -0.679  15.080  0.00  0.00    +0.000 S 
BRANCH  22  29
ATOM     23  C   UNL     1      34.510  -3.485  15.495  0.00  0.00    +0.000 C 
ATOM     24  C   UNL     1      35.430  -2.492  16.078  0.00  0.00    +0.000 A 
ATOM     25  C   UNL     1      35.139  -1.975  17.314  0.00  0.00    +0.000 A 
ATOM     26  C   UNL     1      36.006  -1.046  17.854  0.00  0.00    +0.000 A 
ATOM     27  C   UNL     1      35.762  -0.431  19.198  0.00  0.00    +0.000 C 
ATOM     28  N   UNL     1      37.117  -0.633  17.213  0.00  0.00    +0.000 NA
ATOM     29  C   UNL     1      37.390  -1.152  15.997  0.00  0.00    +0.000 A 
ATOM     30  N   UNL     1      36.547  -2.057  15.470  0.00  0.00    +0.000 NA
ENDBRANCH  22  29
ENDBRANCH  20  22
ENDBRANCH  17  20
ENDBRANCH   1  19
TORSDOF 8
ENDMDL
MODEL 4
REMARK VINA RESULT:      -7.7      3.487      4.889
REMARK  Name = 
REMARK  8 active torsions:
REMARK  status: ('A' for Active; 'I' for Inactive)
REMARK    1  A    between atoms: C_7  and  S_8
REMARK    2  A    between atoms: S_8  and  C_9
REMARK    3  A    between atoms: C_9  and  C_11
REMARK    4  A    between atoms: N_13  and  N_14
REMARK    5  A    between atoms: C_15  and  C_16
REMARK    6  A    between atoms: C_19  and  O_20
REMARK    7  A    between atoms: O_20  and  C_21
REMARK    8  A    between atoms: C_21  and  C_22
REMARK                            x       y       z     vdW  Elec       q    Type
REMARK                         _______ _______ _______ _____ _____    ______ ____
ROOT
ATOM      1  N   UNL     1      38.528   4.258  17.490  0.00  0.00    +0.000 NA
ATOM      2  C   UNL     1      38.934   5.220  17.986  0.00  0.00    +0.000 C 
ENDROOT
BRANCH   2   3
ATOM      3  C   UNL     1      38.812   6.380  18.777  0.00  0.00    +0.000 A 
ATOM      4  C   UNL     1      39.654   6.661  19.853  0.00  0.00    +0.000 A 
ATOM      5  C   UNL     1      39.524   7.795  20.613  0.00  0.00    +0.000 A 
ATOM      6  C   UNL     1      38.551   8.731  20.362  0.00  0.00    +0.000 A 
ATOM      7  C   UNL     1      37.695   8.472  19.290  0.00  0.00    +0.000 A 
ATOM      8  C   UNL     1      37.839   7.332  18.538  0.00  0.00    +0.000 A 
BRANCH   6   9
ATOM      9  O   UNL     1      38.366   9.887  21.083  0.00  0.00    +0.000 OA
BRANCH   9  10
ATOM     10  C   UNL     1      38.403  11.199  20.577  0.00  0.00    +0.000 C 
BRANCH  10  11
ATOM     11  C   UNL     1      39.264  12.040  21.435  0.00  0.00    +0.000 A 
ATOM     12  C   UNL     1      38.713  12.998  22.252  0.00  0.00    +0.000 A 
ATOM     13  C   UNL     1      39.506  13.804  23.072  0.00  0.00    +0.000 A 
ATOM     14  C   UNL     1      40.850  13.617  23.041  0.00  0.00    +0.000 A 
ATOM     15  C   UNL     1      41.453  12.672  22.242  0.00  0.00    +0.000 A 
ATOM     16  C   UNL     1      40.634  11.895  21.446  0.00  0.00    +0.000 A 
ENDBRANCH  10  11
ENDBRANCH   9  10
ENDBRANCH   6   9
ENDBRANCH   2   3
BRANCH   1  19
ATOM     17  C   UNL     1      37.025   2.948  15.992  0.00  0.00    +0.000 C 
ATOM     18  O   UNL     1      37.599   3.375  14.998  0.00  0.00    +0.000 OA
ATOM     19  N   UNL     1      37.501   3.400  17.258  0.00  0.00    +0.000 NA
BRANCH  17  20
ATOM     20  C   UNL     1      35.838   1.966  15.974  0.00  0.00    +0.000 C 
ATOM     21  C   UNL     1      35.011   2.716  14.851  0.00  0.00    +0.000 C 
BRANCH  20  22
ATOM     22  S   UNL     1      36.580   0.573  14.940  0.00  0.00    +0.000 S 
BRANCH  22  29
ATOM     23  C   UNL     1      40.174  -3.078  15.516  0.00  0.00    +0.000 C 
ATOM     24  C   UNL     1      39.094  -2.266  16.106  0.00  0.00    +0.000 A 
ATOM     25  C   UNL     1      38.776  -2.457  17.426  0.00  0.00    +0.000 A 
ATOM     26  C   UNL     1      37.764  -1.693  17.970  0.00  0.00    +0.000 A 
ATOM     27  C   UNL     1      37.353  -1.839  19.403  0.00  0.00    +0.000 C 
ATOM     28  N   UNL     1      37.083  -0.776  17.255  0.00  0.00    +0.000 NA
ATOM     29  C   UNL     1      37.408  -0.599  15.957  0.00  0.00    +0.000 A 
ATOM     30  N   UNL     1      38.394  -1.343  15.425  0.00  0.00    +0.000 NA
ENDBRANCH  22  29
ENDBRANCH  20  22
ENDBRANCH  17  20
ENDBRANCH   1  19
TORSDOF 8
ENDMDL
MODEL 5
REMARK VINA RESULT:      -7.6      1.259      1.930
REMARK  Name = 
REMARK  8 active torsions:
REMARK  status: ('A' for Active; 'I' for Inactive)
REMARK    1  A    between atoms: C_7  and  S_8
REMARK    2  A    between atoms: S_8  and  C_9
REMARK    3  A    between atoms: C_9  and  C_11
REMARK    4  A    between atoms: N_13  and  N_14
REMARK    5  A    between atoms: C_15  and  C_16
REMARK    6  A    between atoms: C_19  and  O_20
REMARK    7  A    between atoms: O_20  and  C_21
REMARK    8  A    between atoms: C_21  and  C_22
REMARK                            x       y       z     vdW  Elec       q    Type
REMARK                         _______ _______ _______ _____ _____    ______ ____
ROOT
ATOM      1  N   UNL     1      37.917   4.795  15.371  0.00  0.00    +0.000 NA
ATOM      2  C   UNL     1      38.826   5.335  15.840  0.00  0.00    +0.000 C 
ENDROOT
BRANCH   2   3
ATOM      3  C   UNL     1      39.643   5.725  16.920  0.00  0.00    +0.000 A 
ATOM      4  C   UNL     1      39.214   5.705  18.247  0.00  0.00    +0.000 A 
ATOM      5  C   UNL     1      40.022   6.085  19.288  0.00  0.00    +0.000 A 
ATOM      6  C   UNL     1      41.311   6.512  19.089  0.00  0.00    +0.000 A 
ATOM      7  C   UNL     1      41.765   6.542  17.769  0.00  0.00    +0.000 A 
ATOM      8  C   UNL     1      40.942   6.157  16.738  0.00  0.00    +0.000 A 
BRANCH   6   9
ATOM      9  O   UNL     1      42.173   6.907  20.085  0.00  0.00    +0.000 OA
BRANCH   9  10
ATOM     10  C   UNL     1      42.539   6.154  21.216  0.00  0.00    +0.000 C 
BRANCH  10  11
ATOM     11  C   UNL     1      43.970   5.793  21.132  0.00  0.00    +0.000 A 
ATOM     12  C   UNL     1      44.789   6.393  20.207  0.00  0.00    +0.000 A 
ATOM     13  C   UNL     1      46.143   6.068  20.109  0.00  0.00    +0.000 A 
ATOM     14  C   UNL     1      46.637   5.133  20.960  0.00  0.00    +0.000 A 
ATOM     15  C   UNL     1      45.861   4.501  21.904  0.00  0.00    +0.000 A 
ATOM     16  C   UNL     1      44.526   4.850  21.970  0.00  0.00    +0.000 A 
ENDBRANCH  10  11
ENDBRANCH   9  10
ENDBRANCH   6   9
ENDBRANCH   2   3
BRANCH   1  19
ATOM     17  C   UNL     1      36.531   3.091  16.552  0.00  0.00    +0.000 C 
ATOM     18  O   UNL     1      37.388   2.954  17.416  0.00  0.00    +0.000 OA
ATOM     19  N   UNL     1      36.804   4.030  15.514  0.00  0.00    +0.000 NA
BRANCH  17  20
ATOM     20  C   UNL     1      35.191   2.332  16.507  0.00  0.00    +0.000 C 
ATOM     21  C   UNL     1      35.382   1.731  15.054  0.00  0.00    +0.000 C 
BRANCH  20  22
ATOM     22  S   UNL     1      35.641   0.815  17.535  0.00  0.00    +0.000 S 
BRANCH  22  29
ATOM     23  C   UNL     1      35.309  -3.559  14.824  0.00  0.00    +0.000 C 
ATOM     24  C   UNL     1      36.132  -2.441  15.320  0.00  0.00    +0.000 A 
ATOM     25  C   UNL     1      37.462  -2.406  14.986  0.00  0.00    +0.000 A 
ATOM     26  C   UNL     1      38.225  -1.356  15.454  0.00  0.00    +0.000 A 
ATOM     27  C   UNL     1      39.685  -1.243  15.137  0.00  0.00    +0.000 C 
ATOM     28  N   UNL     1      37.714  -0.373  16.221  0.00  0.00    +0.000 NA
ATOM     29  C   UNL     1      36.403  -0.420  16.540  0.00  0.00    +0.000 A 
ATOM     30  N   UNL     1      35.658  -1.443  16.085  0.00  0.00    +0.000 NA
ENDBRANCH  22  29
ENDBRANCH  20  22
ENDBRANCH  17  20
ENDBRANCH   1  19
TORSDOF 8
ENDMDL
MODEL 6
REMARK VINA RESULT:      -7.5      2.951      4.584
REMARK  Name = 
REMARK  8 active torsions:
REMARK  status: ('A' for Active; 'I' for Inactive)
REMARK    1  A    between atoms: C_7  and  S_8
REMARK    2  A    between atoms: S_8  and  C_9
REMARK    3  A    between atoms: C_9  and  C_11
REMARK    4  A    between atoms: N_13  and  N_14
REMARK    5  A    between atoms: C_15  and  C_16
REMARK    6  A    between atoms: C_19  and  O_20
REMARK    7  A    between atoms: O_20  and  C_21
REMARK    8  A    between atoms: C_21  and  C_22
REMARK                            x       y       z     vdW  Elec       q    Type
REMARK                         _______ _______ _______ _____ _____    ______ ____
ROOT
ATOM      1  N   UNL     1      37.961   3.522  14.167  0.00  0.00    +0.000 NA
ATOM      2  C   UNL     1      38.254   4.347  14.923  0.00  0.00    +0.000 C 
ENDROOT
BRANCH   2   3
ATOM      3  C   UNL     1      38.848   4.815  16.112  0.00  0.00    +0.000 A 
ATOM      4  C   UNL     1      40.004   5.596  16.132  0.00  0.00    +0.000 A 
ATOM      5  C   UNL     1      40.569   6.047  17.297  0.00  0.00    +0.000 A 
ATOM      6  C   UNL     1      40.030   5.755  18.526  0.00  0.00    +0.000 A 
ATOM      7  C   UNL     1      38.873   4.974  18.533  0.00  0.00    +0.000 A 
ATOM      8  C   UNL     1      38.319   4.531  17.356  0.00  0.00    +0.000 A 
BRANCH   6   9
ATOM      9  O   UNL     1      40.544   6.173  19.730  0.00  0.00    +0.000 OA
BRANCH   9  10
ATOM     10  C   UNL     1      40.979   7.474  20.044  0.00  0.00    +0.000 C 
BRANCH  10  11
ATOM     11  C   UNL     1      39.865   8.429  19.863  0.00  0.00    +0.000 A 
ATOM     12  C   UNL     1      38.708   8.298  20.594  0.00  0.00    +0.000 A 
ATOM     13  C   UNL     1      37.643   9.187  20.441  0.00  0.00    +0.000 A 
ATOM     14  C   UNL     1      37.778  10.196  19.544  0.00  0.00    +0.000 A 
ATOM     15  C   UNL     1      38.914  10.372  18.787  0.00  0.00    +0.000 A 
ATOM     16  C   UNL     1      39.946   9.471  18.967  0.00  0.00    +0.000 A 
ENDBRANCH  10  11
ENDBRANCH   9  10
ENDBRANCH   6   9
ENDBRANCH   2   3
BRANCH   1  19
ATOM     17  C   UNL     1      38.889   1.208  14.189  0.00  0.00    +0.000 C 
ATOM     18  O   UNL     1      39.792   1.548  14.942  0.00  0.00    +0.000 OA
ATOM     19  N   UNL     1      37.959   2.215  13.797  0.00  0.00    +0.000 NA
BRANCH  17  20
ATOM     20  C   UNL     1      38.686  -0.217  13.638  0.00  0.00    +0.000 C 
ATOM     21  C   UNL     1      40.129  -0.364  13.003  0.00  0.00    +0.000 C 
BRANCH  20  22
ATOM     22  S   UNL     1      38.938  -1.217  15.219  0.00  0.00    +0.000 S 
BRANCH  22  29
ATOM     23  C   UNL     1      34.313  -3.450  15.674  0.00  0.00    +0.000 C 
ATOM     24  C   UNL     1      35.315  -2.504  16.199  0.00  0.00    +0.000 A 
ATOM     25  C   UNL     1      35.027  -1.815  17.348  0.00  0.00    +0.000 A 
ATOM     26  C   UNL     1      35.971  -0.932  17.833  0.00  0.00    +0.000 A 
ATOM     27  C   UNL     1      35.736  -0.138  19.082  0.00  0.00    +0.000 C 
ATOM     28  N   UNL     1      37.153  -0.726  17.221  0.00  0.00    +0.000 NA
ATOM     29  C   UNL     1      37.422  -1.413  16.091  0.00  0.00    +0.000 A 
ATOM     30  N   UNL     1      36.504  -2.274  15.617  0.00  0.00    +0.000 NA
ENDBRANCH  22  29
ENDBRANCH  20  22
ENDBRANCH  17  20
ENDBRANCH   1  19
TORSDOF 8
ENDMDL
MODEL 7
REMARK VINA RESULT:      -7.4      1.669      2.960
REMARK  Name = 
REMARK  8 active torsions:
REMARK  status: ('A' for Active; 'I' for Inactive)
REMARK    1  A    between atoms: C_7  and  S_8
REMARK    2  A    between atoms: S_8  and  C_9
REMARK    3  A    between atoms: C_9  and  C_11
REMARK    4  A    between atoms: N_13  and  N_14
REMARK    5  A    between atoms: C_15  and  C_16
REMARK    6  A    between atoms: C_19  and  O_20
REMARK    7  A    between atoms: O_20  and  C_21
REMARK    8  A    between atoms: C_21  and  C_22
REMARK                            x       y       z     vdW  Elec       q    Type
REMARK                         _______ _______ _______ _____ _____    ______ ____
ROOT
ATOM      1  N   UNL     1      38.172   4.586  15.489  0.00  0.00    +0.000 NA
ATOM      2  C   UNL     1      39.016   5.186  16.004  0.00  0.00    +0.000 C 
ENDROOT
BRANCH   2   3
ATOM      3  C   UNL     1      39.730   5.649  17.127  0.00  0.00    +0.000 A 
ATOM      4  C   UNL     1      39.178   5.724  18.405  0.00  0.00    +0.000 A 
ATOM      5  C   UNL     1      39.886   6.175  19.489  0.00  0.00    +0.000 A 
ATOM      6  C   UNL     1      41.192   6.586  19.384  0.00  0.00    +0.000 A 
ATOM      7  C   UNL     1      41.769   6.521  18.114  0.00  0.00    +0.000 A 
ATOM      8  C   UNL     1      41.045   6.066  17.039  0.00  0.00    +0.000 A 
BRANCH   6   9
ATOM      9  O   UNL     1      41.959   7.048  20.428  0.00  0.00    +0.000 OA
BRANCH   9  10
ATOM     10  C   UNL     1      43.024   7.962  20.338  0.00  0.00    +0.000 C 
BRANCH  10  11
ATOM     11  C   UNL     1      42.610   9.266  20.898  0.00  0.00    +0.000 A 
ATOM     12  C   UNL     1      41.412   9.833  20.536  0.00  0.00    +0.000 A 
ATOM     13  C   UNL     1      40.999  11.064  21.052  0.00  0.00    +0.000 A 
ATOM     14  C   UNL     1      41.820  11.694  21.929  0.00  0.00    +0.000 A 
ATOM     15  C   UNL     1      43.030  11.171  22.326  0.00  0.00    +0.000 A 
ATOM     16  C   UNL     1      43.403   9.952  21.793  0.00  0.00    +0.000 A 
ENDBRANCH  10  11
ENDBRANCH   9  10
ENDBRANCH   6   9
ENDBRANCH   2   3
BRANCH   1  19
ATOM     17  C   UNL     1      36.679   3.002  16.705  0.00  0.00    +0.000 C 
ATOM     18  O   UNL     1      37.371   3.080  17.712  0.00  0.00    +0.000 OA
ATOM     19  N   UNL     1      37.090   3.770  15.576  0.00  0.00    +0.000 NA
BRANCH  17  20
ATOM     20  C   UNL     1      35.408   2.141  16.570  0.00  0.00    +0.000 C 
ATOM     21  C   UNL     1      34.638   3.122  15.593  0.00  0.00    +0.000 C 
BRANCH  20  22
ATOM     22  S   UNL     1      36.010   0.863  15.318  0.00  0.00    +0.000 S 
BRANCH  22  29
ATOM     23  C   UNL     1      37.352  -1.939  19.433  0.00  0.00    +0.000 C 
ATOM     24  C   UNL     1      37.604  -1.552  18.033  0.00  0.00    +0.000 A 
ATOM     25  C   UNL     1      38.663  -2.123  17.375  0.00  0.00    +0.000 A 
ATOM     26  C   UNL     1      38.892  -1.756  16.064  0.00  0.00    +0.000 A 
ATOM     27  C   UNL     1      40.027  -2.331  15.273  0.00  0.00    +0.000 C 
ATOM     28  N   UNL     1      38.118  -0.863  15.416  0.00  0.00    +0.000 NA
ATOM     29  C   UNL     1      37.079  -0.310  16.077  0.00  0.00    +0.000 A 
ATOM     30  N   UNL     1      36.855  -0.667  17.354  0.00  0.00    +0.000 NA
ENDBRANCH  22  29
ENDBRANCH  20  22
ENDBRANCH  17  20
ENDBRANCH   1  19
TORSDOF 8
ENDMDL
MODEL 8
REMARK VINA RESULT:      -7.4      3.921      7.872
REMARK  Name = 
REMARK  8 active torsions:
REMARK  status: ('A' for Active; 'I' for Inactive)
REMARK    1  A    between atoms: C_7  and  S_8
REMARK    2  A    between atoms: S_8  and  C_9
REMARK    3  A    between atoms: C_9  and  C_11
REMARK    4  A    between atoms: N_13  and  N_14
REMARK    5  A    between atoms: C_15  and  C_16
REMARK    6  A    between atoms: C_19  and  O_20
REMARK    7  A    between atoms: O_20  and  C_21
REMARK    8  A    between atoms: C_21  and  C_22
REMARK                            x       y       z     vdW  Elec       q    Type
REMARK                         _______ _______ _______ _____ _____    ______ ____
ROOT
ATOM      1  N   UNL     1      37.705   0.440  15.393  0.00  0.00    +0.000 NA
ATOM      2  C   UNL     1      38.465  -0.364  15.055  0.00  0.00    +0.000 C 
ENDROOT
BRANCH   2   3
ATOM      3  C   UNL     1      39.764  -0.835  14.780  0.00  0.00    +0.000 A 
ATOM      4  C   UNL     1      40.156  -2.157  14.986  0.00  0.00    +0.000 A 
ATOM      5  C   UNL     1      41.423  -2.602  14.711  0.00  0.00    +0.000 A 
ATOM      6  C   UNL     1      42.394  -1.768  14.213  0.00  0.00    +0.000 A 
ATOM      7  C   UNL     1      42.027  -0.438  13.997  0.00  0.00    +0.000 A 
ATOM      8  C   UNL     1      40.752  -0.010  14.278  0.00  0.00    +0.000 A 
BRANCH   6   9
ATOM      9  O   UNL     1      43.681  -2.147  13.915  0.00  0.00    +0.000 OA
BRANCH   9  10
ATOM     10  C   UNL     1      44.832  -1.346  14.026  0.00  0.00    +0.000 C 
BRANCH  10  11
ATOM     11  C   UNL     1      45.277  -1.303  15.435  0.00  0.00    +0.000 A 
ATOM     12  C   UNL     1      45.273  -0.119  16.132  0.00  0.00    +0.000 A 
ATOM     13  C   UNL     1      45.687  -0.054  17.464  0.00  0.00    +0.000 A 
ATOM     14  C   UNL     1      46.100  -1.201  18.060  0.00  0.00    +0.000 A 
ATOM     15  C   UNL     1      46.125  -2.412  17.408  0.00  0.00    +0.000 A 
ATOM     16  C   UNL     1      45.707  -2.436  16.091  0.00  0.00    +0.000 A 
ENDBRANCH  10  11
ENDBRANCH   9  10
ENDBRANCH   6   9
ENDBRANCH   2   3
BRANCH   1  19
ATOM     17  C   UNL     1      37.771   2.925  15.189  0.00  0.00    +0.000 C 
ATOM     18  O   UNL     1      38.350   2.847  14.113  0.00  0.00    +0.000 OA
ATOM     19  N   UNL     1      37.444   1.697  15.837  0.00  0.00    +0.000 NA
BRANCH  17  20
ATOM     20  C   UNL     1      37.373   4.239  15.887  0.00  0.00    +0.000 C 
ATOM     21  C   UNL     1      37.246   3.630  17.343  0.00  0.00    +0.000 C 
BRANCH  20  22
ATOM     22  S   UNL     1      39.068   5.056  16.036  0.00  0.00    +0.000 S 
BRANCH  22  29
ATOM     23  C   UNL     1      37.201   8.534  19.352  0.00  0.00    +0.000 C 
ATOM     24  C   UNL     1      38.256   7.567  18.999  0.00  0.00    +0.000 A 
ATOM     25  C   UNL     1      39.308   7.399  19.862  0.00  0.00    +0.000 A 
ATOM     26  C   UNL     1      40.291   6.491  19.524  0.00  0.00    +0.000 A 
ATOM     27  C   UNL     1      41.474   6.248  20.409  0.00  0.00    +0.000 C 
ATOM     28  N   UNL     1      40.253   5.772  18.385  0.00  0.00    +0.000 NA
ATOM     29  C   UNL     1      39.210   5.948  17.546  0.00  0.00    +0.000 A 
ATOM     30  N   UNL     1      38.251   6.832  17.874  0.00  0.00    +0.000 NA
ENDBRANCH  22  29
ENDBRANCH  20  22
ENDBRANCH  17  20
ENDBRANCH   1  19
TORSDOF 8
ENDMDL
MODEL 9
REMARK VINA RESULT:      -7.4      2.631      3.308
REMARK  Name = 
REMARK  8 active torsions:
REMARK  status: ('A' for Active; 'I' for Inactive)
REMARK    1  A    between atoms: C_7  and  S_8
REMARK    2  A    between atoms: S_8  and  C_9
REMARK    3  A    between atoms: C_9  and  C_11
REMARK    4  A    between atoms: N_13  and  N_14
REMARK    5  A    between atoms: C_15  and  C_16
REMARK    6  A    between atoms: C_19  and  O_20
REMARK    7  A    between atoms: O_20  and  C_21
REMARK    8  A    between atoms: C_21  and  C_22
REMARK                            x       y       z     vdW  Elec       q    Type
REMARK                         _______ _______ _______ _____ _____    ______ ____
ROOT
ATOM      1  N   UNL     1      37.420   3.193  16.502  0.00  0.00    +0.000 NA
ATOM      2  C   UNL     1      37.840   4.131  17.031  0.00  0.00    +0.000 C 
ENDROOT
BRANCH   2   3
ATOM      3  C   UNL     1      38.882   4.974  17.466  0.00  0.00    +0.000 A 
ATOM      4  C   UNL     1      39.851   5.495  16.609  0.00  0.00    +0.000 A 
ATOM      5  C   UNL     1      40.858   6.316  17.047  0.00  0.00    +0.000 A 
ATOM      6  C   UNL     1      40.977   6.678  18.366  0.00  0.00    +0.000 A 
ATOM      7  C   UNL     1      40.020   6.169  19.245  0.00  0.00    +0.000 A 
ATOM      8  C   UNL     1      39.017   5.349  18.789  0.00  0.00    +0.000 A 
BRANCH   6   9
ATOM      9  O   UNL     1      41.961   7.496  18.872  0.00  0.00    +0.000 OA
BRANCH   9  10
ATOM     10  C   UNL     1      42.292   7.659  20.229  0.00  0.00    +0.000 C 
BRANCH  10  11
ATOM     11  C   UNL     1      43.464   6.821  20.561  0.00  0.00    +0.000 A 
ATOM     12  C   UNL     1      43.402   5.909  21.587  0.00  0.00    +0.000 A 
ATOM     13  C   UNL     1      44.496   5.107  21.919  0.00  0.00    +0.000 A 
ATOM     14  C   UNL     1      45.634   5.251  21.194  0.00  0.00    +0.000 A 
ATOM     15  C   UNL     1      45.750   6.148  20.157  0.00  0.00    +0.000 A 
ATOM     16  C   UNL     1      44.646   6.924  19.860  0.00  0.00    +0.000 A 
ENDBRANCH  10  11
ENDBRANCH   9  10
ENDBRANCH   6   9
ENDBRANCH   2   3
BRANCH   1  19
ATOM     17  C   UNL     1      36.641   1.112  15.370  0.00  0.00    +0.000 C 
ATOM     18  O   UNL     1      35.475   1.369  15.640  0.00  0.00    +0.000 OA
ATOM     19  N   UNL     1      37.628   2.042  15.810  0.00  0.00    +0.000 NA
BRANCH  17  20
ATOM     20  C   UNL     1      37.116  -0.133  14.596  0.00  0.00    +0.000 C 
ATOM     21  C   UNL     1      38.660   0.214  14.640  0.00  0.00    +0.000 C 
BRANCH  20  22
ATOM     22  S   UNL     1      37.046  -1.421  15.974  0.00  0.00    +0.000 S 
BRANCH  22  29
ATOM     23  C   UNL     1      33.981  -5.167  14.198  0.00  0.00    +0.000 C 
ATOM     24  C   UNL     1      34.174  -4.013  15.095  0.00  0.00    +0.000 A 
ATOM     25  C   UNL     1      33.136  -3.632  15.906  0.00  0.00    +0.000 A 
ATOM     26  C   UNL     1      33.324  -2.551  16.743  0.00  0.00    +0.000 A 
ATOM     27  C   UNL     1      32.241  -2.068  17.659  0.00  0.00    +0.000 C 
ATOM     28  N   UNL     1      34.482  -1.863  16.790  0.00  0.00    +0.000 NA
ATOM     29  C   UNL     1      35.495  -2.251  15.986  0.00  0.00    +0.000 A 
ATOM     30  N   UNL     1      35.313  -3.305  15.170  0.00  0.00    +0.000 NA
ENDBRANCH  22  29
ENDBRANCH  20  22
ENDBRANCH  17  20
ENDBRANCH   1  19
TORSDOF 8
ENDMDL
MODEL 10
REMARK VINA RESULT:      -7.3      2.860      4.545
REMARK  Name = 
REMARK  8 active torsions:
REMARK  status: ('A' for Active; 'I' for Inactive)
REMARK    1  A    between atoms: C_7  and  S_8
REMARK    2  A    between atoms: S_8  and  C_9
REMARK    3  A    between atoms: C_9  and  C_11
REMARK    4  A    between atoms: N_13  and  N_14
REMARK    5  A    between atoms: C_15  and  C_16
REMARK    6  A    between atoms: C_19  and  O_20
REMARK    7  A    between atoms: O_20  and  C_21
REMARK    8  A    between atoms: C_21  and  C_22
REMARK                            x       y       z     vdW  Elec       q    Type
REMARK                         _______ _______ _______ _____ _____    ______ ____
ROOT
ATOM      1  N   UNL     1      36.958   3.031  14.882  0.00  0.00    +0.000 NA
ATOM      2  C   UNL     1      37.287   3.856  15.623  0.00  0.00    +0.000 C 
ENDROOT
BRANCH   2   3
ATOM      3  C   UNL     1      38.225   4.514  16.442  0.00  0.00    +0.000 A 
ATOM      4  C   UNL     1      38.184   4.472  17.836  0.00  0.00    +0.000 A 
ATOM      5  C   UNL     1      39.105   5.117  18.621  0.00  0.00    +0.000 A 
ATOM      6  C   UNL     1      40.134   5.849  18.080  0.00  0.00    +0.000 A 
ATOM      7  C   UNL     1      40.198   5.907  16.687  0.00  0.00    +0.000 A 
ATOM      8  C   UNL     1      39.267   5.255  15.916  0.00  0.00    +0.000 A 
BRANCH   6   9
ATOM      9  O   UNL     1      41.090   6.518  18.807  0.00  0.00    +0.000 OA
BRANCH   9  10
ATOM     10  C   UNL     1      40.941   7.028  20.110  0.00  0.00    +0.000 C 
BRANCH  10  11
ATOM     11  C   UNL     1      40.029   8.192  20.087  0.00  0.00    +0.000 A 
ATOM     12  C   UNL     1      40.420   9.374  19.506  0.00  0.00    +0.000 A 
ATOM     13  C   UNL     1      39.576  10.487  19.472  0.00  0.00    +0.000 A 
ATOM     14  C   UNL     1      38.347  10.371  20.035  0.00  0.00    +0.000 A 
ATOM     15  C   UNL     1      37.906   9.211  20.630  0.00  0.00    +0.000 A 
ATOM     16  C   UNL     1      38.770   8.133  20.643  0.00  0.00    +0.000 A 
ENDBRANCH  10  11
ENDBRANCH   9  10
ENDBRANCH   6   9
ENDBRANCH   2   3
BRANCH   1  19
ATOM     17  C   UNL     1      38.368   1.057  14.304  0.00  0.00    +0.000 C 
ATOM     18  O   UNL     1      39.151   1.318  15.210  0.00  0.00    +0.000 OA
ATOM     19  N   UNL     1      37.254   1.932  14.141  0.00  0.00    +0.000 NA
BRANCH  17  20
ATOM     20  C   UNL     1      38.499  -0.136  13.338  0.00  0.00    +0.000 C 
ATOM     21  C   UNL     1      40.027   0.091  12.990  0.00  0.00    +0.000 C 
BRANCH  20  22
ATOM     22  S   UNL     1      38.668  -1.546  14.581  0.00  0.00    +0.000 S 
BRANCH  22  29
ATOM     23  C   UNL     1      35.176  -0.762  18.292  0.00  0.00    +0.000 C 
ATOM     24  C   UNL     1      35.581  -1.486  17.073  0.00  0.00    +0.000 A 
ATOM     25  C   UNL     1      34.732  -2.431  16.558  0.00  0.00    +0.000 A 
ATOM     26  C   UNL     1      35.118  -3.103  15.417  0.00  0.00    +0.000 A 
ATOM     27  C   UNL     1      34.251  -4.151  14.790  0.00  0.00    +0.000 C 
ATOM     28  N   UNL     1      36.291  -2.865  14.797  0.00  0.00    +0.000 NA
ATOM     29  C   UNL     1      37.116  -1.931  15.316  0.00  0.00    +0.000 A 
ATOM     30  N   UNL     1      36.740  -1.275  16.428  0.00  0.00    +0.000 NA
ENDBRANCH  22  29
ENDBRANCH  20  22
ENDBRANCH  17  20
ENDBRANCH   1  19
TORSDOF 8
ENDMDL
