MODEL 1
REMARK VINA RESULT:      -7.0      0.000      0.000
REMARK  Name = 
REMARK  9 active torsions:
REMARK  status: ('A' for Active; 'I' for Inactive)
REMARK    1  A    between atoms: C_2  and  O_3
REMARK    2  A    between atoms: O_3  and  C_4
REMARK    3  A    between atoms: C_6  and  C_7
REMARK    4  A    between atoms: N_8  and  N_9
REMARK    5  A    between atoms: C_10  and  C_12
REMARK    6  A    between atoms: C_15  and  O_16
REMARK    7  A    between atoms: C_22  and  O_23
REMARK    8  A    between atoms: O_23  and  C_24
REMARK    9  A    between atoms: C_24  and  C_25
REMARK                            x       y       z     vdW  Elec       q    Type
REMARK                         _______ _______ _______ _____ _____    ______ ____
ROOT
ATOM      1  C   UNL     1      37.590   0.883  14.609  0.00  0.00    +0.000 A 
ATOM      2  C   UNL     1      37.035   1.259  13.391  0.00  0.00    +0.000 A 
ATOM      3  C   UNL     1      37.197   0.502  12.252  0.00  0.00    +0.000 A 
ATOM      4  C   UNL     1      37.940  -0.655  12.371  0.00  0.00    +0.000 A 
ATOM      5  C   UNL     1      38.506  -1.055  13.566  0.00  0.00    +0.000 A 
ATOM      6  C   UNL     1      38.329  -0.278  14.703  0.00  0.00    +0.000 A 
ENDROOT
BRANCH   3   7
ATOM      7  C   UNL     1      36.598   0.921  10.968  0.00  0.00    +0.000 C 
ATOM      8  N   UNL     1      37.229   1.634  10.122  0.00  0.00    +0.000 NA
BRANCH   8   9
ATOM      9  N   UNL     1      36.638   2.017   8.914  0.00  0.00    +0.000 NA
ATOM     10  C   UNL     1      36.407   3.386   8.611  0.00  0.00    +0.000 C 
ATOM     11  O   UNL     1      36.755   4.235   9.471  0.00  0.00    +0.000 OA
BRANCH  10  12
ATOM     12  C   UNL     1      35.788   3.770   7.344  0.00  0.00    +0.000 A 
ATOM     13  C   UNL     1      35.160   4.992   7.240  0.00  0.00    +0.000 A 
ATOM     14  C   UNL     1      34.565   5.369   6.037  0.00  0.00    +0.000 A 
ATOM     15  C   UNL     1      34.577   4.557   4.923  0.00  0.00    +0.000 A 
ATOM     16  C   UNL     1      35.207   3.337   5.036  0.00  0.00    +0.000 A 
ATOM     17  C   UNL     1      35.805   2.952   6.236  0.00  0.00    +0.000 A 
BRANCH  15  18
ATOM     18  O   UNL     1      33.981   4.935   3.714  0.00  0.00    +0.000 OA
ATOM     19  C   UNL     1      34.208   6.229   3.191  0.00  0.00    +0.000 C 
ENDBRANCH  15  18
ENDBRANCH  10  12
ENDBRANCH   8   9
ENDBRANCH   3   7
BRANCH   1  20
ATOM     20  O   UNL     1      37.427   1.644  15.757  0.00  0.00    +0.000 OA
BRANCH  20  22
ATOM     21  C   UNL     1      35.151   2.240  16.341  0.00  0.00    +0.000 C 
ATOM     22  C   UNL     1      36.500   2.688  15.879  0.00  0.00    +0.000 C 
ENDBRANCH  20  22
ENDBRANCH   1  20
BRANCH   6  23
ATOM     23  O   UNL     1      38.875  -0.636  15.926  0.00  0.00    +0.000 OA
BRANCH  23  24
ATOM     24  C   UNL     1      38.553  -1.803  16.619  0.00  0.00    +0.000 C 
BRANCH  24  25
ATOM     25  C   UNL     1      37.090  -1.819  16.845  0.00  0.00    +0.000 A 
ATOM     26  C   UNL     1      36.498  -1.017  17.788  0.00  0.00    +0.000 A 
ATOM     27  C   UNL     1      35.134  -1.031  18.000  0.00  0.00    +0.000 A 
ATOM     28  C   UNL     1      34.367  -1.870  17.242  0.00  0.00    +0.000 A 
ATOM     29  C   UNL     1      32.886  -1.850  17.509  0.00  0.00    +0.000 C 
ATOM     30  C   UNL     1      34.916  -2.682  16.294  0.00  0.00    +0.000 A 
ATOM     31  C   UNL     1      36.289  -2.652  16.100  0.00  0.00    +0.000 A 
ENDBRANCH  24  25
ENDBRANCH  23  24
ENDBRANCH   6  23
TORSDOF 9
ENDMDL
MODEL 2
REMARK VINA RESULT:      -6.9      6.171      9.908
REMARK  Name = 
REMARK  9 active torsions:
REMARK  status: ('A' for Active; 'I' for Inactive)
REMARK    1  A    between atoms: C_2  and  O_3
REMARK    2  A    between atoms: O_3  and  C_4
REMARK    3  A    between atoms: C_6  and  C_7
REMARK    4  A    between atoms: N_8  and  N_9
REMARK    5  A    between atoms: C_10  and  C_12
REMARK    6  A    between atoms: C_15  and  O_16
REMARK    7  A    between atoms: C_22  and  O_23
REMARK    8  A    between atoms: O_23  and  C_24
REMARK    9  A    between atoms: C_24  and  C_25
REMARK                            x       y       z     vdW  Elec       q    Type
REMARK                         _______ _______ _______ _____ _____    ______ ____
ROOT
ATOM      1  C   UNL     1      36.871   1.649  15.492  0.00  0.00    +0.000 A 
ATOM      2  C   UNL     1      36.931   2.902  16.093  0.00  0.00    +0.000 A 
ATOM      3  C   UNL     1      38.002   3.748  15.905  0.00  0.00    +0.000 A 
ATOM      4  C   UNL     1      39.020   3.296  15.090  0.00  0.00    +0.000 A 
ATOM      5  C   UNL     1      38.991   2.057  14.481  0.00  0.00    +0.000 A 
ATOM      6  C   UNL     1      37.901   1.219  14.683  0.00  0.00    +0.000 A 
ENDROOT
BRANCH   3   7
ATOM      7  C   UNL     1      38.045   5.076  16.551  0.00  0.00    +0.000 C 
ATOM      8  N   UNL     1      38.339   5.225  17.781  0.00  0.00    +0.000 NA
BRANCH   8   9
ATOM      9  N   UNL     1      38.372   6.493  18.369  0.00  0.00    +0.000 NA
ATOM     10  C   UNL     1      39.362   6.832  19.332  0.00  0.00    +0.000 C 
ATOM     11  O   UNL     1      40.203   5.946  19.631  0.00  0.00    +0.000 OA
BRANCH  10  12
ATOM     12  C   UNL     1      39.382   8.161  19.937  0.00  0.00    +0.000 A 
ATOM     13  C   UNL     1      38.194   8.764  20.285  0.00  0.00    +0.000 A 
ATOM     14  C   UNL     1      38.199  10.033  20.863  0.00  0.00    +0.000 A 
ATOM     15  C   UNL     1      39.366  10.726  21.107  0.00  0.00    +0.000 A 
ATOM     16  C   UNL     1      40.550  10.115  20.756  0.00  0.00    +0.000 A 
ATOM     17  C   UNL     1      40.553   8.846  20.177  0.00  0.00    +0.000 A 
BRANCH  15  18
ATOM     18  O   UNL     1      39.374  12.000  21.687  0.00  0.00    +0.000 OA
ATOM     19  C   UNL     1      38.271  12.866  21.499  0.00  0.00    +0.000 C 
ENDBRANCH  15  18
ENDBRANCH  10  12
ENDBRANCH   8   9
ENDBRANCH   3   7
BRANCH   1  20
ATOM     20  O   UNL     1      35.794   0.796  15.681  0.00  0.00    +0.000 OA
BRANCH  20  22
ATOM     21  C   UNL     1      35.549  -0.269  17.845  0.00  0.00    +0.000 C 
ATOM     22  C   UNL     1      35.041   0.734  16.861  0.00  0.00    +0.000 C 
ENDBRANCH  20  22
ENDBRANCH   1  20
BRANCH   6  23
ATOM     23  O   UNL     1      37.823  -0.033  14.095  0.00  0.00    +0.000 OA
BRANCH  23  24
ATOM     24  C   UNL     1      38.896  -0.919  13.986  0.00  0.00    +0.000 C 
BRANCH  24  25
ATOM     25  C   UNL     1      38.628  -2.082  14.861  0.00  0.00    +0.000 A 
ATOM     26  C   UNL     1      39.532  -2.493  15.808  0.00  0.00    +0.000 A 
ATOM     27  C   UNL     1      39.284  -3.577  16.626  0.00  0.00    +0.000 A 
ATOM     28  C   UNL     1      38.103  -4.247  16.476  0.00  0.00    +0.000 A 
ATOM     29  C   UNL     1      37.876  -5.422  17.390  0.00  0.00    +0.000 C 
ATOM     30  C   UNL     1      37.177  -3.870  15.548  0.00  0.00    +0.000 A 
ATOM     31  C   UNL     1      37.450  -2.778  14.737  0.00  0.00    +0.000 A 
ENDBRANCH  24  25
ENDBRANCH  23  24
ENDBRANCH   6  23
TORSDOF 9
ENDMDL
MODEL 3
REMARK VINA RESULT:      -6.8      6.866      8.859
REMARK  Name = 
REMARK  9 active torsions:
REMARK  status: ('A' for Active; 'I' for Inactive)
REMARK    1  A    between atoms: C_2  and  O_3
REMARK    2  A    between atoms: O_3  and  C_4
REMARK    3  A    between atoms: C_6  and  C_7
REMARK    4  A    between atoms: N_8  and  N_9
REMARK    5  A    between atoms: C_10  and  C_12
REMARK    6  A    between atoms: C_15  and  O_16
REMARK    7  A    between atoms: C_22  and  O_23
REMARK    8  A    between atoms: O_23  and  C_24
REMARK    9  A    between atoms: C_24  and  C_25
REMARK                            x       y       z     vdW  Elec       q    Type
REMARK                         _______ _______ _______ _____ _____    ______ ____
ROOT
ATOM      1  C   UNL     1      36.352  -2.195  15.651  0.00  0.00    +0.000 A 
ATOM      2  C   UNL     1      36.622  -0.926  16.153  0.00  0.00    +0.000 A 
ATOM      3  C   UNL     1      35.733  -0.263  16.972  0.00  0.00    +0.000 A 
ATOM      4  C   UNL     1      34.555  -0.916  17.274  0.00  0.00    +0.000 A 
ATOM      5  C   UNL     1      34.258  -2.175  16.790  0.00  0.00    +0.000 A 
ATOM      6  C   UNL     1      35.168  -2.826  15.967  0.00  0.00    +0.000 A 
ENDROOT
BRANCH   3   7
ATOM      7  C   UNL     1      36.040   1.085  17.494  0.00  0.00    +0.000 C 
ATOM      8  N   UNL     1      36.786   1.904  16.867  0.00  0.00    +0.000 NA
BRANCH   8   9
ATOM      9  N   UNL     1      37.062   3.174  17.385  0.00  0.00    +0.000 NA
ATOM     10  C   UNL     1      38.131   3.959  16.875  0.00  0.00    +0.000 C 
ATOM     11  O   UNL     1      38.817   3.465  15.943  0.00  0.00    +0.000 OA
BRANCH  10  12
ATOM     12  C   UNL     1      38.406   5.283  17.427  0.00  0.00    +0.000 A 
ATOM     13  C   UNL     1      38.132   6.402  16.671  0.00  0.00    +0.000 A 
ATOM     14  C   UNL     1      38.390   7.672  17.186  0.00  0.00    +0.000 A 
ATOM     15  C   UNL     1      38.919   7.862  18.445  0.00  0.00    +0.000 A 
ATOM     16  C   UNL     1      39.190   6.738  19.194  0.00  0.00    +0.000 A 
ATOM     17  C   UNL     1      38.934   5.464  18.687  0.00  0.00    +0.000 A 
BRANCH  15  18
ATOM     18  O   UNL     1      39.179   9.136  18.964  0.00  0.00    +0.000 OA
ATOM     19  C   UNL     1      38.714  10.283  18.279  0.00  0.00    +0.000 C 
ENDBRANCH  15  18
ENDBRANCH  10  12
ENDBRANCH   8   9
ENDBRANCH   3   7
BRANCH   1  20
ATOM     20  O   UNL     1      37.245  -2.863  14.827  0.00  0.00    +0.000 OA
BRANCH  20  22
ATOM     21  C   UNL     1      38.817  -3.638  16.501  0.00  0.00    +0.000 C 
ATOM     22  C   UNL     1      38.596  -3.067  15.138  0.00  0.00    +0.000 C 
ENDBRANCH  20  22
ENDBRANCH   1  20
BRANCH   6  23
ATOM     23  O   UNL     1      34.917  -4.090  15.456  0.00  0.00    +0.000 OA
BRANCH  23  24
ATOM     24  C   UNL     1      33.674  -4.516  14.988  0.00  0.00    +0.000 C 
BRANCH  24  25
ATOM     25  C   UNL     1      33.756  -5.967  14.707  0.00  0.00    +0.000 A 
ATOM     26  C   UNL     1      33.779  -6.896  15.718  0.00  0.00    +0.000 A 
ATOM     27  C   UNL     1      33.856  -8.249  15.458  0.00  0.00    +0.000 A 
ATOM     28  C   UNL     1      33.908  -8.659  14.156  0.00  0.00    +0.000 A 
ATOM     29  C   UNL     1      33.990 -10.144  13.921  0.00  0.00    +0.000 C 
ATOM     30  C   UNL     1      33.886  -7.769  13.123  0.00  0.00    +0.000 A 
ATOM     31  C   UNL     1      33.810  -6.413  13.409  0.00  0.00    +0.000 A 
ENDBRANCH  24  25
ENDBRANCH  23  24
ENDBRANCH   6  23
TORSDOF 9
ENDMDL
MODEL 4
REMARK VINA RESULT:      -6.7      5.996      8.835
REMARK  Name = 
REMARK  9 active torsions:
REMARK  status: ('A' for Active; 'I' for Inactive)
REMARK    1  A    between atoms: C_2  and  O_3
REMARK    2  A    between atoms: O_3  and  C_4
REMARK    3  A    between atoms: C_6  and  C_7
REMARK    4  A    between atoms: N_8  and  N_9
REMARK    5  A    between atoms: C_10  and  C_12
REMARK    6  A    between atoms: C_15  and  O_16
REMARK    7  A    between atoms: C_22  and  O_23
REMARK    8  A    between atoms: O_23  and  C_24
REMARK    9  A    between atoms: C_24  and  C_25
REMARK                            x       y       z     vdW  Elec       q    Type
REMARK                         _______ _______ _______ _____ _____    ______ ____
ROOT
ATOM      1  C   UNL     1      39.348  -0.654  13.738  0.00  0.00    +0.000 A 
ATOM      2  C   UNL     1      39.534   0.645  14.199  0.00  0.00    +0.000 A 
ATOM      3  C   UNL     1      38.471   1.463  14.516  0.00  0.00    +0.000 A 
ATOM      4  C   UNL     1      37.206   0.936  14.355  0.00  0.00    +0.000 A 
ATOM      5  C   UNL     1      36.989  -0.350  13.898  0.00  0.00    +0.000 A 
ATOM      6  C   UNL     1      38.074  -1.159  13.585  0.00  0.00    +0.000 A 
ENDROOT
BRANCH   3   7
ATOM      7  C   UNL     1      38.691   2.840  15.004  0.00  0.00    +0.000 C 
ATOM      8  N   UNL     1      38.217   3.254  16.111  0.00  0.00    +0.000 NA
BRANCH   8   9
ATOM      9  N   UNL     1      38.440   4.563  16.551  0.00  0.00    +0.000 NA
ATOM     10  C   UNL     1      38.561   4.862  17.935  0.00  0.00    +0.000 C 
ATOM     11  O   UNL     1      38.459   3.905  18.744  0.00  0.00    +0.000 OA
BRANCH  10  12
ATOM     12  C   UNL     1      38.793   6.235  18.377  0.00  0.00    +0.000 A 
ATOM     13  C   UNL     1      38.369   7.281  17.588  0.00  0.00    +0.000 A 
ATOM     14  C   UNL     1      38.585   8.596  17.999  0.00  0.00    +0.000 A 
ATOM     15  C   UNL     1      39.218   8.903  19.185  0.00  0.00    +0.000 A 
ATOM     16  C   UNL     1      39.639   7.850  19.968  0.00  0.00    +0.000 A 
ATOM     17  C   UNL     1      39.426   6.532  19.564  0.00  0.00    +0.000 A 
BRANCH  15  18
ATOM     18  O   UNL     1      39.435  10.222  19.599  0.00  0.00    +0.000 OA
ATOM     19  C   UNL     1      40.306  10.485  20.683  0.00  0.00    +0.000 C 
ENDBRANCH  15  18
ENDBRANCH  10  12
ENDBRANCH   8   9
ENDBRANCH   3   7
BRANCH   1  20
ATOM     20  O   UNL     1      40.417  -1.479  13.418  0.00  0.00    +0.000 OA
BRANCH  20  22
ATOM     21  C   UNL     1      42.592  -1.443  14.487  0.00  0.00    +0.000 C 
ATOM     22  C   UNL     1      41.744  -1.040  13.324  0.00  0.00    +0.000 C 
ENDBRANCH  20  22
ENDBRANCH   1  20
BRANCH   6  23
ATOM     23  O   UNL     1      37.910  -2.455  13.124  0.00  0.00    +0.000 OA
BRANCH  23  24
ATOM     24  C   UNL     1      37.241  -3.460  13.824  0.00  0.00    +0.000 C 
BRANCH  24  25
ATOM     25  C   UNL     1      37.523  -3.286  15.267  0.00  0.00    +0.000 A 
ATOM     26  C   UNL     1      36.542  -2.919  16.152  0.00  0.00    +0.000 A 
ATOM     27  C   UNL     1      36.802  -2.757  17.499  0.00  0.00    +0.000 A 
ATOM     28  C   UNL     1      38.075  -2.973  17.944  0.00  0.00    +0.000 A 
ATOM     29  C   UNL     1      38.312  -2.785  19.419  0.00  0.00    +0.000 C 
ATOM     30  C   UNL     1      39.079  -3.341  17.097  0.00  0.00    +0.000 A 
ATOM     31  C   UNL     1      38.793  -3.496  15.748  0.00  0.00    +0.000 A 
ENDBRANCH  24  25
ENDBRANCH  23  24
ENDBRANCH   6  23
TORSDOF 9
ENDMDL
MODEL 5
REMARK VINA RESULT:      -6.6      6.756     10.704
REMARK  Name = 
REMARK  9 active torsions:
REMARK  status: ('A' for Active; 'I' for Inactive)
REMARK    1  A    between atoms: C_2  and  O_3
REMARK    2  A    between atoms: O_3  and  C_4
REMARK    3  A    between atoms: C_6  and  C_7
REMARK    4  A    between atoms: N_8  and  N_9
REMARK    5  A    between atoms: C_10  and  C_12
REMARK    6  A    between atoms: C_15  and  O_16
REMARK    7  A    between atoms: C_22  and  O_23
REMARK    8  A    between atoms: O_23  and  C_24
REMARK    9  A    between atoms: C_24  and  C_25
REMARK                            x       y       z     vdW  Elec       q    Type
REMARK                         _______ _______ _______ _____ _____    ______ ____
ROOT
ATOM      1  C   UNL     1      38.791   7.285  17.099  0.00  0.00    +0.000 A 
ATOM      2  C   UNL     1      38.187   6.140  16.590  0.00  0.00    +0.000 A 
ATOM      3  C   UNL     1      38.236   4.934  17.256  0.00  0.00    +0.000 A 
ATOM      4  C   UNL     1      38.916   4.911  18.456  0.00  0.00    +0.000 A 
ATOM      5  C   UNL     1      39.528   6.030  18.987  0.00  0.00    +0.000 A 
ATOM      6  C   UNL     1      39.465   7.236  18.300  0.00  0.00    +0.000 A 
ENDROOT
BRANCH   3   7
ATOM      7  C   UNL     1      37.587   3.730  16.697  0.00  0.00    +0.000 C 
ATOM      8  N   UNL     1      37.097   2.816  17.436  0.00  0.00    +0.000 NA
BRANCH   8   9
ATOM      9  N   UNL     1      36.488   1.686  16.882  0.00  0.00    +0.000 NA
ATOM     10  C   UNL     1      36.329   0.492  17.637  0.00  0.00    +0.000 C 
ATOM     11  O   UNL     1      36.758   0.495  18.820  0.00  0.00    +0.000 OA
BRANCH  10  12
ATOM     12  C   UNL     1      35.690  -0.680  17.043  0.00  0.00    +0.000 A 
ATOM     13  C   UNL     1      34.490  -1.127  17.551  0.00  0.00    +0.000 A 
ATOM     14  C   UNL     1      33.870  -2.245  16.994  0.00  0.00    +0.000 A 
ATOM     15  C   UNL     1      34.417  -2.938  15.934  0.00  0.00    +0.000 A 
ATOM     16  C   UNL     1      35.617  -2.483  15.432  0.00  0.00    +0.000 A 
ATOM     17  C   UNL     1      36.243  -1.366  15.984  0.00  0.00    +0.000 A 
BRANCH  15  18
ATOM     18  O   UNL     1      33.796  -4.059  15.373  0.00  0.00    +0.000 OA
ATOM     19  C   UNL     1      34.564  -4.995  14.640  0.00  0.00    +0.000 C 
ENDBRANCH  15  18
ENDBRANCH  10  12
ENDBRANCH   8   9
ENDBRANCH   3   7
BRANCH   1  20
ATOM     20  O   UNL     1      38.743   8.499  16.430  0.00  0.00    +0.000 OA
BRANCH  20  22
ATOM     21  C   UNL     1      37.853   9.776  14.572  0.00  0.00    +0.000 C 
ATOM     22  C   UNL     1      37.586   9.018  15.832  0.00  0.00    +0.000 C 
ENDBRANCH  20  22
ENDBRANCH   1  20
BRANCH   6  23
ATOM     23  O   UNL     1      40.062   8.387  18.790  0.00  0.00    +0.000 OA
BRANCH  23  24
ATOM     24  C   UNL     1      41.331   8.833  18.421  0.00  0.00    +0.000 C 
BRANCH  24  25
ATOM     25  C   UNL     1      42.336   8.027  19.149  0.00  0.00    +0.000 A 
ATOM     26  C   UNL     1      42.227   7.785  20.495  0.00  0.00    +0.000 A 
ATOM     27  C   UNL     1      43.163   7.033  21.176  0.00  0.00    +0.000 A 
ATOM     28  C   UNL     1      44.219   6.522  20.477  0.00  0.00    +0.000 A 
ATOM     29  C   UNL     1      45.214   5.709  21.261  0.00  0.00    +0.000 C 
ATOM     30  C   UNL     1      44.364   6.738  19.138  0.00  0.00    +0.000 A 
ATOM     31  C   UNL     1      43.411   7.498  18.475  0.00  0.00    +0.000 A 
ENDBRANCH  24  25
ENDBRANCH  23  24
ENDBRANCH   6  23
TORSDOF 9
ENDMDL
MODEL 6
REMARK VINA RESULT:      -6.5      5.104      9.714
REMARK  Name = 
REMARK  9 active torsions:
REMARK  status: ('A' for Active; 'I' for Inactive)
REMARK    1  A    between atoms: C_2  and  O_3
REMARK    2  A    between atoms: O_3  and  C_4
REMARK    3  A    between atoms: C_6  and  C_7
REMARK    4  A    between atoms: N_8  and  N_9
REMARK    5  A    between atoms: C_10  and  C_12
REMARK    6  A    between atoms: C_15  and  O_16
REMARK    7  A    between atoms: C_22  and  O_23
REMARK    8  A    between atoms: O_23  and  C_24
REMARK    9  A    between atoms: C_24  and  C_25
REMARK                            x       y       z     vdW  Elec       q    Type
REMARK                         _______ _______ _______ _____ _____    ______ ____
ROOT
ATOM      1  C   UNL     1      37.793   0.799  13.903  0.00  0.00    +0.000 A 
ATOM      2  C   UNL     1      37.711   1.931  14.707  0.00  0.00    +0.000 A 
ATOM      3  C   UNL     1      36.902   1.975  15.821  0.00  0.00    +0.000 A 
ATOM      4  C   UNL     1      36.171   0.841  16.108  0.00  0.00    +0.000 A 
ATOM      5  C   UNL     1      36.229  -0.299  15.329  0.00  0.00    +0.000 A 
ATOM      6  C   UNL     1      37.052  -0.323  14.211  0.00  0.00    +0.000 A 
ENDROOT
BRANCH   3   7
ATOM      7  C   UNL     1      36.831   3.189  16.662  0.00  0.00    +0.000 C 
ATOM      8  N   UNL     1      37.867   3.854  16.986  0.00  0.00    +0.000 NA
BRANCH   8   9
ATOM      9  N   UNL     1      37.772   4.999  17.783  0.00  0.00    +0.000 NA
ATOM     10  C   UNL     1      38.929   5.743  18.142  0.00  0.00    +0.000 C 
ATOM     11  O   UNL     1      40.037   5.329  17.714  0.00  0.00    +0.000 OA
BRANCH  10  12
ATOM     12  C   UNL     1      38.812   6.937  18.976  0.00  0.00    +0.000 A 
ATOM     13  C   UNL     1      39.676   7.109  20.035  0.00  0.00    +0.000 A 
ATOM     14  C   UNL     1      39.575   8.244  20.839  0.00  0.00    +0.000 A 
ATOM     15  C   UNL     1      38.629   9.223  20.616  0.00  0.00    +0.000 A 
ATOM     16  C   UNL     1      37.770   9.042  19.554  0.00  0.00    +0.000 A 
ATOM     17  C   UNL     1      37.865   7.909  18.745  0.00  0.00    +0.000 A 
BRANCH  15  18
ATOM     18  O   UNL     1      38.526  10.362  21.422  0.00  0.00    +0.000 OA
ATOM     19  C   UNL     1      38.450  11.642  20.823  0.00  0.00    +0.000 C 
ENDBRANCH  15  18
ENDBRANCH  10  12
ENDBRANCH   8   9
ENDBRANCH   3   7
BRANCH   1  20
ATOM     20  O   UNL     1      38.607   0.753  12.781  0.00  0.00    +0.000 OA
BRANCH  20  22
ATOM     21  C   UNL     1      37.189   1.041  10.836  0.00  0.00    +0.000 C 
ATOM     22  C   UNL     1      38.378   1.499  11.617  0.00  0.00    +0.000 C 
ENDBRANCH  20  22
ENDBRANCH   1  20
BRANCH   6  23
ATOM     23  O   UNL     1      37.147  -1.441  13.397  0.00  0.00    +0.000 OA
BRANCH  23  24
ATOM     24  C   UNL     1      37.671  -2.668  13.805  0.00  0.00    +0.000 C 
BRANCH  24  25
ATOM     25  C   UNL     1      39.141  -2.622  13.638  0.00  0.00    +0.000 A 
ATOM     26  C   UNL     1      39.725  -2.591  12.397  0.00  0.00    +0.000 A 
ATOM     27  C   UNL     1      41.095  -2.548  12.239  0.00  0.00    +0.000 A 
ATOM     28  C   UNL     1      41.877  -2.535  13.359  0.00  0.00    +0.000 A 
ATOM     29  C   UNL     1      43.366  -2.487  13.138  0.00  0.00    +0.000 C 
ATOM     30  C   UNL     1      41.338  -2.563  14.611  0.00  0.00    +0.000 A 
ATOM     31  C   UNL     1      39.958  -2.607  14.744  0.00  0.00    +0.000 A 
ENDBRANCH  24  25
ENDBRANCH  23  24
ENDBRANCH   6  23
TORSDOF 9
ENDMDL
MODEL 7
REMARK VINA RESULT:      -6.5     29.161     33.093
REMARK  Name = 
REMARK  9 active torsions:
REMARK  status: ('A' for Active; 'I' for Inactive)
REMARK    1  A    between atoms: C_2  and  O_3
REMARK    2  A    between atoms: O_3  and  C_4
REMARK    3  A    between atoms: C_6  and  C_7
REMARK    4  A    between atoms: N_8  and  N_9
REMARK    5  A    between atoms: C_10  and  C_12
REMARK    6  A    between atoms: C_15  and  O_16
REMARK    7  A    between atoms: C_22  and  O_23
REMARK    8  A    between atoms: O_23  and  C_24
REMARK    9  A    between atoms: C_24  and  C_25
REMARK                            x       y       z     vdW  Elec       q    Type
REMARK                         _______ _______ _______ _____ _____    ______ ____
ROOT
ATOM      1  C   UNL     1      27.018  15.753  37.820  0.00  0.00    +0.000 A 
ATOM      2  C   UNL     1      27.235  14.862  38.865  0.00  0.00    +0.000 A 
ATOM      3  C   UNL     1      26.197  14.199  39.483  0.00  0.00    +0.000 A 
ATOM      4  C   UNL     1      24.924  14.459  39.019  0.00  0.00    +0.000 A 
ATOM      5  C   UNL     1      24.676  15.340  37.984  0.00  0.00    +0.000 A 
ATOM      6  C   UNL     1      25.736  15.998  37.374  0.00  0.00    +0.000 A 
ENDROOT
BRANCH   3   7
ATOM      7  C   UNL     1      26.451  13.255  40.592  0.00  0.00    +0.000 C 
ATOM      8  N   UNL     1      26.156  12.018  40.514  0.00  0.00    +0.000 NA
BRANCH   8   9
ATOM      9  N   UNL     1      26.407  11.146  41.578  0.00  0.00    +0.000 NA
ATOM     10  C   UNL     1      27.315  10.062  41.440  0.00  0.00    +0.000 C 
ATOM     11  O   UNL     1      27.882   9.920  40.326  0.00  0.00    +0.000 OA
BRANCH  10  12
ATOM     12  C   UNL     1      27.565   9.159  42.561  0.00  0.00    +0.000 A 
ATOM     13  C   UNL     1      27.641   9.671  43.838  0.00  0.00    +0.000 A 
ATOM     14  C   UNL     1      27.880   8.820  44.917  0.00  0.00    +0.000 A 
ATOM     15  C   UNL     1      28.047   7.460  44.760  0.00  0.00    +0.000 A 
ATOM     16  C   UNL     1      27.969   6.957  43.479  0.00  0.00    +0.000 A 
ATOM     17  C   UNL     1      27.730   7.801  42.395  0.00  0.00    +0.000 A 
BRANCH  15  18
ATOM     18  O   UNL     1      28.286   6.604  45.841  0.00  0.00    +0.000 OA
ATOM     19  C   UNL     1      28.389   7.134  47.148  0.00  0.00    +0.000 C 
ENDBRANCH  15  18
ENDBRANCH  10  12
ENDBRANCH   8   9
ENDBRANCH   3   7
BRANCH   1  20
ATOM     20  O   UNL     1      28.061  16.422  37.197  0.00  0.00    +0.000 OA
BRANCH  20  22
ATOM     21  C   UNL     1      28.772  15.085  35.303  0.00  0.00    +0.000 C 
ATOM     22  C   UNL     1      29.141  15.781  36.574  0.00  0.00    +0.000 C 
ENDBRANCH  20  22
ENDBRANCH   1  20
BRANCH   6  23
ATOM     23  O   UNL     1      25.541  16.890  36.332  0.00  0.00    +0.000 OA
BRANCH  23  24
ATOM     24  C   UNL     1      25.449  16.523  34.989  0.00  0.00    +0.000 C 
BRANCH  24  25
ATOM     25  C   UNL     1      24.858  17.654  34.238  0.00  0.00    +0.000 A 
ATOM     26  C   UNL     1      24.689  18.889  34.812  0.00  0.00    +0.000 A 
ATOM     27  C   UNL     1      24.138  19.945  34.113  0.00  0.00    +0.000 A 
ATOM     28  C   UNL     1      23.758  19.738  32.818  0.00  0.00    +0.000 A 
ATOM     29  C   UNL     1      23.163  20.918  32.096  0.00  0.00    +0.000 C 
ATOM     30  C   UNL     1      23.911  18.527  32.210  0.00  0.00    +0.000 A 
ATOM     31  C   UNL     1      24.465  17.481  32.933  0.00  0.00    +0.000 A 
ENDBRANCH  24  25
ENDBRANCH  23  24
ENDBRANCH   6  23
TORSDOF 9
ENDMDL
MODEL 8
REMARK VINA RESULT:      -6.5      5.831      9.274
REMARK  Name = 
REMARK  9 active torsions:
REMARK  status: ('A' for Active; 'I' for Inactive)
REMARK    1  A    between atoms: C_2  and  O_3
REMARK    2  A    between atoms: O_3  and  C_4
REMARK    3  A    between atoms: C_6  and  C_7
REMARK    4  A    between atoms: N_8  and  N_9
REMARK    5  A    between atoms: C_10  and  C_12
REMARK    6  A    between atoms: C_15  and  O_16
REMARK    7  A    between atoms: C_22  and  O_23
REMARK    8  A    between atoms: O_23  and  C_24
REMARK    9  A    between atoms: C_24  and  C_25
REMARK                            x       y       z     vdW  Elec       q    Type
REMARK                         _______ _______ _______ _____ _____    ______ ____
ROOT
ATOM      1  C   UNL     1      39.107   1.063  13.276  0.00  0.00    +0.000 A 
ATOM      2  C   UNL     1      38.936   2.133  14.147  0.00  0.00    +0.000 A 
ATOM      3  C   UNL     1      37.740   2.364  14.791  0.00  0.00    +0.000 A 
ATOM      4  C   UNL     1      36.711   1.482  14.532  0.00  0.00    +0.000 A 
ATOM      5  C   UNL     1      36.848   0.411  13.670  0.00  0.00    +0.000 A 
ATOM      6  C   UNL     1      38.063   0.196  13.033  0.00  0.00    +0.000 A 
ENDROOT
BRANCH   3   7
ATOM      7  C   UNL     1      37.581   3.507  15.714  0.00  0.00    +0.000 C 
ATOM      8  N   UNL     1      38.127   3.535  16.864  0.00  0.00    +0.000 NA
BRANCH   8   9
ATOM      9  N   UNL     1      37.960   4.629  17.718  0.00  0.00    +0.000 NA
ATOM     10  C   UNL     1      38.964   5.629  17.836  0.00  0.00    +0.000 C 
ATOM     11  O   UNL     1      40.004   5.488  17.142  0.00  0.00    +0.000 OA
BRANCH  10  12
ATOM     12  C   UNL     1      38.774   6.766  18.734  0.00  0.00    +0.000 A 
ATOM     13  C   UNL     1      39.554   6.872  19.865  0.00  0.00    +0.000 A 
ATOM     14  C   UNL     1      39.382   7.952  20.730  0.00  0.00    +0.000 A 
ATOM     15  C   UNL     1      38.447   8.940  20.500  0.00  0.00    +0.000 A 
ATOM     16  C   UNL     1      37.672   8.825  19.367  0.00  0.00    +0.000 A 
ATOM     17  C   UNL     1      37.838   7.748  18.496  0.00  0.00    +0.000 A 
BRANCH  15  18
ATOM     18  O   UNL     1      38.274  10.024  21.367  0.00  0.00    +0.000 OA
ATOM     19  C   UNL     1      38.583  11.333  20.927  0.00  0.00    +0.000 C 
ENDBRANCH  15  18
ENDBRANCH  10  12
ENDBRANCH   8   9
ENDBRANCH   3   7
BRANCH   1  20
ATOM     20  O   UNL     1      40.310   0.830  12.627  0.00  0.00    +0.000 OA
BRANCH  20  22
ATOM     21  C   UNL     1      42.718   1.037  12.430  0.00  0.00    +0.000 C 
ATOM     22  C   UNL     1      41.541   0.692  13.284  0.00  0.00    +0.000 C 
ENDBRANCH  20  22
ENDBRANCH   1  20
BRANCH   6  23
ATOM     23  O   UNL     1      38.253  -0.864  12.160  0.00  0.00    +0.000 OA
BRANCH  23  24
ATOM     24  C   UNL     1      39.164  -1.900  12.368  0.00  0.00    +0.000 C 
BRANCH  24  25
ATOM     25  C   UNL     1      38.904  -2.486  13.702  0.00  0.00    +0.000 A 
ATOM     26  C   UNL     1      37.737  -3.153  13.981  0.00  0.00    +0.000 A 
ATOM     27  C   UNL     1      37.493  -3.700  15.225  0.00  0.00    +0.000 A 
ATOM     28  C   UNL     1      38.448  -3.566  16.192  0.00  0.00    +0.000 A 
ATOM     29  C   UNL     1      38.138  -4.179  17.532  0.00  0.00    +0.000 C 
ATOM     30  C   UNL     1      39.622  -2.913  15.956  0.00  0.00    +0.000 A 
ATOM     31  C   UNL     1      39.844  -2.370  14.698  0.00  0.00    +0.000 A 
ENDBRANCH  24  25
ENDBRANCH  23  24
ENDBRANCH   6  23
TORSDOF 9
ENDMDL
MODEL 9
REMARK VINA RESULT:      -6.4     28.149     33.195
REMARK  Name = 
REMARK  9 active torsions:
REMARK  status: ('A' for Active; 'I' for Inactive)
REMARK    1  A    between atoms: C_2  and  O_3
REMARK    2  A    between atoms: O_3  and  C_4
REMARK    3  A    between atoms: C_6  and  C_7
REMARK    4  A    between atoms: N_8  and  N_9
REMARK    5  A    between atoms: C_10  and  C_12
REMARK    6  A    between atoms: C_15  and  O_16
REMARK    7  A    between atoms: C_22  and  O_23
REMARK    8  A    between atoms: O_23  and  C_24
REMARK    9  A    between atoms: C_24  and  C_25
REMARK                            x       y       z     vdW  Elec       q    Type
REMARK                         _______ _______ _______ _____ _____    ______ ____
ROOT
ATOM      1  C   UNL     1      25.654  16.354  35.548  0.00  0.00    +0.000 A 
ATOM      2  C   UNL     1      25.576  15.466  36.616  0.00  0.00    +0.000 A 
ATOM      3  C   UNL     1      24.971  15.810  37.806  0.00  0.00    +0.000 A 
ATOM      4  C   UNL     1      24.443  17.082  37.893  0.00  0.00    +0.000 A 
ATOM      5  C   UNL     1      24.506  17.987  36.852  0.00  0.00    +0.000 A 
ATOM      6  C   UNL     1      25.119  17.620  35.661  0.00  0.00    +0.000 A 
ENDROOT
BRANCH   3   7
ATOM      7  C   UNL     1      24.899  14.850  38.927  0.00  0.00    +0.000 C 
ATOM      8  N   UNL     1      25.857  14.060  39.210  0.00  0.00    +0.000 NA
BRANCH   8   9
ATOM      9  N   UNL     1      25.762  13.161  40.277  0.00  0.00    +0.000 NA
ATOM     10  C   UNL     1      26.916  12.513  40.796  0.00  0.00    +0.000 C 
ATOM     11  O   UNL     1      28.021  12.782  40.258  0.00  0.00    +0.000 OA
BRANCH  10  12
ATOM     12  C   UNL     1      26.800  11.577  41.911  0.00  0.00    +0.000 A 
ATOM     13  C   UNL     1      26.290  12.015  43.113  0.00  0.00    +0.000 A 
ATOM     14  C   UNL     1      26.175  11.131  44.186  0.00  0.00    +0.000 A 
ATOM     15  C   UNL     1      26.556   9.809  44.095  0.00  0.00    +0.000 A 
ATOM     16  C   UNL     1      27.065   9.379  42.888  0.00  0.00    +0.000 A 
ATOM     17  C   UNL     1      27.183  10.257  41.811  0.00  0.00    +0.000 A 
BRANCH  15  18
ATOM     18  O   UNL     1      26.441   8.920  45.169  0.00  0.00    +0.000 OA
ATOM     19  C   UNL     1      27.059   7.649  45.100  0.00  0.00    +0.000 C 
ENDBRANCH  15  18
ENDBRANCH  10  12
ENDBRANCH   8   9
ENDBRANCH   3   7
BRANCH   1  20
ATOM     20  O   UNL     1      26.263  16.009  34.351  0.00  0.00    +0.000 OA
BRANCH  20  22
ATOM     21  C   UNL     1      25.067  14.760  32.652  0.00  0.00    +0.000 C 
ATOM     22  C   UNL     1      26.109  14.765  33.723  0.00  0.00    +0.000 C 
ENDBRANCH  20  22
ENDBRANCH   1  20
BRANCH   6  23
ATOM     23  O   UNL     1      25.208  18.490  34.586  0.00  0.00    +0.000 OA
BRANCH  23  24
ATOM     24  C   UNL     1      24.538  18.314  33.375  0.00  0.00    +0.000 C 
BRANCH  24  25
ATOM     25  C   UNL     1      23.850  19.581  33.037  0.00  0.00    +0.000 A 
ATOM     26  C   UNL     1      23.935  20.685  33.847  0.00  0.00    +0.000 A 
ATOM     27  C   UNL     1      23.294  21.867  33.534  0.00  0.00    +0.000 A 
ATOM     28  C   UNL     1      22.560  21.922  32.384  0.00  0.00    +0.000 A 
ATOM     29  C   UNL     1      21.880  23.231  32.083  0.00  0.00    +0.000 C 
ATOM     30  C   UNL     1      22.451  20.848  31.550  0.00  0.00    +0.000 A 
ATOM     31  C   UNL     1      23.103  19.671  31.887  0.00  0.00    +0.000 A 
ENDBRANCH  24  25
ENDBRANCH  23  24
ENDBRANCH   6  23
TORSDOF 9
ENDMDL
MODEL 10
REMARK VINA RESULT:      -6.4      5.422      9.714
REMARK  Name = 
REMARK  9 active torsions:
REMARK  status: ('A' for Active; 'I' for Inactive)
REMARK    1  A    between atoms: C_2  and  O_3
REMARK    2  A    between atoms: O_3  and  C_4
REMARK    3  A    between atoms: C_6  and  C_7
REMARK    4  A    between atoms: N_8  and  N_9
REMARK    5  A    between atoms: C_10  and  C_12
REMARK    6  A    between atoms: C_15  and  O_16
REMARK    7  A    between atoms: C_22  and  O_23
REMARK    8  A    between atoms: O_23  and  C_24
REMARK    9  A    between atoms: C_24  and  C_25
REMARK                            x       y       z     vdW  Elec       q    Type
REMARK                         _______ _______ _______ _____ _____    ______ ____
ROOT
ATOM      1  C   UNL     1      37.918  -0.222  14.394  0.00  0.00    +0.000 A 
ATOM      2  C   UNL     1      37.698   0.878  15.216  0.00  0.00    +0.000 A 
ATOM      3  C   UNL     1      37.797   2.170  14.746  0.00  0.00    +0.000 A 
ATOM      4  C   UNL     1      38.125   2.327  13.415  0.00  0.00    +0.000 A 
ATOM      5  C   UNL     1      38.351   1.255  12.573  0.00  0.00    +0.000 A 
ATOM      6  C   UNL     1      38.246  -0.039  13.067  0.00  0.00    +0.000 A 
ENDROOT
BRANCH   3   7
ATOM      7  C   UNL     1      37.558   3.324  15.638  0.00  0.00    +0.000 C 
ATOM      8  N   UNL     1      38.275   3.549  16.666  0.00  0.00    +0.000 NA
BRANCH   8   9
ATOM      9  N   UNL     1      38.028   4.649  17.494  0.00  0.00    +0.000 NA
ATOM     10  C   UNL     1      39.053   5.584  17.798  0.00  0.00    +0.000 C 
ATOM     11  O   UNL     1      40.188   5.382  17.295  0.00  0.00    +0.000 OA
BRANCH  10  12
ATOM     12  C   UNL     1      38.779   6.727  18.665  0.00  0.00    +0.000 A 
ATOM     13  C   UNL     1      39.492   6.877  19.835  0.00  0.00    +0.000 A 
ATOM     14  C   UNL     1      39.239   7.963  20.672  0.00  0.00    +0.000 A 
ATOM     15  C   UNL     1      38.287   8.916  20.374  0.00  0.00    +0.000 A 
ATOM     16  C   UNL     1      37.579   8.758  19.203  0.00  0.00    +0.000 A 
ATOM     17  C   UNL     1      37.826   7.675  18.360  0.00  0.00    +0.000 A 
BRANCH  15  18
ATOM     18  O   UNL     1      38.032  10.007  21.212  0.00  0.00    +0.000 OA
ATOM     19  C   UNL     1      38.853  11.156  21.141  0.00  0.00    +0.000 C 
ENDBRANCH  15  18
ENDBRANCH  10  12
ENDBRANCH   8   9
ENDBRANCH   3   7
BRANCH   1  20
ATOM     20  O   UNL     1      37.819  -1.522  14.865  0.00  0.00    +0.000 OA
BRANCH  20  22
ATOM     21  C   UNL     1      39.066  -2.480  16.710  0.00  0.00    +0.000 C 
ATOM     22  C   UNL     1      37.795  -1.863  16.225  0.00  0.00    +0.000 C 
ENDBRANCH  20  22
ENDBRANCH   1  20
BRANCH   6  23
ATOM     23  O   UNL     1      38.462  -1.147  12.263  0.00  0.00    +0.000 OA
BRANCH  23  24
ATOM     24  C   UNL     1      39.628  -1.373  11.532  0.00  0.00    +0.000 C 
BRANCH  24  25
ATOM     25  C   UNL     1      40.786  -1.181  12.435  0.00  0.00    +0.000 A 
ATOM     26  C   UNL     1      41.005  -2.004  13.511  0.00  0.00    +0.000 A 
ATOM     27  C   UNL     1      42.084  -1.827  14.353  0.00  0.00    +0.000 A 
ATOM     28  C   UNL     1      42.947  -0.801  14.095  0.00  0.00    +0.000 A 
ATOM     29  C   UNL     1      44.109  -0.646  15.040  0.00  0.00    +0.000 C 
ATOM     30  C   UNL     1      42.767   0.040  13.036  0.00  0.00    +0.000 A 
ATOM     31  C   UNL     1      41.674  -0.158  12.204  0.00  0.00    +0.000 A 
ENDBRANCH  24  25
ENDBRANCH  23  24
ENDBRANCH   6  23
TORSDOF 9
ENDMDL
