MODEL 1
REMARK VINA RESULT:      -6.1      0.000      0.000
REMARK  Name = 
REMARK  3 active torsions:
REMARK  status: ('A' for Active; 'I' for Inactive)
REMARK    1  A    between atoms: C_6  and  C_7
REMARK    2  A    between atoms: C_10  and  C_11
REMARK    3  A    between atoms: C_14  and  C_15
REMARK                            x       y       z     vdW  Elec       q    Type
REMARK                         _______ _______ _______ _____ _____    ______ ____
ROOT
ATOM      1  C   UNL     1      29.042  22.793  27.075  0.00  0.00    +0.000 C 
ATOM      2  C   UNL     1      28.445  23.081  25.714  0.00  0.00    +0.000 A 
ATOM      3  S   UNL     1      26.885  22.734  25.139  0.00  0.00    +0.000 S 
ATOM      4  C   UNL     1      27.033  23.366  23.566  0.00  0.00    +0.000 A 
ATOM      5  N   UNL     1      26.043  23.403  22.502  0.00  0.00    +0.000 NA
ATOM      6  C   UNL     1      28.323  23.842  23.523  0.00  0.00    +0.000 A 
ATOM      7  C   UNL     1      29.055  23.689  24.653  0.00  0.00    +0.000 A 
ENDROOT
BRANCH   7   8
ATOM      8  C   UNL     1      30.475  24.152  24.768  0.00  0.00    +0.000 A 
ATOM      9  C   UNL     1      31.505  23.274  24.508  0.00  0.00    +0.000 A 
ATOM     10  C   UNL     1      32.811  23.723  24.621  0.00  0.00    +0.000 A 
ATOM     11  C   UNL     1      33.120  25.015  24.984  0.00  0.00    +0.000 A 
ATOM     12  C   UNL     1      32.089  25.880  25.240  0.00  0.00    +0.000 A 
ATOM     13  C   UNL     1      30.763  25.443  25.130  0.00  0.00    +0.000 A 
BRANCH  11  14
ATOM     14  C   UNL     1      34.546  25.427  25.086  0.00  0.00    +0.000 C 
ATOM     15  C   UNL     1      34.683  26.930  24.949  0.00  0.00    +0.000 C 
ATOM     16  C   UNL     1      35.436  24.678  24.159  0.00  0.00    +0.000 C 
ENDBRANCH  11  14
ENDBRANCH   7   8
BRANCH   6  17
ATOM     17  C   UNL     1      28.826  24.483  22.270  0.00  0.00    +0.000 C 
ATOM     18  N   UNL     1      28.654  25.873  22.073  0.00  0.00    +0.000 NA
ATOM     19  O   UNL     1      29.403  23.834  21.374  0.00  0.00    +0.000 OA
ENDBRANCH   6  17
TORSDOF 3
ENDMDL
MODEL 2
REMARK VINA RESULT:      -5.6     20.103     22.116
REMARK  Name = 
REMARK  3 active torsions:
REMARK  status: ('A' for Active; 'I' for Inactive)
REMARK    1  A    between atoms: C_6  and  C_7
REMARK    2  A    between atoms: C_10  and  C_11
REMARK    3  A    between atoms: C_14  and  C_15
REMARK                            x       y       z     vdW  Elec       q    Type
REMARK                         _______ _______ _______ _____ _____    ______ ____
ROOT
ATOM      1  C   UNL     1      18.854   9.094  40.520  0.00  0.00    +0.000 C 
ATOM      2  C   UNL     1      17.867   9.762  39.587  0.00  0.00    +0.000 A 
ATOM      3  S   UNL     1      16.178   9.882  39.729  0.00  0.00    +0.000 S 
ATOM      4  C   UNL     1      15.852  10.757  38.307  0.00  0.00    +0.000 A 
ATOM      5  N   UNL     1      14.571  11.213  37.792  0.00  0.00    +0.000 NA
ATOM      6  C   UNL     1      17.092  10.938  37.741  0.00  0.00    +0.000 A 
ATOM      7  C   UNL     1      18.142  10.415  38.418  0.00  0.00    +0.000 A 
ENDROOT
BRANCH   7   8
ATOM      8  C   UNL     1      19.556  10.526  37.935  0.00  0.00    +0.000 A 
ATOM      9  C   UNL     1      20.370  11.523  38.427  0.00  0.00    +0.000 A 
ATOM     10  C   UNL     1      21.675  11.609  37.966  0.00  0.00    +0.000 A 
ATOM     11  C   UNL     1      22.188  10.735  37.034  0.00  0.00    +0.000 A 
ATOM     12  C   UNL     1      21.370   9.747  36.552  0.00  0.00    +0.000 A 
ATOM     13  C   UNL     1      20.049   9.646  37.007  0.00  0.00    +0.000 A 
BRANCH  11  14
ATOM     14  C   UNL     1      23.598  10.887  36.585  0.00  0.00    +0.000 C 
ATOM     15  C   UNL     1      24.131   9.581  36.030  0.00  0.00    +0.000 C 
ATOM     16  C   UNL     1      24.482  11.475  37.628  0.00  0.00    +0.000 C 
ENDBRANCH  11  14
ENDBRANCH   7   8
BRANCH   6  17
ATOM     17  C   UNL     1      17.205  11.683  36.449  0.00  0.00    +0.000 C 
ATOM     18  N   UNL     1      17.118  10.984  35.223  0.00  0.00    +0.000 NA
ATOM     19  O   UNL     1      17.375  12.918  36.404  0.00  0.00    +0.000 OA
ENDBRANCH   6  17
TORSDOF 3
ENDMDL
MODEL 3
REMARK VINA RESULT:      -5.5     19.648     21.541
REMARK  Name = 
REMARK  3 active torsions:
REMARK  status: ('A' for Active; 'I' for Inactive)
REMARK    1  A    between atoms: C_6  and  C_7
REMARK    2  A    between atoms: C_10  and  C_11
REMARK    3  A    between atoms: C_14  and  C_15
REMARK                            x       y       z     vdW  Elec       q    Type
REMARK                         _______ _______ _______ _____ _____    ______ ____
ROOT
ATOM      1  C   UNL     1      37.548   6.825  38.652  0.00  0.00    +0.000 C 
ATOM      2  C   UNL     1      37.545   8.156  37.933  0.00  0.00    +0.000 A 
ATOM      3  S   UNL     1      38.451   9.553  38.270  0.00  0.00    +0.000 S 
ATOM      4  C   UNL     1      37.865  10.558  37.028  0.00  0.00    +0.000 A 
ATOM      5  N   UNL     1      38.226  11.933  36.724  0.00  0.00    +0.000 NA
ATOM      6  C   UNL     1      36.957   9.766  36.366  0.00  0.00    +0.000 A 
ATOM      7  C   UNL     1      36.796   8.509  36.846  0.00  0.00    +0.000 A 
ENDROOT
BRANCH   7   8
ATOM      8  C   UNL     1      35.846   7.524  36.236  0.00  0.00    +0.000 A 
ATOM      9  C   UNL     1      36.274   6.701  35.217  0.00  0.00    +0.000 A 
ATOM     10  C   UNL     1      35.379   5.797  34.667  0.00  0.00    +0.000 A 
ATOM     11  C   UNL     1      34.076   5.690  35.101  0.00  0.00    +0.000 A 
ATOM     12  C   UNL     1      33.661   6.513  36.115  0.00  0.00    +0.000 A 
ATOM     13  C   UNL     1      34.553   7.432  36.682  0.00  0.00    +0.000 A 
BRANCH  11  14
ATOM     14  C   UNL     1      33.170   4.697  34.463  0.00  0.00    +0.000 C 
ATOM     15  C   UNL     1      33.964   3.576  33.823  0.00  0.00    +0.000 C 
ATOM     16  C   UNL     1      32.191   5.317  33.530  0.00  0.00    +0.000 C 
ENDBRANCH  11  14
ENDBRANCH   7   8
BRANCH   6  17
ATOM     17  C   UNL     1      36.223  10.322  35.187  0.00  0.00    +0.000 C 
ATOM     18  N   UNL     1      34.956  10.924  35.367  0.00  0.00    +0.000 NA
ATOM     19  O   UNL     1      36.690  10.278  34.031  0.00  0.00    +0.000 OA
ENDBRANCH   6  17
TORSDOF 3
ENDMDL
MODEL 4
REMARK VINA RESULT:      -5.5      2.182      2.876
REMARK  Name = 
REMARK  3 active torsions:
REMARK  status: ('A' for Active; 'I' for Inactive)
REMARK    1  A    between atoms: C_6  and  C_7
REMARK    2  A    between atoms: C_10  and  C_11
REMARK    3  A    between atoms: C_14  and  C_15
REMARK                            x       y       z     vdW  Elec       q    Type
REMARK                         _______ _______ _______ _____ _____    ______ ____
ROOT
ATOM      1  C   UNL     1      29.249  24.422  21.635  0.00  0.00    +0.000 C 
ATOM      2  C   UNL     1      28.490  24.117  22.909  0.00  0.00    +0.000 A 
ATOM      3  S   UNL     1      26.848  23.730  23.105  0.00  0.00    +0.000 S 
ATOM      4  C   UNL     1      26.818  23.543  24.796  0.00  0.00    +0.000 A 
ATOM      5  N   UNL     1      25.695  23.202  25.655  0.00  0.00    +0.000 NA
ATOM      6  C   UNL     1      28.115  23.793  25.177  0.00  0.00    +0.000 A 
ATOM      7  C   UNL     1      28.985  24.092  24.182  0.00  0.00    +0.000 A 
ENDROOT
BRANCH   7   8
ATOM      8  C   UNL     1      30.432  24.390  24.432  0.00  0.00    +0.000 A 
ATOM      9  C   UNL     1      31.360  23.373  24.369  0.00  0.00    +0.000 A 
ATOM     10  C   UNL     1      32.693  23.669  24.604  0.00  0.00    +0.000 A 
ATOM     11  C   UNL     1      33.126  24.943  24.898  0.00  0.00    +0.000 A 
ATOM     12  C   UNL     1      32.195  25.947  24.958  0.00  0.00    +0.000 A 
ATOM     13  C   UNL     1      30.844  25.664  24.723  0.00  0.00    +0.000 A 
BRANCH  11  14
ATOM     14  C   UNL     1      34.574  25.188  25.139  0.00  0.00    +0.000 C 
ATOM     15  C   UNL     1      34.868  26.674  25.189  0.00  0.00    +0.000 C 
ATOM     16  C   UNL     1      35.455  24.456  24.190  0.00  0.00    +0.000 C 
ENDBRANCH  11  14
ENDBRANCH   7   8
BRANCH   6  17
ATOM     17  C   UNL     1      28.480  23.720  26.626  0.00  0.00    +0.000 C 
ATOM     18  N   UNL     1      28.976  22.511  27.167  0.00  0.00    +0.000 NA
ATOM     19  O   UNL     1      28.365  24.698  27.392  0.00  0.00    +0.000 OA
ENDBRANCH   6  17
TORSDOF 3
ENDMDL
MODEL 5
REMARK VINA RESULT:      -5.5     19.519     21.962
REMARK  Name = 
REMARK  3 active torsions:
REMARK  status: ('A' for Active; 'I' for Inactive)
REMARK    1  A    between atoms: C_6  and  C_7
REMARK    2  A    between atoms: C_10  and  C_11
REMARK    3  A    between atoms: C_14  and  C_15
REMARK                            x       y       z     vdW  Elec       q    Type
REMARK                         _______ _______ _______ _____ _____    ______ ____
ROOT
ATOM      1  C   UNL     1      19.522   8.891  40.559  0.00  0.00    +0.000 C 
ATOM      2  C   UNL     1      18.452   9.569  39.731  0.00  0.00    +0.000 A 
ATOM      3  S   UNL     1      16.771   9.589  39.971  0.00  0.00    +0.000 S 
ATOM      4  C   UNL     1      16.321  10.544  38.636  0.00  0.00    +0.000 A 
ATOM      5  N   UNL     1      14.992  10.966  38.225  0.00  0.00    +0.000 NA
ATOM      6  C   UNL     1      17.516  10.830  38.020  0.00  0.00    +0.000 A 
ATOM      7  C   UNL     1      18.628  10.317  38.600  0.00  0.00    +0.000 A 
ENDROOT
BRANCH   7   8
ATOM      8  C   UNL     1      20.005  10.537  38.053  0.00  0.00    +0.000 A 
ATOM      9  C   UNL     1      20.512   9.670  37.109  0.00  0.00    +0.000 A 
ATOM     10  C   UNL     1      21.789   9.892  36.616  0.00  0.00    +0.000 A 
ATOM     11  C   UNL     1      22.570  10.946  37.033  0.00  0.00    +0.000 A 
ATOM     12  C   UNL     1      22.055  11.802  37.972  0.00  0.00    +0.000 A 
ATOM     13  C   UNL     1      20.768  11.593  38.480  0.00  0.00    +0.000 A 
BRANCH  11  14
ATOM     14  C   UNL     1      23.932  11.122  36.460  0.00  0.00    +0.000 C 
ATOM     15  C   UNL     1      24.646   9.790  36.350  0.00  0.00    +0.000 C 
ATOM     16  C   UNL     1      24.735  12.151  37.174  0.00  0.00    +0.000 C 
ENDBRANCH  11  14
ENDBRANCH   7   8
BRANCH   6  17
ATOM     17  C   UNL     1      17.520  11.670  36.782  0.00  0.00    +0.000 C 
ATOM     18  N   UNL     1      17.234  11.079  35.530  0.00  0.00    +0.000 NA
ATOM     19  O   UNL     1      17.767  12.893  36.807  0.00  0.00    +0.000 OA
ENDBRANCH   6  17
TORSDOF 3
ENDMDL
MODEL 6
REMARK VINA RESULT:      -5.3      3.993      5.980
REMARK  Name = 
REMARK  3 active torsions:
REMARK  status: ('A' for Active; 'I' for Inactive)
REMARK    1  A    between atoms: C_6  and  C_7
REMARK    2  A    between atoms: C_10  and  C_11
REMARK    3  A    between atoms: C_14  and  C_15
REMARK                            x       y       z     vdW  Elec       q    Type
REMARK                         _______ _______ _______ _____ _____    ______ ____
ROOT
ATOM      1  C   UNL     1      26.594  28.544  23.407  0.00  0.00    +0.000 C 
ATOM      2  C   UNL     1      27.431  27.512  22.683  0.00  0.00    +0.000 A 
ATOM      3  S   UNL     1      28.223  27.641  21.186  0.00  0.00    +0.000 S 
ATOM      4  C   UNL     1      28.911  26.087  21.113  0.00  0.00    +0.000 A 
ATOM      5  N   UNL     1      29.740  25.507  20.069  0.00  0.00    +0.000 NA
ATOM      6  C   UNL     1      28.498  25.489  22.280  0.00  0.00    +0.000 A 
ATOM      7  C   UNL     1      27.725  26.243  23.098  0.00  0.00    +0.000 A 
ENDROOT
BRANCH   7   8
ATOM      8  C   UNL     1      27.194  25.739  24.405  0.00  0.00    +0.000 A 
ATOM      9  C   UNL     1      25.976  25.095  24.446  0.00  0.00    +0.000 A 
ATOM     10  C   UNL     1      25.504  24.637  25.667  0.00  0.00    +0.000 A 
ATOM     11  C   UNL     1      26.205  24.801  26.840  0.00  0.00    +0.000 A 
ATOM     12  C   UNL     1      27.415  25.443  26.787  0.00  0.00    +0.000 A 
ATOM     13  C   UNL     1      27.907  25.912  25.563  0.00  0.00    +0.000 A 
BRANCH  11  14
ATOM     14  C   UNL     1      25.636  24.284  28.113  0.00  0.00    +0.000 C 
ATOM     15  C   UNL     1      25.272  25.424  29.044  0.00  0.00    +0.000 C 
ATOM     16  C   UNL     1      26.498  23.261  28.764  0.00  0.00    +0.000 C 
ENDBRANCH  11  14
ENDBRANCH   7   8
BRANCH   6  17
ATOM     17  C   UNL     1      28.918  24.084  22.572  0.00  0.00    +0.000 C 
ATOM     18  N   UNL     1      28.032  23.015  22.303  0.00  0.00    +0.000 NA
ATOM     19  O   UNL     1      30.037  23.808  23.050  0.00  0.00    +0.000 OA
ENDBRANCH   6  17
TORSDOF 3
ENDMDL
MODEL 7
REMARK VINA RESULT:      -5.2      5.049      6.759
REMARK  Name = 
REMARK  3 active torsions:
REMARK  status: ('A' for Active; 'I' for Inactive)
REMARK    1  A    between atoms: C_6  and  C_7
REMARK    2  A    between atoms: C_10  and  C_11
REMARK    3  A    between atoms: C_14  and  C_15
REMARK                            x       y       z     vdW  Elec       q    Type
REMARK                         _______ _______ _______ _____ _____    ______ ____
ROOT
ATOM      1  C   UNL     1      23.809  26.592  25.967  0.00  0.00    +0.000 C 
ATOM      2  C   UNL     1      24.119  26.296  27.419  0.00  0.00    +0.000 A 
ATOM      3  S   UNL     1      23.316  26.841  28.813  0.00  0.00    +0.000 S 
ATOM      4  C   UNL     1      24.271  26.070  29.990  0.00  0.00    +0.000 A 
ATOM      5  N   UNL     1      24.139  26.107  31.438  0.00  0.00    +0.000 NA
ATOM      6  C   UNL     1      25.215  25.392  29.255  0.00  0.00    +0.000 A 
ATOM      7  C   UNL     1      25.127  25.515  27.909  0.00  0.00    +0.000 A 
ENDROOT
BRANCH   7   8
ATOM      8  C   UNL     1      26.079  24.840  26.969  0.00  0.00    +0.000 A 
ATOM      9  C   UNL     1      27.222  25.497  26.564  0.00  0.00    +0.000 A 
ATOM     10  C   UNL     1      28.088  24.855  25.693  0.00  0.00    +0.000 A 
ATOM     11  C   UNL     1      27.851  23.585  25.217  0.00  0.00    +0.000 A 
ATOM     12  C   UNL     1      26.713  22.942  25.626  0.00  0.00    +0.000 A 
ATOM     13  C   UNL     1      25.826  23.576  26.505  0.00  0.00    +0.000 A 
BRANCH  11  14
ATOM     14  C   UNL     1      28.826  22.958  24.284  0.00  0.00    +0.000 C 
ATOM     15  C   UNL     1      30.090  22.554  25.017  0.00  0.00    +0.000 C 
ATOM     16  C   UNL     1      29.097  23.789  23.080  0.00  0.00    +0.000 C 
ENDBRANCH  11  14
ENDBRANCH   7   8
BRANCH   6  17
ATOM     17  C   UNL     1      26.252  24.580  29.965  0.00  0.00    +0.000 C 
ATOM     18  N   UNL     1      25.948  23.264  30.385  0.00  0.00    +0.000 NA
ATOM     19  O   UNL     1      27.394  25.020  30.205  0.00  0.00    +0.000 OA
ENDBRANCH   6  17
TORSDOF 3
ENDMDL
MODEL 8
REMARK VINA RESULT:      -5.2     22.223     23.859
REMARK  Name = 
REMARK  3 active torsions:
REMARK  status: ('A' for Active; 'I' for Inactive)
REMARK    1  A    between atoms: C_6  and  C_7
REMARK    2  A    between atoms: C_10  and  C_11
REMARK    3  A    between atoms: C_14  and  C_15
REMARK                            x       y       z     vdW  Elec       q    Type
REMARK                         _______ _______ _______ _____ _____    ______ ____
ROOT
ATOM      1  C   UNL     1      26.342  -0.293  17.325  0.00  0.00    +0.000 C 
ATOM      2  C   UNL     1      24.955  -0.085  16.758  0.00  0.00    +0.000 A 
ATOM      3  S   UNL     1      23.889  -1.233  16.100  0.00  0.00    +0.000 S 
ATOM      4  C   UNL     1      22.592  -0.202  15.712  0.00  0.00    +0.000 A 
ATOM      5  N   UNL     1      21.316  -0.536  15.100  0.00  0.00    +0.000 NA
ATOM      6  C   UNL     1      23.029   1.039  16.110  0.00  0.00    +0.000 A 
ATOM      7  C   UNL     1      24.267   1.091  16.658  0.00  0.00    +0.000 A 
ENDROOT
BRANCH   7   8
ATOM      8  C   UNL     1      24.887   2.367  17.142  0.00  0.00    +0.000 A 
ATOM      9  C   UNL     1      25.726   3.077  16.311  0.00  0.00    +0.000 A 
ATOM     10  C   UNL     1      26.290   4.254  16.779  0.00  0.00    +0.000 A 
ATOM     11  C   UNL     1      26.043   4.741  18.043  0.00  0.00    +0.000 A 
ATOM     12  C   UNL     1      25.207   4.027  18.860  0.00  0.00    +0.000 A 
ATOM     13  C   UNL     1      24.629   2.836  18.404  0.00  0.00    +0.000 A 
BRANCH  11  14
ATOM     14  C   UNL     1      26.684   6.011  18.478  0.00  0.00    +0.000 C 
ATOM     15  C   UNL     1      26.868   6.952  17.303  0.00  0.00    +0.000 C 
ATOM     16  C   UNL     1      27.938   5.797  19.249  0.00  0.00    +0.000 C 
ENDBRANCH  11  14
ENDBRANCH   7   8
BRANCH   6  17
ATOM     17  C   UNL     1      22.136   2.225  15.924  0.00  0.00    +0.000 C 
ATOM     18  N   UNL     1      21.179   2.547  16.914  0.00  0.00    +0.000 NA
ATOM     19  O   UNL     1      22.201   2.955  14.915  0.00  0.00    +0.000 OA
ENDBRANCH   6  17
TORSDOF 3
ENDMDL
MODEL 9
REMARK VINA RESULT:      -5.2     32.393     34.308
REMARK  Name = 
REMARK  3 active torsions:
REMARK  status: ('A' for Active; 'I' for Inactive)
REMARK    1  A    between atoms: C_6  and  C_7
REMARK    2  A    between atoms: C_10  and  C_11
REMARK    3  A    between atoms: C_14  and  C_15
REMARK                            x       y       z     vdW  Elec       q    Type
REMARK                         _______ _______ _______ _____ _____    ______ ____
ROOT
ATOM      1  C   UNL     1      22.991 -10.430  26.749  0.00  0.00    +0.000 C 
ATOM      2  C   UNL     1      23.246 -10.266  25.266  0.00  0.00    +0.000 A 
ATOM      3  S   UNL     1      24.401 -11.041  24.290  0.00  0.00    +0.000 S 
ATOM      4  C   UNL     1      24.025 -10.310  22.800  0.00  0.00    +0.000 A 
ATOM      5  N   UNL     1      24.645 -10.520  21.502  0.00  0.00    +0.000 NA
ATOM      6  C   UNL     1      22.988  -9.460  23.104  0.00  0.00    +0.000 A 
ATOM      7  C   UNL     1      22.585  -9.444  24.397  0.00  0.00    +0.000 A 
ENDROOT
BRANCH   7   8
ATOM      8  C   UNL     1      21.469  -8.573  24.889  0.00  0.00    +0.000 A 
ATOM      9  C   UNL     1      21.713  -7.247  25.177  0.00  0.00    +0.000 A 
ATOM     10  C   UNL     1      20.666  -6.460  25.631  0.00  0.00    +0.000 A 
ATOM     11  C   UNL     1      19.392  -6.952  25.805  0.00  0.00    +0.000 A 
ATOM     12  C   UNL     1      19.161  -8.271  25.516  0.00  0.00    +0.000 A 
ATOM     13  C   UNL     1      20.207  -9.081  25.056  0.00  0.00    +0.000 A 
BRANCH  11  14
ATOM     14  C   UNL     1      18.318  -6.048  26.297  0.00  0.00    +0.000 C 
ATOM     15  C   UNL     1      18.902  -4.751  26.822  0.00  0.00    +0.000 C 
ATOM     16  C   UNL     1      17.403  -6.705  27.269  0.00  0.00    +0.000 C 
ENDBRANCH  11  14
ENDBRANCH   7   8
BRANCH   6  17
ATOM     17  C   UNL     1      22.380  -8.629  22.018  0.00  0.00    +0.000 C 
ATOM     18  N   UNL     1      21.278  -9.126  21.285  0.00  0.00    +0.000 NA
ATOM     19  O   UNL     1      22.811  -7.495  21.727  0.00  0.00    +0.000 OA
ENDBRANCH   6  17
TORSDOF 3
ENDMDL
MODEL 10
REMARK VINA RESULT:      -5.0     33.975     36.244
REMARK  Name = 
REMARK  3 active torsions:
REMARK  status: ('A' for Active; 'I' for Inactive)
REMARK    1  A    between atoms: C_6  and  C_7
REMARK    2  A    between atoms: C_10  and  C_11
REMARK    3  A    between atoms: C_14  and  C_15
REMARK                            x       y       z     vdW  Elec       q    Type
REMARK                         _______ _______ _______ _____ _____    ______ ____
ROOT
ATOM      1  C   UNL     1      21.022 -11.054  27.667  0.00  0.00    +0.000 C 
ATOM      2  C   UNL     1      20.564  -9.734  27.085  0.00  0.00    +0.000 A 
ATOM      3  S   UNL     1      21.336  -8.751  25.935  0.00  0.00    +0.000 S 
ATOM      4  C   UNL     1      20.189  -7.498  25.842  0.00  0.00    +0.000 A 
ATOM      5  N   UNL     1      20.219  -6.295  25.025  0.00  0.00    +0.000 NA
ATOM      6  C   UNL     1      19.211  -7.881  26.728  0.00  0.00    +0.000 A 
ATOM      7  C   UNL     1      19.415  -9.054  27.374  0.00  0.00    +0.000 A 
ENDROOT
BRANCH   7   8
ATOM      8  C   UNL     1      18.444  -9.611  28.371  0.00  0.00    +0.000 A 
ATOM      9  C   UNL     1      18.612  -9.341  29.713  0.00  0.00    +0.000 A 
ATOM     10  C   UNL     1      17.703  -9.867  30.618  0.00  0.00    +0.000 A 
ATOM     11  C   UNL     1      16.639 -10.648  30.228  0.00  0.00    +0.000 A 
ATOM     12  C   UNL     1      16.482 -10.910  28.892  0.00  0.00    +0.000 A 
ATOM     13  C   UNL     1      17.390 -10.387  27.964  0.00  0.00    +0.000 A 
BRANCH  11  14
ATOM     14  C   UNL     1      15.703 -11.179  31.256  0.00  0.00    +0.000 C 
ATOM     15  C   UNL     1      14.339 -11.453  30.653  0.00  0.00    +0.000 C 
ATOM     16  C   UNL     1      15.635 -10.330  32.476  0.00  0.00    +0.000 C 
ENDBRANCH  11  14
ENDBRANCH   7   8
BRANCH   6  17
ATOM     17  C   UNL     1      18.012  -7.007  26.920  0.00  0.00    +0.000 C 
ATOM     18  N   UNL     1      16.850  -7.227  26.144  0.00  0.00    +0.000 NA
ATOM     19  O   UNL     1      17.992  -6.077  27.751  0.00  0.00    +0.000 OA
ENDBRANCH   6  17
TORSDOF 3
ENDMDL
