MODEL 1
REMARK VINA RESULT:      -6.6      0.000      0.000
REMARK  Name = 
REMARK  5 active torsions:
REMARK  status: ('A' for Active; 'I' for Inactive)
REMARK    1  A    between atoms: C_2  and  C_4
REMARK    2  A    between atoms: C_4  and  C_5
REMARK    3  A    between atoms: C_5  and  C_7
REMARK    4  A    between atoms: N_9  and  C_10
REMARK    5  A    between atoms: C_15  and  C_16
REMARK                            x       y       z     vdW  Elec       q    Type
REMARK                         _______ _______ _______ _____ _____    ______ ____
ROOT
ATOM      1  C   UNL     1      15.192  11.464  33.688  0.00  0.00    +0.000 C 
ATOM      2  O   UNL     1      14.875  10.274  33.779  0.00  0.00    +0.000 OA
ATOM      3  N   UNL     1      15.066  12.313  34.803  0.00  0.00    +0.000 NA
ENDROOT
BRANCH   3   4
ATOM      4  C   UNL     1      14.583  11.879  36.066  0.00  0.00    +0.000 A 
ATOM      5  C   UNL     1      13.249  11.847  36.371  0.00  0.00    +0.000 A 
ATOM      6  C   UNL     1      12.814  11.420  37.605  0.00  0.00    +0.000 A 
ATOM      7  C   UNL     1      13.697  11.006  38.594  0.00  0.00    +0.000 A 
ATOM      8  C   UNL     1      15.040  11.046  38.266  0.00  0.00    +0.000 A 
ATOM      9  C   UNL     1      15.484  11.475  37.024  0.00  0.00    +0.000 A 
BRANCH   9  10
ATOM     10  C   UNL     1      16.904  11.494  36.741  0.00  0.00    +0.000 C 
ATOM     11  N   UNL     1      17.565  10.322  36.264  0.00  0.00    +0.000 NA
ATOM     12  O   UNL     1      17.583  12.535  36.908  0.00  0.00    +0.000 OA
ENDBRANCH   9  10
ENDBRANCH   3   4
BRANCH   1  13
ATOM     13  C   UNL     1      15.729  12.138  32.438  0.00  0.00    +0.000 C 
ATOM     14 BR   UNL     1      16.252  10.483  31.422  0.00  0.00    +0.000 Br
BRANCH  13  15
ATOM     15  C   UNL     1      14.424  12.459  31.650  0.00  0.00    +0.000 C 
BRANCH  15  17
ATOM     16  C   UNL     1      15.851  14.105  30.362  0.00  0.00    +0.000 C 
ATOM     17  C   UNL     1      14.503  13.695  30.851  0.00  0.00    +0.000 C 
ATOM     18  C   UNL     1      13.941  14.815  31.696  0.00  0.00    +0.000 C 
ENDBRANCH  15  17
ENDBRANCH  13  15
ENDBRANCH   1  13
TORSDOF 5
ENDMDL
MODEL 2
REMARK VINA RESULT:      -5.7      1.759      2.892
REMARK  Name = 
REMARK  5 active torsions:
REMARK  status: ('A' for Active; 'I' for Inactive)
REMARK    1  A    between atoms: C_2  and  C_4
REMARK    2  A    between atoms: C_4  and  C_5
REMARK    3  A    between atoms: C_5  and  C_7
REMARK    4  A    between atoms: N_9  and  C_10
REMARK    5  A    between atoms: C_15  and  C_16
REMARK                            x       y       z     vdW  Elec       q    Type
REMARK                         _______ _______ _______ _____ _____    ______ ____
ROOT
ATOM      1  C   UNL     1      16.254  10.676  33.563  0.00  0.00    +0.000 C 
ATOM      2  O   UNL     1      15.712   9.599  33.828  0.00  0.00    +0.000 OA
ATOM      3  N   UNL     1      17.145  11.261  34.482  0.00  0.00    +0.000 NA
ENDROOT
BRANCH   3   4
ATOM      4  C   UNL     1      17.474  10.676  35.733  0.00  0.00    +0.000 A 
ATOM      5  C   UNL     1      18.530   9.820  35.889  0.00  0.00    +0.000 A 
ATOM      6  C   UNL     1      18.822   9.271  37.118  0.00  0.00    +0.000 A 
ATOM      7  C   UNL     1      18.067   9.555  38.249  0.00  0.00    +0.000 A 
ATOM      8  C   UNL     1      17.005  10.421  38.070  0.00  0.00    +0.000 A 
ATOM      9  C   UNL     1      16.706  10.978  36.835  0.00  0.00    +0.000 A 
BRANCH   9  10
ATOM     10  C   UNL     1      15.580  11.880  36.711  0.00  0.00    +0.000 C 
ATOM     11  N   UNL     1      15.788  13.272  36.474  0.00  0.00    +0.000 NA
ATOM     12  O   UNL     1      14.402  11.462  36.812  0.00  0.00    +0.000 OA
ENDBRANCH   9  10
ENDBRANCH   3   4
BRANCH   1  13
ATOM     13  C   UNL     1      16.047  11.473  32.287  0.00  0.00    +0.000 C 
ATOM     14 BR   UNL     1      14.672  10.286  31.427  0.00  0.00    +0.000 Br
BRANCH  13  15
ATOM     15  C   UNL     1      15.081  12.601  32.756  0.00  0.00    +0.000 C 
BRANCH  15  17
ATOM     16  C   UNL     1      15.311  13.878  30.584  0.00  0.00    +0.000 C 
ATOM     17  C   UNL     1      14.428  13.321  31.649  0.00  0.00    +0.000 C 
ATOM     18  C   UNL     1      13.636  14.458  32.255  0.00  0.00    +0.000 C 
ENDBRANCH  15  17
ENDBRANCH  13  15
ENDBRANCH   1  13
TORSDOF 5
ENDMDL
MODEL 3
REMARK VINA RESULT:      -5.5     20.541     23.242
REMARK  Name = 
REMARK  5 active torsions:
REMARK  status: ('A' for Active; 'I' for Inactive)
REMARK    1  A    between atoms: C_2  and  C_4
REMARK    2  A    between atoms: C_4  and  C_5
REMARK    3  A    between atoms: C_5  and  C_7
REMARK    4  A    between atoms: N_9  and  C_10
REMARK    5  A    between atoms: C_15  and  C_16
REMARK                            x       y       z     vdW  Elec       q    Type
REMARK                         _______ _______ _______ _____ _____    ______ ____
ROOT
ATOM      1  C   UNL     1      29.255  25.392  21.378  0.00  0.00    +0.000 C 
ATOM      2  O   UNL     1      29.684  24.364  20.845  0.00  0.00    +0.000 OA
ATOM      3  N   UNL     1      29.222  25.495  22.781  0.00  0.00    +0.000 NA
ENDROOT
BRANCH   3   4
ATOM      4  C   UNL     1      29.663  24.465  23.652  0.00  0.00    +0.000 A 
ATOM      5  C   UNL     1      30.979  24.304  23.993  0.00  0.00    +0.000 A 
ATOM      6  C   UNL     1      31.372  23.294  24.842  0.00  0.00    +0.000 A 
ATOM      7  C   UNL     1      30.464  22.397  25.389  0.00  0.00    +0.000 A 
ATOM      8  C   UNL     1      29.141  22.576  25.032  0.00  0.00    +0.000 A 
ATOM      9  C   UNL     1      28.738  23.592  24.177  0.00  0.00    +0.000 A 
BRANCH   9  10
ATOM     10  C   UNL     1      27.336  23.729  23.842  0.00  0.00    +0.000 C 
ATOM     11  N   UNL     1      26.475  24.545  24.636  0.00  0.00    +0.000 NA
ATOM     12  O   UNL     1      26.847  23.135  22.851  0.00  0.00    +0.000 OA
ENDBRANCH   9  10
ENDBRANCH   3   4
BRANCH   1  13
ATOM     13  C   UNL     1      28.735  26.613  20.640  0.00  0.00    +0.000 C 
ATOM     14 BR   UNL     1      29.086  27.982  22.070  0.00  0.00    +0.000 Br
BRANCH  13  15
ATOM     15  C   UNL     1      29.933  26.972  19.712  0.00  0.00    +0.000 C 
BRANCH  15  17
ATOM     16  C   UNL     1      28.886  28.458  17.952  0.00  0.00    +0.000 C 
ATOM     17  C   UNL     1      29.828  28.308  19.098  0.00  0.00    +0.000 C 
ATOM     18  C   UNL     1      31.212  28.700  18.633  0.00  0.00    +0.000 C 
ENDBRANCH  15  17
ENDBRANCH  13  15
ENDBRANCH   1  13
TORSDOF 5
ENDMDL
MODEL 4
REMARK VINA RESULT:      -5.5     17.328     20.610
REMARK  Name = 
REMARK  5 active torsions:
REMARK  status: ('A' for Active; 'I' for Inactive)
REMARK    1  A    between atoms: C_2  and  C_4
REMARK    2  A    between atoms: C_4  and  C_5
REMARK    3  A    between atoms: C_5  and  C_7
REMARK    4  A    between atoms: N_9  and  C_10
REMARK    5  A    between atoms: C_15  and  C_16
REMARK                            x       y       z     vdW  Elec       q    Type
REMARK                         _______ _______ _______ _____ _____    ______ ____
ROOT
ATOM      1  C   UNL     1      28.253  23.442  25.933  0.00  0.00    +0.000 C 
ATOM      2  O   UNL     1      28.306  24.654  26.162  0.00  0.00    +0.000 OA
ATOM      3  N   UNL     1      28.294  22.975  24.606  0.00  0.00    +0.000 NA
ENDROOT
BRANCH   3   4
ATOM      4  C   UNL     1      28.394  23.831  23.478  0.00  0.00    +0.000 A 
ATOM      5  C   UNL     1      29.592  24.323  23.033  0.00  0.00    +0.000 A 
ATOM      6  C   UNL     1      29.654  25.151  21.934  0.00  0.00    +0.000 A 
ATOM      7  C   UNL     1      28.517  25.526  21.230  0.00  0.00    +0.000 A 
ATOM      8  C   UNL     1      27.318  25.019  21.696  0.00  0.00    +0.000 A 
ATOM      9  C   UNL     1      27.249  24.184  22.802  0.00  0.00    +0.000 A 
BRANCH   9  10
ATOM     10  C   UNL     1      25.963  23.685  23.240  0.00  0.00    +0.000 C 
ATOM     11  N   UNL     1      25.303  22.645  22.519  0.00  0.00    +0.000 NA
ATOM     12  O   UNL     1      25.399  24.154  24.259  0.00  0.00    +0.000 OA
ENDBRANCH   9  10
ENDBRANCH   3   4
BRANCH   1  13
ATOM     13  C   UNL     1      28.144  22.352  26.984  0.00  0.00    +0.000 C 
ATOM     14 BR   UNL     1      30.107  21.996  27.234  0.00  0.00    +0.000 Br
BRANCH  13  15
ATOM     15  C   UNL     1      27.916  23.173  28.288  0.00  0.00    +0.000 C 
BRANCH  15  17
ATOM     16  C   UNL     1      25.869  24.342  29.207  0.00  0.00    +0.000 C 
ATOM     17  C   UNL     1      26.547  23.071  28.822  0.00  0.00    +0.000 C 
ATOM     18  C   UNL     1      26.603  22.173  30.037  0.00  0.00    +0.000 C 
ENDBRANCH  15  17
ENDBRANCH  13  15
ENDBRANCH   1  13
TORSDOF 5
ENDMDL
MODEL 5
REMARK VINA RESULT:      -5.3     17.604     20.672
REMARK  Name = 
REMARK  5 active torsions:
REMARK  status: ('A' for Active; 'I' for Inactive)
REMARK    1  A    between atoms: C_2  and  C_4
REMARK    2  A    between atoms: C_4  and  C_5
REMARK    3  A    between atoms: C_5  and  C_7
REMARK    4  A    between atoms: N_9  and  C_10
REMARK    5  A    between atoms: C_15  and  C_16
REMARK                            x       y       z     vdW  Elec       q    Type
REMARK                         _______ _______ _______ _____ _____    ______ ____
ROOT
ATOM      1  C   UNL     1      27.887  23.231  26.359  0.00  0.00    +0.000 C 
ATOM      2  O   UNL     1      27.347  24.341  26.383  0.00  0.00    +0.000 OA
ATOM      3  N   UNL     1      28.402  22.725  25.150  0.00  0.00    +0.000 NA
ENDROOT
BRANCH   3   4
ATOM      4  C   UNL     1      28.340  23.428  23.919  0.00  0.00    +0.000 A 
ATOM      5  C   UNL     1      27.198  23.491  23.165  0.00  0.00    +0.000 A 
ATOM      6  C   UNL     1      27.173  24.183  21.975  0.00  0.00    +0.000 A 
ATOM      7  C   UNL     1      28.291  24.843  21.483  0.00  0.00    +0.000 A 
ATOM      8  C   UNL     1      29.433  24.766  22.258  0.00  0.00    +0.000 A 
ATOM      9  C   UNL     1      29.466  24.071  23.458  0.00  0.00    +0.000 A 
BRANCH   9  10
ATOM     10  C   UNL     1      30.693  24.028  24.225  0.00  0.00    +0.000 C 
ATOM     11  N   UNL     1      31.019  25.081  25.133  0.00  0.00    +0.000 NA
ATOM     12  O   UNL     1      31.495  23.071  24.110  0.00  0.00    +0.000 OA
ENDBRANCH   9  10
ENDBRANCH   3   4
BRANCH   1  13
ATOM     13  C   UNL     1      28.061  22.312  27.555  0.00  0.00    +0.000 C 
ATOM     14 BR   UNL     1      30.070  22.306  27.623  0.00  0.00    +0.000 Br
BRANCH  13  15
ATOM     15  C   UNL     1      27.817  23.279  28.752  0.00  0.00    +0.000 C 
BRANCH  15  17
ATOM     16  C   UNL     1      26.056  24.134  30.354  0.00  0.00    +0.000 C 
ATOM     17  C   UNL     1      26.534  23.056  29.442  0.00  0.00    +0.000 C 
ATOM     18  C   UNL     1      26.668  21.780  30.241  0.00  0.00    +0.000 C 
ENDBRANCH  15  17
ENDBRANCH  13  15
ENDBRANCH   1  13
TORSDOF 5
ENDMDL
MODEL 6
REMARK VINA RESULT:      -5.3      1.648      2.078
REMARK  Name = 
REMARK  5 active torsions:
REMARK  status: ('A' for Active; 'I' for Inactive)
REMARK    1  A    between atoms: C_2  and  C_4
REMARK    2  A    between atoms: C_4  and  C_5
REMARK    3  A    between atoms: C_5  and  C_7
REMARK    4  A    between atoms: N_9  and  C_10
REMARK    5  A    between atoms: C_15  and  C_16
REMARK                            x       y       z     vdW  Elec       q    Type
REMARK                         _______ _______ _______ _____ _____    ______ ____
ROOT
ATOM      1  C   UNL     1      15.701  11.228  33.989  0.00  0.00    +0.000 C 
ATOM      2  O   UNL     1      14.550  11.008  34.379  0.00  0.00    +0.000 OA
ATOM      3  N   UNL     1      16.772  11.197  34.903  0.00  0.00    +0.000 NA
ENDROOT
BRANCH   3   4
ATOM      4  C   UNL     1      16.612  10.921  36.286  0.00  0.00    +0.000 A 
ATOM      5  C   UNL     1      15.625  11.496  37.041  0.00  0.00    +0.000 A 
ATOM      6  C   UNL     1      15.498  11.205  38.380  0.00  0.00    +0.000 A 
ATOM      7  C   UNL     1      16.355  10.325  39.028  0.00  0.00    +0.000 A 
ATOM      8  C   UNL     1      17.345   9.756  38.248  0.00  0.00    +0.000 A 
ATOM      9  C   UNL     1      17.478  10.044  36.898  0.00  0.00    +0.000 A 
BRANCH   9  10
ATOM     10  C   UNL     1      18.535   9.415  36.134  0.00  0.00    +0.000 C 
ATOM     11  N   UNL     1      18.231   8.429  35.148  0.00  0.00    +0.000 NA
ATOM     12  O   UNL     1      19.738   9.718  36.322  0.00  0.00    +0.000 OA
ENDBRANCH   9  10
ENDBRANCH   3   4
BRANCH   1  13
ATOM     13  C   UNL     1      16.099  11.543  32.558  0.00  0.00    +0.000 C 
ATOM     14 BR   UNL     1      14.851  10.272  31.626  0.00  0.00    +0.000 Br
BRANCH  13  15
ATOM     15  C   UNL     1      15.306  12.854  32.277  0.00  0.00    +0.000 C 
BRANCH  15  17
ATOM     16  C   UNL     1      16.096  13.954  30.140  0.00  0.00    +0.000 C 
ATOM     17  C   UNL     1      15.083  13.117  30.844  0.00  0.00    +0.000 C 
ATOM     18  C   UNL     1      13.735  13.787  30.713  0.00  0.00    +0.000 C 
ENDBRANCH  15  17
ENDBRANCH  13  15
ENDBRANCH   1  13
TORSDOF 5
ENDMDL
MODEL 7
REMARK VINA RESULT:      -5.3     24.312     25.960
REMARK  Name = 
REMARK  5 active torsions:
REMARK  status: ('A' for Active; 'I' for Inactive)
REMARK    1  A    between atoms: C_2  and  C_4
REMARK    2  A    between atoms: C_4  and  C_5
REMARK    3  A    between atoms: C_5  and  C_7
REMARK    4  A    between atoms: N_9  and  C_10
REMARK    5  A    between atoms: C_15  and  C_16
REMARK                            x       y       z     vdW  Elec       q    Type
REMARK                         _______ _______ _______ _____ _____    ______ ____
ROOT
ATOM      1  C   UNL     1      32.857  -4.952  32.906  0.00  0.00    +0.000 C 
ATOM      2  O   UNL     1      32.022  -5.844  32.729  0.00  0.00    +0.000 OA
ATOM      3  N   UNL     1      33.935  -4.809  32.012  0.00  0.00    +0.000 NA
ENDROOT
BRANCH   3   4
ATOM      4  C   UNL     1      34.132  -5.648  30.885  0.00  0.00    +0.000 A 
ATOM      5  C   UNL     1      33.639  -5.342  29.645  0.00  0.00    +0.000 A 
ATOM      6  C   UNL     1      33.850  -6.178  28.572  0.00  0.00    +0.000 A 
ATOM      7  C   UNL     1      34.566  -7.362  28.691  0.00  0.00    +0.000 A 
ATOM      8  C   UNL     1      35.054  -7.654  29.951  0.00  0.00    +0.000 A 
ATOM      9  C   UNL     1      34.845  -6.816  31.036  0.00  0.00    +0.000 A 
BRANCH   9  10
ATOM     10  C   UNL     1      35.384  -7.176  32.331  0.00  0.00    +0.000 C 
ATOM     11  N   UNL     1      36.631  -6.639  32.774  0.00  0.00    +0.000 NA
ATOM     12  O   UNL     1      34.772  -7.965  33.090  0.00  0.00    +0.000 OA
ENDBRANCH   9  10
ENDBRANCH   3   4
BRANCH   1  13
ATOM     13  C   UNL     1      32.840  -3.946  34.043  0.00  0.00    +0.000 C 
ATOM     14 BR   UNL     1      34.397  -4.669  35.090  0.00  0.00    +0.000 Br
BRANCH  13  15
ATOM     15  C   UNL     1      33.567  -2.722  33.411  0.00  0.00    +0.000 C 
BRANCH  15  17
ATOM     16  C   UNL     1      32.291  -1.196  34.975  0.00  0.00    +0.000 C 
ATOM     17  C   UNL     1      33.562  -1.522  34.267  0.00  0.00    +0.000 C 
ATOM     18  C   UNL     1      33.939  -0.346  33.395  0.00  0.00    +0.000 C 
ENDBRANCH  15  17
ENDBRANCH  13  15
ENDBRANCH   1  13
TORSDOF 5
ENDMDL
MODEL 8
REMARK VINA RESULT:      -5.2      2.824      6.170
REMARK  Name = 
REMARK  5 active torsions:
REMARK  status: ('A' for Active; 'I' for Inactive)
REMARK    1  A    between atoms: C_2  and  C_4
REMARK    2  A    between atoms: C_4  and  C_5
REMARK    3  A    between atoms: C_5  and  C_7
REMARK    4  A    between atoms: N_9  and  C_10
REMARK    5  A    between atoms: C_15  and  C_16
REMARK                            x       y       z     vdW  Elec       q    Type
REMARK                         _______ _______ _______ _____ _____    ______ ____
ROOT
ATOM      1  C   UNL     1      17.180  10.865  37.386  0.00  0.00    +0.000 C 
ATOM      2  O   UNL     1      17.555  12.034  37.525  0.00  0.00    +0.000 OA
ATOM      3  N   UNL     1      15.954  10.591  36.752  0.00  0.00    +0.000 NA
ENDROOT
BRANCH   3   4
ATOM      4  C   UNL     1      15.092  11.599  36.246  0.00  0.00    +0.000 A 
ATOM      5  C   UNL     1      14.140  12.208  37.019  0.00  0.00    +0.000 A 
ATOM      6  C   UNL     1      13.320  13.183  36.496  0.00  0.00    +0.000 A 
ATOM      7  C   UNL     1      13.416  13.594  35.173  0.00  0.00    +0.000 A 
ATOM      8  C   UNL     1      14.383  12.966  34.410  0.00  0.00    +0.000 A 
ATOM      9  C   UNL     1      15.212  11.983  34.930  0.00  0.00    +0.000 A 
BRANCH   9  10
ATOM     10  C   UNL     1      16.206  11.364  34.079  0.00  0.00    +0.000 C 
ATOM     11  N   UNL     1      15.852  10.286  33.214  0.00  0.00    +0.000 NA
ATOM     12  O   UNL     1      17.397  11.758  34.084  0.00  0.00    +0.000 OA
ENDBRANCH   9  10
ENDBRANCH   3   4
BRANCH   1  13
ATOM     13  C   UNL     1      17.942   9.637  37.850  0.00  0.00    +0.000 C 
ATOM     14 BR   UNL     1      19.783  10.205  37.274  0.00  0.00    +0.000 Br
BRANCH  13  15
ATOM     15  C   UNL     1      18.110   9.909  39.375  0.00  0.00    +0.000 C 
BRANCH  15  17
ATOM     16  C   UNL     1      15.921   9.598  40.604  0.00  0.00    +0.000 C 
ATOM     17  C   UNL     1      17.259   9.060  40.226  0.00  0.00    +0.000 C 
ATOM     18  C   UNL     1      18.033   8.773  41.493  0.00  0.00    +0.000 C 
ENDBRANCH  15  17
ENDBRANCH  13  15
ENDBRANCH   1  13
TORSDOF 5
ENDMDL
MODEL 9
REMARK VINA RESULT:      -5.2     18.059     20.051
REMARK  Name = 
REMARK  5 active torsions:
REMARK  status: ('A' for Active; 'I' for Inactive)
REMARK    1  A    between atoms: C_2  and  C_4
REMARK    2  A    between atoms: C_4  and  C_5
REMARK    3  A    between atoms: C_5  and  C_7
REMARK    4  A    between atoms: N_9  and  C_10
REMARK    5  A    between atoms: C_15  and  C_16
REMARK                            x       y       z     vdW  Elec       q    Type
REMARK                         _______ _______ _______ _____ _____    ______ ____
ROOT
ATOM      1  C   UNL     1      29.215  24.698  25.177  0.00  0.00    +0.000 C 
ATOM      2  O   UNL     1      29.080  25.829  25.652  0.00  0.00    +0.000 OA
ATOM      3  N   UNL     1      28.637  23.589  25.824  0.00  0.00    +0.000 NA
ENDROOT
BRANCH   3   4
ATOM      4  C   UNL     1      27.886  23.687  27.024  0.00  0.00    +0.000 A 
ATOM      5  C   UNL     1      28.471  23.654  28.261  0.00  0.00    +0.000 A 
ATOM      6  C   UNL     1      27.712  23.753  29.406  0.00  0.00    +0.000 A 
ATOM      7  C   UNL     1      26.331  23.889  29.364  0.00  0.00    +0.000 A 
ATOM      8  C   UNL     1      25.760  23.920  28.106  0.00  0.00    +0.000 A 
ATOM      9  C   UNL     1      26.519  23.821  26.948  0.00  0.00    +0.000 A 
BRANCH   9  10
ATOM     10  C   UNL     1      25.862  23.861  25.659  0.00  0.00    +0.000 C 
ATOM     11  N   UNL     1      25.472  25.106  25.081  0.00  0.00    +0.000 NA
ATOM     12  O   UNL     1      25.621  22.807  25.022  0.00  0.00    +0.000 OA
ENDBRANCH   9  10
ENDBRANCH   3   4
BRANCH   1  13
ATOM     13  C   UNL     1      29.976  24.363  23.906  0.00  0.00    +0.000 C 
ATOM     14 BR   UNL     1      31.249  23.013  24.681  0.00  0.00    +0.000 Br
BRANCH  13  15
ATOM     15  C   UNL     1      29.015  23.360  23.201  0.00  0.00    +0.000 C 
BRANCH  15  17
ATOM     16  C   UNL     1      29.252  24.987  21.278  0.00  0.00    +0.000 C 
ATOM     17  C   UNL     1      28.560  23.809  21.873  0.00  0.00    +0.000 C 
ATOM     18  C   UNL     1      27.086  24.128  21.987  0.00  0.00    +0.000 C 
ENDBRANCH  15  17
ENDBRANCH  13  15
ENDBRANCH   1  13
TORSDOF 5
ENDMDL
MODEL 10
REMARK VINA RESULT:      -5.2     21.806     22.997
REMARK  Name = 
REMARK  5 active torsions:
REMARK  status: ('A' for Active; 'I' for Inactive)
REMARK    1  A    between atoms: C_2  and  C_4
REMARK    2  A    between atoms: C_4  and  C_5
REMARK    3  A    between atoms: C_5  and  C_7
REMARK    4  A    between atoms: N_9  and  C_10
REMARK    5  A    between atoms: C_15  and  C_16
REMARK                            x       y       z     vdW  Elec       q    Type
REMARK                         _______ _______ _______ _____ _____    ______ ____
ROOT
ATOM      1  C   UNL     1      22.123  -7.845  24.899  0.00  0.00    +0.000 C 
ATOM      2  O   UNL     1      22.656  -6.875  25.446  0.00  0.00    +0.000 OA
ATOM      3  N   UNL     1      20.738  -8.057  25.033  0.00  0.00    +0.000 NA
ENDROOT
BRANCH   3   4
ATOM      4  C   UNL     1      19.885  -7.202  25.780  0.00  0.00    +0.000 A 
ATOM      5  C   UNL     1      19.948  -5.838  25.687  0.00  0.00    +0.000 A 
ATOM      6  C   UNL     1      19.105  -5.038  26.426  0.00  0.00    +0.000 A 
ATOM      7  C   UNL     1      18.159  -5.569  27.294  0.00  0.00    +0.000 A 
ATOM      8  C   UNL     1      18.113  -6.948  27.374  0.00  0.00    +0.000 A 
ATOM      9  C   UNL     1      18.960  -7.760  26.632  0.00  0.00    +0.000 A 
BRANCH   9  10
ATOM     10  C   UNL     1      18.862  -9.198  26.759  0.00  0.00    +0.000 C 
ATOM     11  N   UNL     1      18.006  -9.947  25.897  0.00  0.00    +0.000 NA
ATOM     12  O   UNL     1      19.522  -9.818  27.627  0.00  0.00    +0.000 OA
ENDBRANCH   9  10
ENDBRANCH   3   4
BRANCH   1  13
ATOM     13  C   UNL     1      22.843  -8.883  24.055  0.00  0.00    +0.000 C 
ATOM     14 BR   UNL     1      21.274  -9.500  22.960  0.00  0.00    +0.000 Br
BRANCH  13  15
ATOM     15  C   UNL     1      23.524  -8.005  22.963  0.00  0.00    +0.000 C 
BRANCH  15  17
ATOM     16  C   UNL     1      25.590  -9.260  23.708  0.00  0.00    +0.000 C 
ATOM     17  C   UNL     1      24.989  -8.152  22.911  0.00  0.00    +0.000 C 
ATOM     18  C   UNL     1      25.589  -6.846  23.379  0.00  0.00    +0.000 C 
ENDBRANCH  15  17
ENDBRANCH  13  15
ENDBRANCH   1  13
TORSDOF 5
ENDMDL
