MODEL 1
REMARK VINA RESULT:      -7.8      0.000      0.000
REMARK  Name = 
REMARK  9 active torsions:
REMARK  status: ('A' for Active; 'I' for Inactive)
REMARK    1  A    between atoms: C_9  and  C_10
REMARK    2  A    between atoms: C_13  and  O_14
REMARK    3  A    between atoms: O_14  and  C_15
REMARK    4  A    between atoms: C_15  and  C_16
REMARK    5  A    between atoms: C_16  and  C_17
REMARK    6  A    between atoms: C_17  and  C_18
REMARK    7  A    between atoms: C_18  and  C_19
REMARK    8  A    between atoms: C_23  and  C_24
REMARK    9  A    between atoms: N_26  and  C_27
REMARK                            x       y       z     vdW  Elec       q    Type
REMARK                         _______ _______ _______ _____ _____    ______ ____
ROOT
ATOM      1  C   UNL     1      36.098   0.330  18.469  0.00  0.00    +0.000 C 
ATOM      2  C   UNL     1      36.542  -0.376  17.432  0.00  0.00    +0.000 C 
ATOM      3  N   UNL     1      37.726  -1.040  17.464  0.00  0.00    +0.000 NA
ATOM      4  C   UNL     1      38.344  -1.326  16.232  0.00  0.00    +0.000 A 
ATOM      5  N   UNL     1      39.480  -1.973  15.908  0.00  0.00    +0.000 NA
ATOM      6  C   UNL     1      39.561  -1.966  14.547  0.00  0.00    +0.000 A 
ATOM      7  N   UNL     1      38.497  -1.331  14.111  0.00  0.00    +0.000 NA
ATOM      8  N   UNL     1      37.770  -0.951  15.185  0.00  0.00    +0.000 N 
ATOM      9  C   UNL     1      36.502  -0.178  14.885  0.00  0.00    +0.000 C 
ATOM     10  C   UNL     1      35.548  -0.359  16.230  0.00  0.00    +0.000 C 
ENDROOT
BRANCH   9  11
ATOM     11  C   UNL     1      37.033   1.301  15.097  0.00  0.00    +0.000 A 
ATOM     12  C   UNL     1      36.240   2.260  15.590  0.00  0.00    +0.000 A 
ATOM     13  C   UNL     1      36.740   3.532  15.759  0.00  0.00    +0.000 A 
ATOM     14  C   UNL     1      38.041   3.861  15.436  0.00  0.00    +0.000 A 
ATOM     15  C   UNL     1      38.809   2.831  14.932  0.00  0.00    +0.000 A 
ATOM     16  C   UNL     1      38.311   1.561  14.764  0.00  0.00    +0.000 A 
BRANCH  14  17
ATOM     17  O   UNL     1      38.559   5.140  15.601  0.00  0.00    +0.000 OA
BRANCH  17  18
ATOM     18  C   UNL     1      38.278   5.792  16.826  0.00  0.00    +0.000 C 
BRANCH  18  19
ATOM     19  C   UNL     1      39.215   5.111  17.836  0.00  0.00    +0.000 C 
BRANCH  19  20
ATOM     20  C   UNL     1      40.297   6.040  18.284  0.00  0.00    +0.000 C 
BRANCH  20  21
ATOM     21  C   UNL     1      40.165   6.214  19.773  0.00  0.00    +0.000 C 
BRANCH  21  22
ATOM     22  C   UNL     1      40.184   7.669  20.121  0.00  0.00    +0.000 C 
ATOM     23  C   UNL     1      38.789   8.134  20.513  0.00  0.00    +0.000 C 
ENDBRANCH  21  22
ENDBRANCH  20  21
ENDBRANCH  19  20
ENDBRANCH  18  19
ENDBRANCH  17  18
ENDBRANCH  14  17
ENDBRANCH   9  11
BRANCH  10  24
ATOM     24  C   UNL     1      35.223  -1.891  16.187  0.00  0.00    +0.000 C 
ATOM     25  O   UNL     1      34.702  -2.280  17.251  0.00  0.00    +0.000 OA
ATOM     26  N   UNL     1      35.442  -2.760  15.175  0.00  0.00    +0.000 NA
BRANCH  26  27
ATOM     27  C   UNL     1      35.075  -4.122  15.329  0.00  0.00    +0.000 A 
ATOM     28  C   UNL     1      33.917  -4.658  14.801  0.00  0.00    +0.000 A 
ATOM     29  C   UNL     1      33.577  -5.992  14.964  0.00  0.00    +0.000 A 
ATOM     30  C   UNL     1      34.399  -6.842  15.672  0.00  0.00    +0.000 A 
ATOM     31  C   UNL     1      35.555  -6.323  16.203  0.00  0.00    +0.000 A 
ATOM     32  C   UNL     1      35.875  -4.994  16.030  0.00  0.00    +0.000 A 
ENDBRANCH  26  27
ENDBRANCH  10  24
TORSDOF 9
ENDMDL
MODEL 2
REMARK VINA RESULT:      -6.9      4.310      7.224
REMARK  Name = 
REMARK  9 active torsions:
REMARK  status: ('A' for Active; 'I' for Inactive)
REMARK    1  A    between atoms: C_9  and  C_10
REMARK    2  A    between atoms: C_13  and  O_14
REMARK    3  A    between atoms: O_14  and  C_15
REMARK    4  A    between atoms: C_15  and  C_16
REMARK    5  A    between atoms: C_16  and  C_17
REMARK    6  A    between atoms: C_17  and  C_18
REMARK    7  A    between atoms: C_18  and  C_19
REMARK    8  A    between atoms: C_23  and  C_24
REMARK    9  A    between atoms: N_26  and  C_27
REMARK                            x       y       z     vdW  Elec       q    Type
REMARK                         _______ _______ _______ _____ _____    ______ ____
ROOT
ATOM      1  C   UNL     1      40.262  -2.556  15.239  0.00  0.00    +0.000 C 
ATOM      2  C   UNL     1      40.122  -1.835  14.129  0.00  0.00    +0.000 C 
ATOM      3  N   UNL     1      40.795  -0.671  13.936  0.00  0.00    +0.000 NA
ATOM      4  C   UNL     1      40.248   0.251  13.023  0.00  0.00    +0.000 A 
ATOM      5  N   UNL     1      40.657   1.458  12.587  0.00  0.00    +0.000 NA
ATOM      6  C   UNL     1      39.734   1.881  11.679  0.00  0.00    +0.000 A 
ATOM      7  N   UNL     1      38.824   0.937  11.600  0.00  0.00    +0.000 NA
ATOM      8  N   UNL     1      39.179  -0.053  12.449  0.00  0.00    +0.000 N 
ATOM      9  C   UNL     1      38.233  -1.235  12.518  0.00  0.00    +0.000 C 
ATOM     10  C   UNL     1      39.141  -2.491  13.111  0.00  0.00    +0.000 C 
ENDROOT
BRANCH   9  11
ATOM     11  C   UNL     1      37.401  -0.837  13.807  0.00  0.00    +0.000 A 
ATOM     12  C   UNL     1      37.349   0.429  14.239  0.00  0.00    +0.000 A 
ATOM     13  C   UNL     1      36.615   0.732  15.363  0.00  0.00    +0.000 A 
ATOM     14  C   UNL     1      35.921  -0.229  16.071  0.00  0.00    +0.000 A 
ATOM     15  C   UNL     1      36.012  -1.515  15.578  0.00  0.00    +0.000 A 
ATOM     16  C   UNL     1      36.745  -1.818  14.455  0.00  0.00    +0.000 A 
BRANCH  14  17
ATOM     17  O   UNL     1      35.175   0.063  17.207  0.00  0.00    +0.000 OA
BRANCH  17  18
ATOM     18  C   UNL     1      35.130  -0.930  18.216  0.00  0.00    +0.000 C 
BRANCH  18  19
ATOM     19  C   UNL     1      36.303  -0.578  19.142  0.00  0.00    +0.000 C 
BRANCH  19  20
ATOM     20  C   UNL     1      37.092  -1.795  19.506  0.00  0.00    +0.000 C 
BRANCH  20  21
ATOM     21  C   UNL     1      38.174  -1.964  18.474  0.00  0.00    +0.000 C 
BRANCH  21  22
ATOM     22  C   UNL     1      38.623  -3.391  18.435  0.00  0.00    +0.000 C 
ATOM     23  C   UNL     1      37.804  -4.171  17.416  0.00  0.00    +0.000 C 
ENDBRANCH  21  22
ENDBRANCH  20  21
ENDBRANCH  19  20
ENDBRANCH  18  19
ENDBRANCH  17  18
ENDBRANCH  14  17
ENDBRANCH   9  11
BRANCH  10  24
ATOM     24  C   UNL     1      40.156  -2.730  11.943  0.00  0.00    +0.000 C 
ATOM     25  O   UNL     1      41.170  -3.344  12.333  0.00  0.00    +0.000 OA
ATOM     26  N   UNL     1      40.039  -2.358  10.648  0.00  0.00    +0.000 NA
BRANCH  26  27
ATOM     27  C   UNL     1      41.077  -2.669   9.733  0.00  0.00    +0.000 A 
ATOM     28  C   UNL     1      41.103  -3.830   8.984  0.00  0.00    +0.000 A 
ATOM     29  C   UNL     1      42.129  -4.114   8.096  0.00  0.00    +0.000 A 
ATOM     30  C   UNL     1      43.174  -3.233   7.927  0.00  0.00    +0.000 A 
ATOM     31  C   UNL     1      43.162  -2.073   8.666  0.00  0.00    +0.000 A 
ATOM     32  C   UNL     1      42.133  -1.809   9.543  0.00  0.00    +0.000 A 
ENDBRANCH  26  27
ENDBRANCH  10  24
TORSDOF 9
ENDMDL
MODEL 3
REMARK VINA RESULT:      -6.7      4.488      8.730
REMARK  Name = 
REMARK  9 active torsions:
REMARK  status: ('A' for Active; 'I' for Inactive)
REMARK    1  A    between atoms: C_9  and  C_10
REMARK    2  A    between atoms: C_13  and  O_14
REMARK    3  A    between atoms: O_14  and  C_15
REMARK    4  A    between atoms: C_15  and  C_16
REMARK    5  A    between atoms: C_16  and  C_17
REMARK    6  A    between atoms: C_17  and  C_18
REMARK    7  A    between atoms: C_18  and  C_19
REMARK    8  A    between atoms: C_23  and  C_24
REMARK    9  A    between atoms: N_26  and  C_27
REMARK                            x       y       z     vdW  Elec       q    Type
REMARK                         _______ _______ _______ _____ _____    ______ ____
ROOT
ATOM      1  C   UNL     1      38.878  -2.870  12.743  0.00  0.00    +0.000 C 
ATOM      2  C   UNL     1      39.109  -1.560  12.789  0.00  0.00    +0.000 C 
ATOM      3  N   UNL     1      38.795  -0.736  11.757  0.00  0.00    +0.000 NA
ATOM      4  C   UNL     1      39.492   0.484  11.664  0.00  0.00    +0.000 A 
ATOM      5  N   UNL     1      39.416   1.518  10.804  0.00  0.00    +0.000 NA
ATOM      6  C   UNL     1      40.323   2.444  11.222  0.00  0.00    +0.000 A 
ATOM      7  N   UNL     1      40.900   1.949  12.294  0.00  0.00    +0.000 NA
ATOM      8  N   UNL     1      40.357   0.734  12.533  0.00  0.00    +0.000 N 
ATOM      9  C   UNL     1      40.913  -0.013  13.728  0.00  0.00    +0.000 C 
ATOM     10  C   UNL     1      39.741  -1.113  14.142  0.00  0.00    +0.000 C 
ENDROOT
BRANCH   9  11
ATOM     11  C   UNL     1      41.955  -0.956  12.994  0.00  0.00    +0.000 A 
ATOM     12  C   UNL     1      42.204  -2.195  13.436  0.00  0.00    +0.000 A 
ATOM     13  C   UNL     1      43.115  -2.982  12.769  0.00  0.00    +0.000 A 
ATOM     14  C   UNL     1      43.792  -2.539  11.650  0.00  0.00    +0.000 A 
ATOM     15  C   UNL     1      43.494  -1.255  11.242  0.00  0.00    +0.000 A 
ATOM     16  C   UNL     1      42.583  -0.469  11.908  0.00  0.00    +0.000 A 
BRANCH  14  17
ATOM     17  O   UNL     1      44.715  -3.322  10.967  0.00  0.00    +0.000 OA
BRANCH  17  18
ATOM     18  C   UNL     1      44.369  -4.678  10.750  0.00  0.00    +0.000 C 
BRANCH  18  19
ATOM     19  C   UNL     1      43.522  -4.648   9.468  0.00  0.00    +0.000 C 
BRANCH  19  20
ATOM     20  C   UNL     1      42.136  -5.148   9.722  0.00  0.00    +0.000 C 
BRANCH  20  21
ATOM     21  C   UNL     1      41.191  -4.320   8.894  0.00  0.00    +0.000 C 
BRANCH  21  22
ATOM     22  C   UNL     1      40.662  -3.182   9.709  0.00  0.00    +0.000 C 
ATOM     23  C   UNL     1      40.735  -1.887   8.913  0.00  0.00    +0.000 C 
ENDBRANCH  21  22
ENDBRANCH  20  21
ENDBRANCH  19  20
ENDBRANCH  18  19
ENDBRANCH  17  18
ENDBRANCH  14  17
ENDBRANCH   9  11
BRANCH  10  24
ATOM     24  C   UNL     1      38.584  -0.177  14.631  0.00  0.00    +0.000 C 
ATOM     25  O   UNL     1      39.025   0.828  15.224  0.00  0.00    +0.000 OA
ATOM     26  N   UNL     1      37.252  -0.351  14.477  0.00  0.00    +0.000 NA
BRANCH  26  27
ATOM     27  C   UNL     1      36.355   0.619  14.996  0.00  0.00    +0.000 A 
ATOM     28  C   UNL     1      35.816   0.548  16.265  0.00  0.00    +0.000 A 
ATOM     29  C   UNL     1      34.940   1.507  16.752  0.00  0.00    +0.000 A 
ATOM     30  C   UNL     1      34.573   2.581  15.970  0.00  0.00    +0.000 A 
ATOM     31  C   UNL     1      35.101   2.664  14.704  0.00  0.00    +0.000 A 
ATOM     32  C   UNL     1      35.970   1.702  14.239  0.00  0.00    +0.000 A 
ENDBRANCH  26  27
ENDBRANCH  10  24
TORSDOF 9
ENDMDL
MODEL 4
REMARK VINA RESULT:      -6.6      4.171      7.065
REMARK  Name = 
REMARK  9 active torsions:
REMARK  status: ('A' for Active; 'I' for Inactive)
REMARK    1  A    between atoms: C_9  and  C_10
REMARK    2  A    between atoms: C_13  and  O_14
REMARK    3  A    between atoms: O_14  and  C_15
REMARK    4  A    between atoms: C_15  and  C_16
REMARK    5  A    between atoms: C_16  and  C_17
REMARK    6  A    between atoms: C_17  and  C_18
REMARK    7  A    between atoms: C_18  and  C_19
REMARK    8  A    between atoms: C_23  and  C_24
REMARK    9  A    between atoms: N_26  and  C_27
REMARK                            x       y       z     vdW  Elec       q    Type
REMARK                         _______ _______ _______ _____ _____    ______ ____
ROOT
ATOM      1  C   UNL     1      40.312  -2.755  14.989  0.00  0.00    +0.000 C 
ATOM      2  C   UNL     1      40.453  -2.014  13.893  0.00  0.00    +0.000 C 
ATOM      3  N   UNL     1      41.428  -1.076  13.776  0.00  0.00    +0.000 NA
ATOM      4  C   UNL     1      41.218  -0.032  12.855  0.00  0.00    +0.000 A 
ATOM      5  N   UNL     1      41.970   1.021  12.481  0.00  0.00    +0.000 NA
ATOM      6  C   UNL     1      41.263   1.688  11.525  0.00  0.00    +0.000 A 
ATOM      7  N   UNL     1      40.139   1.029  11.361  0.00  0.00    +0.000 NA
ATOM      8  N   UNL     1      40.150  -0.029  12.203  0.00  0.00    +0.000 N 
ATOM      9  C   UNL     1      38.917  -0.908  12.177  0.00  0.00    +0.000 C 
ATOM     10  C   UNL     1      39.405  -2.369  12.794  0.00  0.00    +0.000 C 
ENDROOT
BRANCH   9  11
ATOM     11  C   UNL     1      38.134  -0.309  13.419  0.00  0.00    +0.000 A 
ATOM     12  C   UNL     1      37.174  -1.007  14.038  0.00  0.00    +0.000 A 
ATOM     13  C   UNL     1      36.519  -0.451  15.114  0.00  0.00    +0.000 A 
ATOM     14  C   UNL     1      36.815   0.812  15.584  0.00  0.00    +0.000 A 
ATOM     15  C   UNL     1      37.813   1.483  14.906  0.00  0.00    +0.000 A 
ATOM     16  C   UNL     1      38.468   0.927  13.832  0.00  0.00    +0.000 A 
BRANCH  14  17
ATOM     17  O   UNL     1      36.162   1.386  16.669  0.00  0.00    +0.000 OA
BRANCH  17  18
ATOM     18  C   UNL     1      35.302   0.546  17.417  0.00  0.00    +0.000 C 
BRANCH  18  19
ATOM     19  C   UNL     1      36.065   0.300  18.727  0.00  0.00    +0.000 C 
BRANCH  19  20
ATOM     20  C   UNL     1      36.172  -1.161  19.027  0.00  0.00    +0.000 C 
BRANCH  20  21
ATOM     21  C   UNL     1      37.633  -1.490  19.182  0.00  0.00    +0.000 C 
BRANCH  21  22
ATOM     22  C   UNL     1      38.187  -1.979  17.880  0.00  0.00    +0.000 C 
ATOM     23  C   UNL     1      37.498  -3.272  17.468  0.00  0.00    +0.000 C 
ENDBRANCH  21  22
ENDBRANCH  20  21
ENDBRANCH  19  20
ENDBRANCH  18  19
ENDBRANCH  17  18
ENDBRANCH  14  17
ENDBRANCH   9  11
BRANCH  10  24
ATOM     24  C   UNL     1      40.398  -2.866  11.690  0.00  0.00    +0.000 C 
ATOM     25  O   UNL     1      39.998  -2.572  10.546  0.00  0.00    +0.000 OA
ATOM     26  N   UNL     1      41.561  -3.535  11.857  0.00  0.00    +0.000 NA
BRANCH  26  27
ATOM     27  C   UNL     1      42.328  -3.902  10.721  0.00  0.00    +0.000 A 
ATOM     28  C   UNL     1      42.096  -5.052   9.992  0.00  0.00    +0.000 A 
ATOM     29  C   UNL     1      42.858  -5.392   8.884  0.00  0.00    +0.000 A 
ATOM     30  C   UNL     1      43.889  -4.579   8.467  0.00  0.00    +0.000 A 
ATOM     31  C   UNL     1      44.131  -3.431   9.184  0.00  0.00    +0.000 A 
ATOM     32  C   UNL     1      43.363  -3.110  10.281  0.00  0.00    +0.000 A 
ENDBRANCH  26  27
ENDBRANCH  10  24
TORSDOF 9
ENDMDL
MODEL 5
REMARK VINA RESULT:      -6.6      5.003      7.361
REMARK  Name = 
REMARK  9 active torsions:
REMARK  status: ('A' for Active; 'I' for Inactive)
REMARK    1  A    between atoms: C_9  and  C_10
REMARK    2  A    between atoms: C_13  and  O_14
REMARK    3  A    between atoms: O_14  and  C_15
REMARK    4  A    between atoms: C_15  and  C_16
REMARK    5  A    between atoms: C_16  and  C_17
REMARK    6  A    between atoms: C_17  and  C_18
REMARK    7  A    between atoms: C_18  and  C_19
REMARK    8  A    between atoms: C_23  and  C_24
REMARK    9  A    between atoms: N_26  and  C_27
REMARK                            x       y       z     vdW  Elec       q    Type
REMARK                         _______ _______ _______ _____ _____    ______ ____
ROOT
ATOM      1  C   UNL     1      37.708   1.994  14.820  0.00  0.00    +0.000 C 
ATOM      2  C   UNL     1      38.291   0.802  14.722  0.00  0.00    +0.000 C 
ATOM      3  N   UNL     1      39.624   0.631  14.923  0.00  0.00    +0.000 NA
ATOM      4  C   UNL     1      40.230  -0.495  14.335  0.00  0.00    +0.000 A 
ATOM      5  N   UNL     1      41.491  -0.968  14.353  0.00  0.00    +0.000 NA
ATOM      6  C   UNL     1      41.490  -2.119  13.623  0.00  0.00    +0.000 A 
ATOM      7  N   UNL     1      40.258  -2.295  13.202  0.00  0.00    +0.000 NA
ATOM      8  N   UNL     1      39.510  -1.268  13.665  0.00  0.00    +0.000 N 
ATOM      9  C   UNL     1      38.049  -1.282  13.263  0.00  0.00    +0.000 C 
ATOM     10  C   UNL     1      37.277  -0.333  14.384  0.00  0.00    +0.000 C 
ENDROOT
BRANCH   9  11
ATOM     11  C   UNL     1      38.102  -0.293  12.026  0.00  0.00    +0.000 A 
ATOM     12  C   UNL     1      37.049   0.466  11.696  0.00  0.00    +0.000 A 
ATOM     13  C   UNL     1      37.136   1.312  10.614  0.00  0.00    +0.000 A 
ATOM     14  C   UNL     1      38.278   1.411   9.846  0.00  0.00    +0.000 A 
ATOM     15  C   UNL     1      39.330   0.606  10.234  0.00  0.00    +0.000 A 
ATOM     16  C   UNL     1      39.243  -0.240  11.315  0.00  0.00    +0.000 A 
BRANCH  14  17
ATOM     17  O   UNL     1      38.381   2.261   8.751  0.00  0.00    +0.000 OA
BRANCH  17  18
ATOM     18  C   UNL     1      37.207   2.955   8.366  0.00  0.00    +0.000 C 
BRANCH  18  19
ATOM     19  C   UNL     1      36.795   2.289   7.045  0.00  0.00    +0.000 C 
BRANCH  19  20
ATOM     20  C   UNL     1      35.756   3.094   6.332  0.00  0.00    +0.000 C 
BRANCH  20  21
ATOM     21  C   UNL     1      35.496   2.436   5.004  0.00  0.00    +0.000 C 
BRANCH  21  22
ATOM     22  C   UNL     1      34.821   3.399   4.080  0.00  0.00    +0.000 C 
ATOM     23  C   UNL     1      34.525   4.704   4.805  0.00  0.00    +0.000 C 
ENDBRANCH  21  22
ENDBRANCH  20  21
ENDBRANCH  19  20
ENDBRANCH  18  19
ENDBRANCH  17  18
ENDBRANCH  14  17
ENDBRANCH   9  11
BRANCH  10  24
ATOM     24  C   UNL     1      37.445  -1.180  15.690  0.00  0.00    +0.000 C 
ATOM     25  O   UNL     1      37.006  -2.339  15.547  0.00  0.00    +0.000 OA
ATOM     26  N   UNL     1      37.984  -0.795  16.869  0.00  0.00    +0.000 NA
BRANCH  26  27
ATOM     27  C   UNL     1      38.047  -1.717  17.946  0.00  0.00    +0.000 A 
ATOM     28  C   UNL     1      37.454  -1.490  19.172  0.00  0.00    +0.000 A 
ATOM     29  C   UNL     1      37.529  -2.406  20.211  0.00  0.00    +0.000 A 
ATOM     30  C   UNL     1      38.210  -3.592  20.050  0.00  0.00    +0.000 A 
ATOM     31  C   UNL     1      38.806  -3.832  18.835  0.00  0.00    +0.000 A 
ATOM     32  C   UNL     1      38.720  -2.910  17.815  0.00  0.00    +0.000 A 
ENDBRANCH  26  27
ENDBRANCH  10  24
TORSDOF 9
ENDMDL
MODEL 6
REMARK VINA RESULT:      -6.5      4.018      7.657
REMARK  Name = 
REMARK  9 active torsions:
REMARK  status: ('A' for Active; 'I' for Inactive)
REMARK    1  A    between atoms: C_9  and  C_10
REMARK    2  A    between atoms: C_13  and  O_14
REMARK    3  A    between atoms: O_14  and  C_15
REMARK    4  A    between atoms: C_15  and  C_16
REMARK    5  A    between atoms: C_16  and  C_17
REMARK    6  A    between atoms: C_17  and  C_18
REMARK    7  A    between atoms: C_18  and  C_19
REMARK    8  A    between atoms: C_23  and  C_24
REMARK    9  A    between atoms: N_26  and  C_27
REMARK                            x       y       z     vdW  Elec       q    Type
REMARK                         _______ _______ _______ _____ _____    ______ ____
ROOT
ATOM      1  C   UNL     1      41.258   1.265  13.600  0.00  0.00    +0.000 C 
ATOM      2  C   UNL     1      40.192   0.495  13.800  0.00  0.00    +0.000 C 
ATOM      3  N   UNL     1      39.966  -0.131  14.983  0.00  0.00    +0.000 NA
ATOM      4  C   UNL     1      39.143  -1.274  14.967  0.00  0.00    +0.000 A 
ATOM      5  N   UNL     1      38.705  -2.099  15.937  0.00  0.00    +0.000 NA
ATOM      6  C   UNL     1      37.910  -3.027  15.334  0.00  0.00    +0.000 A 
ATOM      7  N   UNL     1      37.897  -2.735  14.053  0.00  0.00    +0.000 NA
ATOM      8  N   UNL     1      38.673  -1.644  13.868  0.00  0.00    +0.000 N 
ATOM      9  C   UNL     1      38.803  -1.161  12.438  0.00  0.00    +0.000 C 
ATOM     10  C   UNL     1      39.260   0.430  12.551  0.00  0.00    +0.000 C 
ENDROOT
BRANCH   9  11
ATOM     11  C   UNL     1      40.183  -1.838  12.050  0.00  0.00    +0.000 A 
ATOM     12  C   UNL     1      40.952  -1.341  11.073  0.00  0.00    +0.000 A 
ATOM     13  C   UNL     1      42.143  -1.959  10.768  0.00  0.00    +0.000 A 
ATOM     14  C   UNL     1      42.583  -3.084  11.436  0.00  0.00    +0.000 A 
ATOM     15  C   UNL     1      41.748  -3.550  12.432  0.00  0.00    +0.000 A 
ATOM     16  C   UNL     1      40.558  -2.933  12.738  0.00  0.00    +0.000 A 
BRANCH  14  17
ATOM     17  O   UNL     1      43.783  -3.718  11.139  0.00  0.00    +0.000 OA
BRANCH  17  18
ATOM     18  C   UNL     1      44.659  -3.973  12.223  0.00  0.00    +0.000 C 
BRANCH  18  19
ATOM     19  C   UNL     1      45.121  -2.577  12.667  0.00  0.00    +0.000 C 
BRANCH  19  20
ATOM     20  C   UNL     1      45.142  -2.461  14.158  0.00  0.00    +0.000 C 
BRANCH  20  21
ATOM     21  C   UNL     1      43.999  -1.572  14.565  0.00  0.00    +0.000 C 
BRANCH  21  22
ATOM     22  C   UNL     1      44.511  -0.212  14.922  0.00  0.00    +0.000 C 
ATOM     23  C   UNL     1      45.241  -0.260  16.257  0.00  0.00    +0.000 C 
ENDBRANCH  21  22
ENDBRANCH  20  21
ENDBRANCH  19  20
ENDBRANCH  18  19
ENDBRANCH  17  18
ENDBRANCH  14  17
ENDBRANCH   9  11
BRANCH  10  24
ATOM     24  C   UNL     1      37.988   1.084  13.186  0.00  0.00    +0.000 C 
ATOM     25  O   UNL     1      36.941   0.669  12.650  0.00  0.00    +0.000 OA
ATOM     26  N   UNL     1      37.930   1.989  14.190  0.00  0.00    +0.000 NA
BRANCH  26  27
ATOM     27  C   UNL     1      36.668   2.467  14.630  0.00  0.00    +0.000 A 
ATOM     28  C   UNL     1      36.077   3.611  14.132  0.00  0.00    +0.000 A 
ATOM     29  C   UNL     1      34.843   4.060  14.577  0.00  0.00    +0.000 A 
ATOM     30  C   UNL     1      34.154   3.367  15.548  0.00  0.00    +0.000 A 
ATOM     31  C   UNL     1      34.730   2.225  16.053  0.00  0.00    +0.000 A 
ATOM     32  C   UNL     1      35.957   1.796  15.597  0.00  0.00    +0.000 A 
ENDBRANCH  26  27
ENDBRANCH  10  24
TORSDOF 9
ENDMDL
MODEL 7
REMARK VINA RESULT:      -6.5      4.265      8.336
REMARK  Name = 
REMARK  9 active torsions:
REMARK  status: ('A' for Active; 'I' for Inactive)
REMARK    1  A    between atoms: C_9  and  C_10
REMARK    2  A    between atoms: C_13  and  O_14
REMARK    3  A    between atoms: O_14  and  C_15
REMARK    4  A    between atoms: C_15  and  C_16
REMARK    5  A    between atoms: C_16  and  C_17
REMARK    6  A    between atoms: C_17  and  C_18
REMARK    7  A    between atoms: C_18  and  C_19
REMARK    8  A    between atoms: C_23  and  C_24
REMARK    9  A    between atoms: N_26  and  C_27
REMARK                            x       y       z     vdW  Elec       q    Type
REMARK                         _______ _______ _______ _____ _____    ______ ____
ROOT
ATOM      1  C   UNL     1      40.054   1.104  14.390  0.00  0.00    +0.000 C 
ATOM      2  C   UNL     1      40.535   0.150  13.597  0.00  0.00    +0.000 C 
ATOM      3  N   UNL     1      40.294   0.133  12.261  0.00  0.00    +0.000 NA
ATOM      4  C   UNL     1      40.392  -1.106  11.598  0.00  0.00    +0.000 A 
ATOM      5  N   UNL     1      40.245  -1.467  10.309  0.00  0.00    +0.000 NA
ATOM      6  C   UNL     1      40.484  -2.808  10.248  0.00  0.00    +0.000 A 
ATOM      7  N   UNL     1      40.760  -3.197  11.472  0.00  0.00    +0.000 NA
ATOM      8  N   UNL     1      40.692  -2.113  12.277  0.00  0.00    +0.000 N 
ATOM      9  C   UNL     1      40.961  -2.365  13.747  0.00  0.00    +0.000 C 
ATOM     10  C   UNL     1      41.398  -0.892  14.372  0.00  0.00    +0.000 C 
ENDROOT
BRANCH   9  11
ATOM     11  C   UNL     1      39.471  -2.479  14.277  0.00  0.00    +0.000 A 
ATOM     12  C   UNL     1      38.466  -2.817  13.459  0.00  0.00    +0.000 A 
ATOM     13  C   UNL     1      37.186  -2.906  13.959  0.00  0.00    +0.000 A 
ATOM     14  C   UNL     1      36.894  -2.657  15.285  0.00  0.00    +0.000 A 
ATOM     15  C   UNL     1      37.970  -2.313  16.078  0.00  0.00    +0.000 A 
ATOM     16  C   UNL     1      39.249  -2.225  15.579  0.00  0.00    +0.000 A 
BRANCH  14  17
ATOM     17  O   UNL     1      35.608  -2.742  15.804  0.00  0.00    +0.000 OA
BRANCH  17  18
ATOM     18  C   UNL     1      35.460  -2.511  17.193  0.00  0.00    +0.000 C 
BRANCH  18  19
ATOM     19  C   UNL     1      34.514  -1.303  17.273  0.00  0.00    +0.000 C 
BRANCH  19  20
ATOM     20  C   UNL     1      35.256  -0.056  17.631  0.00  0.00    +0.000 C 
BRANCH  20  21
ATOM     21  C   UNL     1      35.138   0.896  16.472  0.00  0.00    +0.000 C 
BRANCH  21  22
ATOM     22  C   UNL     1      36.469   1.063  15.809  0.00  0.00    +0.000 C 
ATOM     23  C   UNL     1      36.347   0.806  14.314  0.00  0.00    +0.000 C 
ENDBRANCH  21  22
ENDBRANCH  20  21
ENDBRANCH  19  20
ENDBRANCH  18  19
ENDBRANCH  17  18
ENDBRANCH  14  17
ENDBRANCH   9  11
BRANCH  10  24
ATOM     24  C   UNL     1      42.764  -0.632  13.651  0.00  0.00    +0.000 C 
ATOM     25  O   UNL     1      43.077   0.575  13.680  0.00  0.00    +0.000 OA
ATOM     26  N   UNL     1      43.570  -1.533  13.046  0.00  0.00    +0.000 NA
BRANCH  26  27
ATOM     27  C   UNL     1      44.778  -1.098  12.442  0.00  0.00    +0.000 A 
ATOM     28  C   UNL     1      45.977  -1.016  13.122  0.00  0.00    +0.000 A 
ATOM     29  C   UNL     1      47.146  -0.587  12.512  0.00  0.00    +0.000 A 
ATOM     30  C   UNL     1      47.150  -0.222  11.184  0.00  0.00    +0.000 A 
ATOM     31  C   UNL     1      45.963  -0.298  10.494  0.00  0.00    +0.000 A 
ATOM     32  C   UNL     1      44.813  -0.727  11.118  0.00  0.00    +0.000 A 
ENDBRANCH  26  27
ENDBRANCH  10  24
TORSDOF 9
ENDMDL
MODEL 8
REMARK VINA RESULT:      -6.5     22.749     25.621
REMARK  Name = 
REMARK  9 active torsions:
REMARK  status: ('A' for Active; 'I' for Inactive)
REMARK    1  A    between atoms: C_9  and  C_10
REMARK    2  A    between atoms: C_13  and  O_14
REMARK    3  A    between atoms: O_14  and  C_15
REMARK    4  A    between atoms: C_15  and  C_16
REMARK    5  A    between atoms: C_16  and  C_17
REMARK    6  A    between atoms: C_17  and  C_18
REMARK    7  A    between atoms: C_18  and  C_19
REMARK    8  A    between atoms: C_23  and  C_24
REMARK    9  A    between atoms: N_26  and  C_27
REMARK                            x       y       z     vdW  Elec       q    Type
REMARK                         _______ _______ _______ _____ _____    ______ ____
ROOT
ATOM      1  C   UNL     1      13.381   0.286   4.418  0.00  0.00    +0.000 C 
ATOM      2  C   UNL     1      14.236  -0.731   4.337  0.00  0.00    +0.000 C 
ATOM      3  N   UNL     1      14.096  -1.721   3.418  0.00  0.00    +0.000 NA
ATOM      4  C   UNL     1      14.700  -2.960   3.700  0.00  0.00    +0.000 A 
ATOM      5  N   UNL     1      14.776  -4.117   3.015  0.00  0.00    +0.000 NA
ATOM      6  C   UNL     1      15.516  -4.975   3.774  0.00  0.00    +0.000 A 
ATOM      7  N   UNL     1      15.852  -4.320   4.862  0.00  0.00    +0.000 NA
ATOM      8  N   UNL     1      15.326  -3.077   4.777  0.00  0.00    +0.000 N 
ATOM      9  C   UNL     1      15.589  -2.167   5.960  0.00  0.00    +0.000 C 
ATOM     10  C   UNL     1      15.390  -0.625   5.381  0.00  0.00    +0.000 C 
ENDROOT
BRANCH   9  11
ATOM     11  C   UNL     1      14.231  -2.362   6.755  0.00  0.00    +0.000 A 
ATOM     12  C   UNL     1      13.490  -3.466   6.605  0.00  0.00    +0.000 A 
ATOM     13  C   UNL     1      12.317  -3.596   7.315  0.00  0.00    +0.000 A 
ATOM     14  C   UNL     1      11.870  -2.622   8.184  0.00  0.00    +0.000 A 
ATOM     15  C   UNL     1      12.676  -1.507   8.297  0.00  0.00    +0.000 A 
ATOM     16  C   UNL     1      13.848  -1.377   7.589  0.00  0.00    +0.000 A 
BRANCH  14  17
ATOM     17  O   UNL     1      10.689  -2.739   8.907  0.00  0.00    +0.000 OA
BRANCH  17  18
ATOM     18  C   UNL     1      10.518  -3.921   9.668  0.00  0.00    +0.000 C 
BRANCH  18  19
ATOM     19  C   UNL     1      11.151  -3.586  11.027  0.00  0.00    +0.000 C 
BRANCH  19  20
ATOM     20  C   UNL     1      12.421  -4.346  11.236  0.00  0.00    +0.000 C 
BRANCH  20  21
ATOM     21  C   UNL     1      13.512  -3.347  11.517  0.00  0.00    +0.000 C 
BRANCH  21  22
ATOM     22  C   UNL     1      14.669  -3.582  10.597  0.00  0.00    +0.000 C 
ATOM     23  C   UNL     1      14.543  -4.946   9.933  0.00  0.00    +0.000 C 
ENDBRANCH  21  22
ENDBRANCH  20  21
ENDBRANCH  19  20
ENDBRANCH  18  19
ENDBRANCH  17  18
ENDBRANCH  14  17
ENDBRANCH   9  11
BRANCH  10  24
ATOM     24  C   UNL     1      16.587  -0.503   4.380  0.00  0.00    +0.000 C 
ATOM     25  O   UNL     1      16.323   0.272   3.439  0.00  0.00    +0.000 OA
ATOM     26  N   UNL     1      17.790  -1.118   4.442  0.00  0.00    +0.000 NA
BRANCH  26  27
ATOM     27  C   UNL     1      18.754  -0.876   3.428  0.00  0.00    +0.000 A 
ATOM     28  C   UNL     1      19.417   0.327   3.287  0.00  0.00    +0.000 A 
ATOM     29  C   UNL     1      20.355   0.541   2.288  0.00  0.00    +0.000 A 
ATOM     30  C   UNL     1      20.660  -0.456   1.388  0.00  0.00    +0.000 A 
ATOM     31  C   UNL     1      20.007  -1.659   1.516  0.00  0.00    +0.000 A 
ATOM     32  C   UNL     1      19.079  -1.853   2.516  0.00  0.00    +0.000 A 
ENDBRANCH  26  27
ENDBRANCH  10  24
TORSDOF 9
ENDMDL
MODEL 9
REMARK VINA RESULT:      -6.5     22.874     24.804
REMARK  Name = 
REMARK  9 active torsions:
REMARK  status: ('A' for Active; 'I' for Inactive)
REMARK    1  A    between atoms: C_9  and  C_10
REMARK    2  A    between atoms: C_13  and  O_14
REMARK    3  A    between atoms: O_14  and  C_15
REMARK    4  A    between atoms: C_15  and  C_16
REMARK    5  A    between atoms: C_16  and  C_17
REMARK    6  A    between atoms: C_17  and  C_18
REMARK    7  A    between atoms: C_18  and  C_19
REMARK    8  A    between atoms: C_23  and  C_24
REMARK    9  A    between atoms: N_26  and  C_27
REMARK                            x       y       z     vdW  Elec       q    Type
REMARK                         _______ _______ _______ _____ _____    ______ ____
ROOT
ATOM      1  C   UNL     1      15.543   1.053   2.156  0.00  0.00    +0.000 C 
ATOM      2  C   UNL     1      16.797   0.644   1.977  0.00  0.00    +0.000 C 
ATOM      3  N   UNL     1      17.135  -0.241   1.004  0.00  0.00    +0.000 NA
ATOM      4  C   UNL     1      18.317  -0.983   1.184  0.00  0.00    +0.000 A 
ATOM      5  N   UNL     1      18.943  -1.904   0.425  0.00  0.00    +0.000 NA
ATOM      6  C   UNL     1      20.072  -2.266   1.098  0.00  0.00    +0.000 A 
ATOM      7  N   UNL     1      20.086  -1.568   2.211  0.00  0.00    +0.000 NA
ATOM      8  N   UNL     1      18.982  -0.787   2.225  0.00  0.00    +0.000 N 
ATOM      9  C   UNL     1      18.807   0.085   3.451  0.00  0.00    +0.000 C 
ATOM     10  C   UNL     1      17.790   1.308   2.979  0.00  0.00    +0.000 C 
ENDROOT
BRANCH   9  11
ATOM     11  C   UNL     1      17.810  -0.821   4.286  0.00  0.00    +0.000 A 
ATOM     12  C   UNL     1      16.928  -0.284   5.138  0.00  0.00    +0.000 A 
ATOM     13  C   UNL     1      16.080  -1.107   5.843  0.00  0.00    +0.000 A 
ATOM     14  C   UNL     1      16.101  -2.480   5.706  0.00  0.00    +0.000 A 
ATOM     15  C   UNL     1      17.031  -2.976   4.814  0.00  0.00    +0.000 A 
ATOM     16  C   UNL     1      17.878  -2.154   4.108  0.00  0.00    +0.000 A 
BRANCH  14  17
ATOM     17  O   UNL     1      15.251  -3.323   6.411  0.00  0.00    +0.000 OA
BRANCH  17  18
ATOM     18  C   UNL     1      15.839  -4.449   7.037  0.00  0.00    +0.000 C 
BRANCH  18  19
ATOM     19  C   UNL     1      15.168  -4.502   8.418  0.00  0.00    +0.000 C 
BRANCH  19  20
ATOM     20  C   UNL     1      14.241  -3.346   8.616  0.00  0.00    +0.000 C 
BRANCH  20  21
ATOM     21  C   UNL     1      13.365  -3.658   9.799  0.00  0.00    +0.000 C 
BRANCH  21  22
ATOM     22  C   UNL     1      14.064  -3.277  11.067  0.00  0.00    +0.000 C 
ATOM     23  C   UNL     1      13.403  -3.959  12.256  0.00  0.00    +0.000 C 
ENDBRANCH  21  22
ENDBRANCH  20  21
ENDBRANCH  19  20
ENDBRANCH  18  19
ENDBRANCH  17  18
ENDBRANCH  14  17
ENDBRANCH   9  11
BRANCH  10  24
ATOM     24  C   UNL     1      18.675   2.076   1.940  0.00  0.00    +0.000 C 
ATOM     25  O   UNL     1      19.826   2.277   2.376  0.00  0.00    +0.000 OA
ATOM     26  N   UNL     1      18.326   2.507   0.706  0.00  0.00    +0.000 NA
BRANCH  26  27
ATOM     27  C   UNL     1      19.279   3.191  -0.092  0.00  0.00    +0.000 A 
ATOM     28  C   UNL     1      19.160   4.523  -0.437  0.00  0.00    +0.000 A 
ATOM     29  C   UNL     1      20.104   5.172  -1.219  0.00  0.00    +0.000 A 
ATOM     30  C   UNL     1      21.210   4.497  -1.686  0.00  0.00    +0.000 A 
ATOM     31  C   UNL     1      21.342   3.170  -1.350  0.00  0.00    +0.000 A 
ATOM     32  C   UNL     1      20.394   2.544  -0.572  0.00  0.00    +0.000 A 
ENDBRANCH  26  27
ENDBRANCH  10  24
TORSDOF 9
ENDMDL
MODEL 10
REMARK VINA RESULT:      -6.5     23.102     25.217
REMARK  Name = 
REMARK  9 active torsions:
REMARK  status: ('A' for Active; 'I' for Inactive)
REMARK    1  A    between atoms: C_9  and  C_10
REMARK    2  A    between atoms: C_13  and  O_14
REMARK    3  A    between atoms: O_14  and  C_15
REMARK    4  A    between atoms: C_15  and  C_16
REMARK    5  A    between atoms: C_16  and  C_17
REMARK    6  A    between atoms: C_17  and  C_18
REMARK    7  A    between atoms: C_18  and  C_19
REMARK    8  A    between atoms: C_23  and  C_24
REMARK    9  A    between atoms: N_26  and  C_27
REMARK                            x       y       z     vdW  Elec       q    Type
REMARK                         _______ _______ _______ _____ _____    ______ ____
ROOT
ATOM      1  C   UNL     1      15.591   1.380   2.372  0.00  0.00    +0.000 C 
ATOM      2  C   UNL     1      16.757   0.841   2.025  0.00  0.00    +0.000 C 
ATOM      3  N   UNL     1      16.887   0.043   0.934  0.00  0.00    +0.000 NA
ATOM      4  C   UNL     1      17.968  -0.858   0.913  0.00  0.00    +0.000 A 
ATOM      5  N   UNL     1      18.395  -1.753   0.001  0.00  0.00    +0.000 NA
ATOM      6  C   UNL     1      19.517  -2.331   0.514  0.00  0.00    +0.000 A 
ATOM      7  N   UNL     1      19.722  -1.779   1.688  0.00  0.00    +0.000 NA
ATOM      8  N   UNL     1      18.740  -0.873   1.897  0.00  0.00    +0.000 N 
ATOM      9  C   UNL     1      18.791  -0.138   3.221  0.00  0.00    +0.000 C 
ATOM     10  C   UNL     1      17.913   1.251   2.987  0.00  0.00    +0.000 C 
ENDROOT
BRANCH   9  11
ATOM     11  C   UNL     1      17.755  -1.006   4.050  0.00  0.00    +0.000 A 
ATOM     12  C   UNL     1      17.514  -2.285   3.739  0.00  0.00    +0.000 A 
ATOM     13  C   UNL     1      16.607  -3.004   4.485  0.00  0.00    +0.000 A 
ATOM     14  C   UNL     1      15.928  -2.452   5.552  0.00  0.00    +0.000 A 
ATOM     15  C   UNL     1      16.218  -1.130   5.824  0.00  0.00    +0.000 A 
ATOM     16  C   UNL     1      17.125  -0.412   5.080  0.00  0.00    +0.000 A 
BRANCH  14  17
ATOM     17  O   UNL     1      15.010  -3.165   6.313  0.00  0.00    +0.000 OA
BRANCH  17  18
ATOM     18  C   UNL     1      14.488  -2.519   7.460  0.00  0.00    +0.000 C 
BRANCH  18  19
ATOM     19  C   UNL     1      13.011  -2.940   7.489  0.00  0.00    +0.000 C 
BRANCH  19  20
ATOM     20  C   UNL     1      12.107  -1.761   7.326  0.00  0.00    +0.000 C 
BRANCH  20  21
ATOM     21  C   UNL     1      12.938  -0.519   7.498  0.00  0.00    +0.000 C 
BRANCH  21  22
ATOM     22  C   UNL     1      12.431   0.564   6.598  0.00  0.00    +0.000 C 
ATOM     23  C   UNL     1      12.925   0.340   5.176  0.00  0.00    +0.000 C 
ENDBRANCH  21  22
ENDBRANCH  20  21
ENDBRANCH  19  20
ENDBRANCH  18  19
ENDBRANCH  17  18
ENDBRANCH  14  17
ENDBRANCH   9  11
BRANCH  10  24
ATOM     24  C   UNL     1      18.803   2.020   1.953  0.00  0.00    +0.000 C 
ATOM     25  O   UNL     1      19.972   2.156   2.363  0.00  0.00    +0.000 OA
ATOM     26  N   UNL     1      18.440   2.511   0.746  0.00  0.00    +0.000 NA
BRANCH  26  27
ATOM     27  C   UNL     1      19.400   3.185  -0.053  0.00  0.00    +0.000 A 
ATOM     28  C   UNL     1      19.277   4.508  -0.428  0.00  0.00    +0.000 A 
ATOM     29  C   UNL     1      20.227   5.147  -1.211  0.00  0.00    +0.000 A 
ATOM     30  C   UNL     1      21.345   4.470  -1.646  0.00  0.00    +0.000 A 
ATOM     31  C   UNL     1      21.481   3.151  -1.281  0.00  0.00    +0.000 A 
ATOM     32  C   UNL     1      20.526   2.535  -0.503  0.00  0.00    +0.000 A 
ENDBRANCH  26  27
ENDBRANCH  10  24
TORSDOF 9
ENDMDL
