MODEL 1
REMARK VINA RESULT:      -8.4      0.000      0.000
REMARK  Name = 
REMARK  7 active torsions:
REMARK  status: ('A' for Active; 'I' for Inactive)
REMARK    1  A    between atoms: C_5  and  N_6
REMARK    2  A    between atoms: N_6  and  C_7
REMARK    3  A    between atoms: C_8  and  S_9
REMARK    4  A    between atoms: S_9  and  C_10
REMARK    5  A    between atoms: N_19  and  C_20
REMARK    6  A    between atoms: C_20  and  C_21
REMARK    7  A    between atoms: C_21  and  C_22
REMARK                            x       y       z     vdW  Elec       q    Type
REMARK                         _______ _______ _______ _____ _____    ______ ____
ROOT
ATOM      1  C   UNL     1      36.403   4.341  14.916  0.00  0.00    +0.000 C 
ATOM      2  C   UNL     1      37.651   3.846  14.973  0.00  0.00    +0.000 C 
ATOM      3  C   UNL     1      37.579   2.407  15.132  0.00  0.00    +0.000 C 
ATOM      4  O   UNL     1      38.557   1.630  15.219  0.00  0.00    +0.000 OA
ATOM      5  N   UNL     1      36.195   2.062  15.169  0.00  0.00    +0.000 N 
ATOM      6  C   UNL     1      35.458   3.256  15.036  0.00  0.00    +0.000 C 
ATOM      7  O   UNL     1      34.189   3.367  15.023  0.00  0.00    +0.000 OA
ENDROOT
BRANCH   1   8
ATOM      8  N   UNL     1      36.022   5.695  14.766  0.00  0.00    +0.000 NA
BRANCH   8  13
ATOM      9  C   UNL     1      34.063   7.255   9.677  0.00  0.00    +0.000 C 
ATOM     10  C   UNL     1      34.520   6.872  11.050  0.00  0.00    +0.000 A 
ATOM     11  C   UNL     1      33.793   7.163  12.174  0.00  0.00    +0.000 A 
ATOM     12  C   UNL     1      34.283   6.776  13.404  0.00  0.00    +0.000 A 
ATOM     13  C   UNL     1      35.481   6.110  13.520  0.00  0.00    +0.000 A 
ATOM     14  C   UNL     1      36.202   5.825  12.389  0.00  0.00    +0.000 A 
ATOM     15  C   UNL     1      35.721   6.206  11.155  0.00  0.00    +0.000 A 
ENDBRANCH   8  13
ENDBRANCH   1   8
BRANCH   2  16
ATOM     16  S   UNL     1      39.036   4.952  14.850  0.00  0.00    +0.000 S 
BRANCH  16  17
ATOM     17  C   UNL     1      39.692   5.473  16.394  0.00  0.00    +0.000 A 
ATOM     18  C   UNL     1      40.840   6.174  16.613  0.00  0.00    +0.000 A 
ATOM     19  C   UNL     1      41.286   6.545  17.859  0.00  0.00    +0.000 A 
ATOM     20  C   UNL     1      40.579   6.222  19.005  0.00  0.00    +0.000 A 
ATOM     21  C   UNL     1      41.066   6.626  20.347  0.00  0.00    +0.000 C 
ATOM     22  C   UNL     1      39.416   5.514  18.802  0.00  0.00    +0.000 A 
ATOM     23  C   UNL     1      38.973   5.145  17.561  0.00  0.00    +0.000 A 
ENDBRANCH  16  17
ENDBRANCH   2  16
BRANCH   5  24
ATOM     24  C   UNL     1      35.708   0.709  15.319  0.00  0.00    +0.000 C 
BRANCH  24  25
ATOM     25  C   UNL     1      35.371   0.460  16.769  0.00  0.00    +0.000 C 
BRANCH  25  26
ATOM     26  C   UNL     1      36.342  -0.443  17.439  0.00  0.00    +0.000 A 
ATOM     27  C   UNL     1      37.285  -1.164  16.723  0.00  0.00    +0.000 A 
ATOM     28  C   UNL     1      38.184  -2.001  17.348  0.00  0.00    +0.000 A 
ATOM     29  C   UNL     1      38.183  -2.155  18.718  0.00  0.00    +0.000 A 
ATOM     30  C   UNL     1      37.249  -1.442  19.439  0.00  0.00    +0.000 A 
ATOM     31  C   UNL     1      36.353  -0.607  18.809  0.00  0.00    +0.000 A 
ENDBRANCH  25  26
ENDBRANCH  24  25
ENDBRANCH   5  24
TORSDOF 7
ENDMDL
MODEL 2
REMARK VINA RESULT:      -8.3      3.263      7.914
REMARK  Name = 
REMARK  7 active torsions:
REMARK  status: ('A' for Active; 'I' for Inactive)
REMARK    1  A    between atoms: C_5  and  N_6
REMARK    2  A    between atoms: N_6  and  C_7
REMARK    3  A    between atoms: C_8  and  S_9
REMARK    4  A    between atoms: S_9  and  C_10
REMARK    5  A    between atoms: N_19  and  C_20
REMARK    6  A    between atoms: C_20  and  C_21
REMARK    7  A    between atoms: C_21  and  C_22
REMARK                            x       y       z     vdW  Elec       q    Type
REMARK                         _______ _______ _______ _____ _____    ______ ____
ROOT
ATOM      1  C   UNL     1      37.943   2.331  14.108  0.00  0.00    +0.000 C 
ATOM      2  C   UNL     1      36.920   2.055  14.935  0.00  0.00    +0.000 C 
ATOM      3  C   UNL     1      36.828   3.101  15.934  0.00  0.00    +0.000 C 
ATOM      4  O   UNL     1      35.986   3.159  16.859  0.00  0.00    +0.000 OA
ATOM      5  N   UNL     1      37.869   4.035  15.654  0.00  0.00    +0.000 N 
ATOM      6  C   UNL     1      38.567   3.565  14.523  0.00  0.00    +0.000 C 
ATOM      7  O   UNL     1      39.566   4.121  13.962  0.00  0.00    +0.000 OA
ENDROOT
BRANCH   1   8
ATOM      8  N   UNL     1      38.379   1.570  12.998  0.00  0.00    +0.000 NA
BRANCH   8  13
ATOM      9  C   UNL     1      41.385  -3.177  13.772  0.00  0.00    +0.000 C 
ATOM     10  C   UNL     1      40.626  -1.895  13.626  0.00  0.00    +0.000 A 
ATOM     11  C   UNL     1      40.798  -0.838  14.479  0.00  0.00    +0.000 A 
ATOM     12  C   UNL     1      40.059   0.311  14.277  0.00  0.00    +0.000 A 
ATOM     13  C   UNL     1      39.159   0.408  13.241  0.00  0.00    +0.000 A 
ATOM     14  C   UNL     1      38.994  -0.655  12.392  0.00  0.00    +0.000 A 
ATOM     15  C   UNL     1      39.727  -1.806  12.586  0.00  0.00    +0.000 A 
ENDBRANCH   8  13
ENDBRANCH   1   8
BRANCH   2  16
ATOM     16  S   UNL     1      35.955   0.586  14.672  0.00  0.00    +0.000 S 
BRANCH  16  17
ATOM     17  C   UNL     1      36.702  -0.892  15.259  0.00  0.00    +0.000 A 
ATOM     18  C   UNL     1      36.651  -2.128  14.689  0.00  0.00    +0.000 A 
ATOM     19  C   UNL     1      37.266  -3.240  15.214  0.00  0.00    +0.000 A 
ATOM     20  C   UNL     1      37.998  -3.174  16.388  0.00  0.00    +0.000 A 
ATOM     21  C   UNL     1      38.660  -4.378  16.948  0.00  0.00    +0.000 C 
ATOM     22  C   UNL     1      38.060  -1.931  16.976  0.00  0.00    +0.000 A 
ATOM     23  C   UNL     1      37.447  -0.825  16.453  0.00  0.00    +0.000 A 
ENDBRANCH  16  17
ENDBRANCH   2  16
BRANCH   5  24
ATOM     24  C   UNL     1      38.109   5.229  16.434  0.00  0.00    +0.000 C 
BRANCH  24  25
ATOM     25  C   UNL     1      38.879   4.863  17.679  0.00  0.00    +0.000 C 
BRANCH  25  26
ATOM     26  C   UNL     1      39.068   6.014  18.599  0.00  0.00    +0.000 A 
ATOM     27  C   UNL     1      40.126   6.071  19.493  0.00  0.00    +0.000 A 
ATOM     28  C   UNL     1      40.298   7.141  20.345  0.00  0.00    +0.000 A 
ATOM     29  C   UNL     1      39.421   8.205  20.342  0.00  0.00    +0.000 A 
ATOM     30  C   UNL     1      38.365   8.158  19.456  0.00  0.00    +0.000 A 
ATOM     31  C   UNL     1      38.199   7.086  18.607  0.00  0.00    +0.000 A 
ENDBRANCH  25  26
ENDBRANCH  24  25
ENDBRANCH   5  24
TORSDOF 7
ENDMDL
MODEL 3
REMARK VINA RESULT:      -8.2      3.096      7.821
REMARK  Name = 
REMARK  7 active torsions:
REMARK  status: ('A' for Active; 'I' for Inactive)
REMARK    1  A    between atoms: C_5  and  N_6
REMARK    2  A    between atoms: N_6  and  C_7
REMARK    3  A    between atoms: C_8  and  S_9
REMARK    4  A    between atoms: S_9  and  C_10
REMARK    5  A    between atoms: N_19  and  C_20
REMARK    6  A    between atoms: C_20  and  C_21
REMARK    7  A    between atoms: C_21  and  C_22
REMARK                            x       y       z     vdW  Elec       q    Type
REMARK                         _______ _______ _______ _____ _____    ______ ____
ROOT
ATOM      1  C   UNL     1      37.240   1.457  15.455  0.00  0.00    +0.000 C 
ATOM      2  C   UNL     1      38.251   1.643  14.590  0.00  0.00    +0.000 C 
ATOM      3  C   UNL     1      38.695   3.021  14.676  0.00  0.00    +0.000 C 
ATOM      4  O   UNL     1      39.621   3.534  14.008  0.00  0.00    +0.000 OA
ATOM      5  N   UNL     1      37.881   3.659  15.657  0.00  0.00    +0.000 N 
ATOM      6  C   UNL     1      36.974   2.697  16.146  0.00  0.00    +0.000 C 
ATOM      7  O   UNL     1      36.080   2.879  17.035  0.00  0.00    +0.000 OA
ENDROOT
BRANCH   1   8
ATOM      8  N   UNL     1      36.519   0.263  15.690  0.00  0.00    +0.000 NA
BRANCH   8  13
ATOM      9  C   UNL     1      37.723  -2.759  20.336  0.00  0.00    +0.000 C 
ATOM     10  C   UNL     1      37.457  -1.998  19.074  0.00  0.00    +0.000 A 
ATOM     11  C   UNL     1      38.173  -2.208  17.926  0.00  0.00    +0.000 A 
ATOM     12  C   UNL     1      37.867  -1.465  16.803  0.00  0.00    +0.000 A 
ATOM     13  C   UNL     1      36.864  -0.523  16.821  0.00  0.00    +0.000 A 
ATOM     14  C   UNL     1      36.155  -0.320  17.976  0.00  0.00    +0.000 A 
ATOM     15  C   UNL     1      36.452  -1.057  19.102  0.00  0.00    +0.000 A 
ENDBRANCH   8  13
ENDBRANCH   1   8
BRANCH   2  16
ATOM     16  S   UNL     1      38.807   0.284  13.590  0.00  0.00    +0.000 S 
BRANCH  16  17
ATOM     17  C   UNL     1      40.458  -0.225  13.904  0.00  0.00    +0.000 A 
ATOM     18  C   UNL     1      41.596   0.507  13.744  0.00  0.00    +0.000 A 
ATOM     19  C   UNL     1      42.858   0.032  14.014  0.00  0.00    +0.000 A 
ATOM     20  C   UNL     1      43.060  -1.256  14.481  0.00  0.00    +0.000 A 
ATOM     21  C   UNL     1      44.424  -1.761  14.771  0.00  0.00    +0.000 C 
ATOM     22  C   UNL     1      41.920  -2.009  14.650  0.00  0.00    +0.000 A 
ATOM     23  C   UNL     1      40.665  -1.536  14.380  0.00  0.00    +0.000 A 
ENDBRANCH  16  17
ENDBRANCH   2  16
BRANCH   5  24
ATOM     24  C   UNL     1      38.016   5.049  16.033  0.00  0.00    +0.000 C 
BRANCH  24  25
ATOM     25  C   UNL     1      38.251   5.141  17.521  0.00  0.00    +0.000 C 
BRANCH  25  26
ATOM     26  C   UNL     1      39.598   5.668  17.859  0.00  0.00    +0.000 A 
ATOM     27  C   UNL     1      40.551   5.920  16.885  0.00  0.00    +0.000 A 
ATOM     28  C   UNL     1      41.800   6.410  17.203  0.00  0.00    +0.000 A 
ATOM     29  C   UNL     1      42.153   6.672  18.510  0.00  0.00    +0.000 A 
ATOM     30  C   UNL     1      41.211   6.426  19.486  0.00  0.00    +0.000 A 
ATOM     31  C   UNL     1      39.965   5.936  19.162  0.00  0.00    +0.000 A 
ENDBRANCH  25  26
ENDBRANCH  24  25
ENDBRANCH   5  24
TORSDOF 7
ENDMDL
MODEL 4
REMARK VINA RESULT:      -8.2      2.096      5.053
REMARK  Name = 
REMARK  7 active torsions:
REMARK  status: ('A' for Active; 'I' for Inactive)
REMARK    1  A    between atoms: C_5  and  N_6
REMARK    2  A    between atoms: N_6  and  C_7
REMARK    3  A    between atoms: C_8  and  S_9
REMARK    4  A    between atoms: S_9  and  C_10
REMARK    5  A    between atoms: N_19  and  C_20
REMARK    6  A    between atoms: C_20  and  C_21
REMARK    7  A    between atoms: C_21  and  C_22
REMARK                            x       y       z     vdW  Elec       q    Type
REMARK                         _______ _______ _______ _____ _____    ______ ____
ROOT
ATOM      1  C   UNL     1      38.039   4.746  15.000  0.00  0.00    +0.000 C 
ATOM      2  C   UNL     1      37.040   5.558  14.615  0.00  0.00    +0.000 C 
ATOM      3  C   UNL     1      35.818   4.785  14.518  0.00  0.00    +0.000 C 
ATOM      4  O   UNL     1      34.695   5.228  14.185  0.00  0.00    +0.000 OA
ATOM      5  N   UNL     1      36.146   3.443  14.873  0.00  0.00    +0.000 N 
ATOM      6  C   UNL     1      37.522   3.409  15.174  0.00  0.00    +0.000 C 
ATOM      7  O   UNL     1      38.196   2.390  15.534  0.00  0.00    +0.000 OA
ENDROOT
BRANCH   1   8
ATOM      8  N   UNL     1      39.394   5.093  15.215  0.00  0.00    +0.000 NA
BRANCH   8  13
ATOM      9  C   UNL     1      41.200   6.698  20.346  0.00  0.00    +0.000 C 
ATOM     10  C   UNL     1      40.663   6.248  19.024  0.00  0.00    +0.000 A 
ATOM     11  C   UNL     1      39.461   5.604  18.900  0.00  0.00    +0.000 A 
ATOM     12  C   UNL     1      39.036   5.220  17.644  0.00  0.00    +0.000 A 
ATOM     13  C   UNL     1      39.794   5.471  16.524  0.00  0.00    +0.000 A 
ATOM     14  C   UNL     1      40.997   6.116  16.659  0.00  0.00    +0.000 A 
ATOM     15  C   UNL     1      41.430   6.503  17.908  0.00  0.00    +0.000 A 
ENDBRANCH   8  13
ENDBRANCH   1   8
BRANCH   2  16
ATOM     16  S   UNL     1      37.375   7.278  14.322  0.00  0.00    +0.000 S 
BRANCH  16  17
ATOM     17  C   UNL     1      37.974   8.153  15.722  0.00  0.00    +0.000 A 
ATOM     18  C   UNL     1      37.407   8.225  16.959  0.00  0.00    +0.000 A 
ATOM     19  C   UNL     1      37.941   8.935  18.008  0.00  0.00    +0.000 A 
ATOM     20  C   UNL     1      39.123   9.643  17.872  0.00  0.00    +0.000 A 
ATOM     21  C   UNL     1      39.695  10.407  19.009  0.00  0.00    +0.000 C 
ATOM     22  C   UNL     1      39.710   9.580  16.628  0.00  0.00    +0.000 A 
ATOM     23  C   UNL     1      39.177   8.874  15.585  0.00  0.00    +0.000 A 
ENDBRANCH  16  17
ENDBRANCH   2  16
BRANCH   5  24
ATOM     24  C   UNL     1      35.186   2.361  14.899  0.00  0.00    +0.000 C 
BRANCH  24  25
ATOM     25  C   UNL     1      34.793   2.079  16.328  0.00  0.00    +0.000 C 
BRANCH  25  26
ATOM     26  C   UNL     1      35.299   0.771  16.818  0.00  0.00    +0.000 A 
ATOM     27  C   UNL     1      35.494   0.520  18.167  0.00  0.00    +0.000 A 
ATOM     28  C   UNL     1      35.962  -0.696  18.617  0.00  0.00    +0.000 A 
ATOM     29  C   UNL     1      36.257  -1.718  17.739  0.00  0.00    +0.000 A 
ATOM     30  C   UNL     1      36.066  -1.478  16.395  0.00  0.00    +0.000 A 
ATOM     31  C   UNL     1      35.597  -0.261  15.951  0.00  0.00    +0.000 A 
ENDBRANCH  25  26
ENDBRANCH  24  25
ENDBRANCH   5  24
TORSDOF 7
ENDMDL
MODEL 5
REMARK VINA RESULT:      -8.2      0.908      6.181
REMARK  Name = 
REMARK  7 active torsions:
REMARK  status: ('A' for Active; 'I' for Inactive)
REMARK    1  A    between atoms: C_5  and  N_6
REMARK    2  A    between atoms: N_6  and  C_7
REMARK    3  A    between atoms: C_8  and  S_9
REMARK    4  A    between atoms: S_9  and  C_10
REMARK    5  A    between atoms: N_19  and  C_20
REMARK    6  A    between atoms: C_20  and  C_21
REMARK    7  A    between atoms: C_21  and  C_22
REMARK                            x       y       z     vdW  Elec       q    Type
REMARK                         _______ _______ _______ _____ _____    ______ ____
ROOT
ATOM      1  C   UNL     1      37.661   3.951  14.957  0.00  0.00    +0.000 C 
ATOM      2  C   UNL     1      36.386   4.328  14.767  0.00  0.00    +0.000 C 
ATOM      3  C   UNL     1      35.532   3.159  14.850  0.00  0.00    +0.000 C 
ATOM      4  O   UNL     1      34.287   3.150  14.720  0.00  0.00    +0.000 OA
ATOM      5  N   UNL     1      36.382   2.042  15.104  0.00  0.00    +0.000 N 
ATOM      6  C   UNL     1      37.705   2.523  15.171  0.00  0.00    +0.000 C 
ATOM      7  O   UNL     1      38.755   1.833  15.384  0.00  0.00    +0.000 OA
ENDROOT
BRANCH   1   8
ATOM      8  N   UNL     1      38.810   4.776  14.955  0.00  0.00    +0.000 NA
BRANCH   8  13
ATOM      9  C   UNL     1      40.682   6.421  20.050  0.00  0.00    +0.000 C 
ATOM     10  C   UNL     1      40.246   6.020  18.676  0.00  0.00    +0.000 A 
ATOM     11  C   UNL     1      40.949   6.364  17.552  0.00  0.00    +0.000 A 
ATOM     12  C   UNL     1      40.480   5.955  16.320  0.00  0.00    +0.000 A 
ATOM     13  C   UNL     1      39.327   5.215  16.203  0.00  0.00    +0.000 A 
ATOM     14  C   UNL     1      38.630   4.876  17.333  0.00  0.00    +0.000 A 
ATOM     15  C   UNL     1      39.090   5.279  18.569  0.00  0.00    +0.000 A 
ENDBRANCH   8  13
ENDBRANCH   1   8
BRANCH   2  16
ATOM     16  S   UNL     1      36.015   6.041  14.476  0.00  0.00    +0.000 S 
BRANCH  16  17
ATOM     17  C   UNL     1      35.403   6.392  12.867  0.00  0.00    +0.000 A 
ATOM     18  C   UNL     1      34.308   7.133  12.540  0.00  0.00    +0.000 A 
ATOM     19  C   UNL     1      33.894   7.362  11.250  0.00  0.00    +0.000 A 
ATOM     20  C   UNL     1      34.583   6.841  10.167  0.00  0.00    +0.000 A 
ATOM     21  C   UNL     1      34.131   7.093   8.777  0.00  0.00    +0.000 C 
ATOM     22  C   UNL     1      35.694   6.090  10.480  0.00  0.00    +0.000 A 
ATOM     23  C   UNL     1      36.104   5.862  11.765  0.00  0.00    +0.000 A 
ENDBRANCH  16  17
ENDBRANCH   2  16
BRANCH   5  24
ATOM     24  C   UNL     1      35.904   0.685  15.254  0.00  0.00    +0.000 C 
BRANCH  24  25
ATOM     25  C   UNL     1      35.560   0.437  16.702  0.00  0.00    +0.000 C 
BRANCH  25  26
ATOM     26  C   UNL     1      36.494  -0.511  17.362  0.00  0.00    +0.000 A 
ATOM     27  C   UNL     1      37.424  -1.243  16.640  0.00  0.00    +0.000 A 
ATOM     28  C   UNL     1      38.290  -2.121  17.256  0.00  0.00    +0.000 A 
ATOM     29  C   UNL     1      38.266  -2.308  18.622  0.00  0.00    +0.000 A 
ATOM     30  C   UNL     1      37.345  -1.584  19.349  0.00  0.00    +0.000 A 
ATOM     31  C   UNL     1      36.483  -0.707  18.728  0.00  0.00    +0.000 A 
ENDBRANCH  25  26
ENDBRANCH  24  25
ENDBRANCH   5  24
TORSDOF 7
ENDMDL
MODEL 6
REMARK VINA RESULT:      -8.1      3.068      7.859
REMARK  Name = 
REMARK  7 active torsions:
REMARK  status: ('A' for Active; 'I' for Inactive)
REMARK    1  A    between atoms: C_5  and  N_6
REMARK    2  A    between atoms: N_6  and  C_7
REMARK    3  A    between atoms: C_8  and  S_9
REMARK    4  A    between atoms: S_9  and  C_10
REMARK    5  A    between atoms: N_19  and  C_20
REMARK    6  A    between atoms: C_20  and  C_21
REMARK    7  A    between atoms: C_21  and  C_22
REMARK                            x       y       z     vdW  Elec       q    Type
REMARK                         _______ _______ _______ _____ _____    ______ ____
ROOT
ATOM      1  C   UNL     1      36.818   1.960  14.836  0.00  0.00    +0.000 C 
ATOM      2  C   UNL     1      37.664   2.463  13.921  0.00  0.00    +0.000 C 
ATOM      3  C   UNL     1      38.148   3.749  14.384  0.00  0.00    +0.000 C 
ATOM      4  O   UNL     1      38.952   4.491  13.777  0.00  0.00    +0.000 OA
ATOM      5  N   UNL     1      37.534   3.992  15.649  0.00  0.00    +0.000 N 
ATOM      6  C   UNL     1      36.707   2.888  15.937  0.00  0.00    +0.000 C 
ATOM      7  O   UNL     1      35.989   2.727  16.977  0.00  0.00    +0.000 OA
ENDROOT
BRANCH   1   8
ATOM      8  N   UNL     1      36.123   0.729  14.778  0.00  0.00    +0.000 NA
BRANCH   8  13
ATOM      9  C   UNL     1      38.638  -4.075  16.438  0.00  0.00    +0.000 C 
ATOM     10  C   UNL     1      38.013  -2.772  16.051  0.00  0.00    +0.000 A 
ATOM     11  C   UNL     1      38.320  -1.594  16.679  0.00  0.00    +0.000 A 
ATOM     12  C   UNL     1      37.699  -0.434  16.263  0.00  0.00    +0.000 A 
ATOM     13  C   UNL     1      36.784  -0.441  15.236  0.00  0.00    +0.000 A 
ATOM     14  C   UNL     1      36.482  -1.625  14.614  0.00  0.00    +0.000 A 
ATOM     15  C   UNL     1      37.097  -2.789  15.021  0.00  0.00    +0.000 A 
ENDBRANCH   8  13
ENDBRANCH   1   8
BRANCH   2  16
ATOM     16  S   UNL     1      38.003   1.538  12.442  0.00  0.00    +0.000 S 
BRANCH  16  17
ATOM     17  C   UNL     1      39.011   0.120  12.684  0.00  0.00    +0.000 A 
ATOM     18  C   UNL     1      38.945  -1.067  12.018  0.00  0.00    +0.000 A 
ATOM     19  C   UNL     1      39.775  -2.134  12.268  0.00  0.00    +0.000 A 
ATOM     20  C   UNL     1      40.761  -2.069  13.240  0.00  0.00    +0.000 A 
ATOM     21  C   UNL     1      41.654  -3.225  13.504  0.00  0.00    +0.000 C 
ATOM     22  C   UNL     1      40.841  -0.877  13.922  0.00  0.00    +0.000 A 
ATOM     23  C   UNL     1      40.014   0.184  13.672  0.00  0.00    +0.000 A 
ENDBRANCH  16  17
ENDBRANCH   2  16
BRANCH   5  24
ATOM     24  C   UNL     1      37.765   5.181  16.439  0.00  0.00    +0.000 C 
BRANCH  24  25
ATOM     25  C   UNL     1      38.900   4.925  17.400  0.00  0.00    +0.000 C 
BRANCH  25  26
ATOM     26  C   UNL     1      39.048   5.999  18.416  0.00  0.00    +0.000 A 
ATOM     27  C   UNL     1      38.174   7.074  18.476  0.00  0.00    +0.000 A 
ATOM     28  C   UNL     1      38.313   8.069  19.420  0.00  0.00    +0.000 A 
ATOM     29  C   UNL     1      39.333   8.035  20.349  0.00  0.00    +0.000 A 
ATOM     30  C   UNL     1      40.206   6.969  20.298  0.00  0.00    +0.000 A 
ATOM     31  C   UNL     1      40.062   5.978  19.352  0.00  0.00    +0.000 A 
ENDBRANCH  25  26
ENDBRANCH  24  25
ENDBRANCH   5  24
TORSDOF 7
ENDMDL
MODEL 7
REMARK VINA RESULT:      -8.0      3.094      8.225
REMARK  Name = 
REMARK  7 active torsions:
REMARK  status: ('A' for Active; 'I' for Inactive)
REMARK    1  A    between atoms: C_5  and  N_6
REMARK    2  A    between atoms: N_6  and  C_7
REMARK    3  A    between atoms: C_8  and  S_9
REMARK    4  A    between atoms: S_9  and  C_10
REMARK    5  A    between atoms: N_19  and  C_20
REMARK    6  A    between atoms: C_20  and  C_21
REMARK    7  A    between atoms: C_21  and  C_22
REMARK                            x       y       z     vdW  Elec       q    Type
REMARK                         _______ _______ _______ _____ _____    ______ ____
ROOT
ATOM      1  C   UNL     1      36.825   1.948  15.448  0.00  0.00    +0.000 C 
ATOM      2  C   UNL     1      37.297   2.007  14.191  0.00  0.00    +0.000 C 
ATOM      3  C   UNL     1      38.216   3.123  14.086  0.00  0.00    +0.000 C 
ATOM      4  O   UNL     1      38.838   3.466  13.055  0.00  0.00    +0.000 OA
ATOM      5  N   UNL     1      38.269   3.739  15.372  0.00  0.00    +0.000 N 
ATOM      6  C   UNL     1      37.408   3.017  16.223  0.00  0.00    +0.000 C 
ATOM      7  O   UNL     1      37.181   3.256  17.453  0.00  0.00    +0.000 OA
ENDROOT
BRANCH   1   8
ATOM      8  N   UNL     1      35.905   1.012  15.976  0.00  0.00    +0.000 NA
BRANCH   8  13
ATOM      9  C   UNL     1      37.596  -2.560  20.044  0.00  0.00    +0.000 C 
ATOM     10  C   UNL     1      37.194  -1.652  18.924  0.00  0.00    +0.000 A 
ATOM     11  C   UNL     1      37.724  -1.759  17.665  0.00  0.00    +0.000 A 
ATOM     12  C   UNL     1      37.301  -0.882  16.686  0.00  0.00    +0.000 A 
ATOM     13  C   UNL     1      36.366   0.091  16.953  0.00  0.00    +0.000 A 
ATOM     14  C   UNL     1      35.843   0.190  18.216  0.00  0.00    +0.000 A 
ATOM     15  C   UNL     1      36.257  -0.681  19.201  0.00  0.00    +0.000 A 
ENDBRANCH   8  13
ENDBRANCH   1   8
BRANCH   2  16
ATOM     16  S   UNL     1      36.755   0.809  12.996  0.00  0.00    +0.000 S 
BRANCH  16  17
ATOM     17  C   UNL     1      37.958  -0.401  12.579  0.00  0.00    +0.000 A 
ATOM     18  C   UNL     1      38.104  -1.645  13.116  0.00  0.00    +0.000 A 
ATOM     19  C   UNL     1      39.076  -2.537  12.732  0.00  0.00    +0.000 A 
ATOM     20  C   UNL     1      39.997  -2.222  11.746  0.00  0.00    +0.000 A 
ATOM     21  C   UNL     1      41.044  -3.190  11.336  0.00  0.00    +0.000 C 
ATOM     22  C   UNL     1      39.863  -0.969  11.192  0.00  0.00    +0.000 A 
ATOM     23  C   UNL     1      38.895  -0.081  11.576  0.00  0.00    +0.000 A 
ENDBRANCH  16  17
ENDBRANCH   2  16
BRANCH   5  24
ATOM     24  C   UNL     1      39.082   4.896  15.676  0.00  0.00    +0.000 C 
BRANCH  24  25
ATOM     25  C   UNL     1      38.208   5.975  16.267  0.00  0.00    +0.000 C 
BRANCH  25  26
ATOM     26  C   UNL     1      38.655   6.402  17.618  0.00  0.00    +0.000 A 
ATOM     27  C   UNL     1      39.669   5.742  18.296  0.00  0.00    +0.000 A 
ATOM     28  C   UNL     1      40.082   6.141  19.549  0.00  0.00    +0.000 A 
ATOM     29  C   UNL     1      39.501   7.218  20.183  0.00  0.00    +0.000 A 
ATOM     30  C   UNL     1      38.492   7.882  19.518  0.00  0.00    +0.000 A 
ATOM     31  C   UNL     1      38.084   7.479  18.265  0.00  0.00    +0.000 A 
ENDBRANCH  25  26
ENDBRANCH  24  25
ENDBRANCH   5  24
TORSDOF 7
ENDMDL
MODEL 8
REMARK VINA RESULT:      -8.0      2.332      5.774
REMARK  Name = 
REMARK  7 active torsions:
REMARK  status: ('A' for Active; 'I' for Inactive)
REMARK    1  A    between atoms: C_5  and  N_6
REMARK    2  A    between atoms: N_6  and  C_7
REMARK    3  A    between atoms: C_8  and  S_9
REMARK    4  A    between atoms: S_9  and  C_10
REMARK    5  A    between atoms: N_19  and  C_20
REMARK    6  A    between atoms: C_20  and  C_21
REMARK    7  A    between atoms: C_21  and  C_22
REMARK                            x       y       z     vdW  Elec       q    Type
REMARK                         _______ _______ _______ _____ _____    ______ ____
ROOT
ATOM      1  C   UNL     1      38.051   5.027  14.979  0.00  0.00    +0.000 C 
ATOM      2  C   UNL     1      36.948   5.674  14.564  0.00  0.00    +0.000 C 
ATOM      3  C   UNL     1      35.850   4.730  14.486  0.00  0.00    +0.000 C 
ATOM      4  O   UNL     1      34.679   4.996  14.135  0.00  0.00    +0.000 OA
ATOM      5  N   UNL     1      36.366   3.461  14.884  0.00  0.00    +0.000 N 
ATOM      6  C   UNL     1      37.730   3.635  15.191  0.00  0.00    +0.000 C 
ATOM      7  O   UNL     1      38.541   2.735  15.585  0.00  0.00    +0.000 OA
ENDROOT
BRANCH   1   8
ATOM      8  N   UNL     1      39.339   5.573  15.189  0.00  0.00    +0.000 NA
BRANCH   8  13
ATOM      9  C   UNL     1      41.294   6.484  20.434  0.00  0.00    +0.000 C 
ATOM     10  C   UNL     1      40.714   6.224  19.079  0.00  0.00    +0.000 A 
ATOM     11  C   UNL     1      39.428   5.786  18.902  0.00  0.00    +0.000 A 
ATOM     12  C   UNL     1      38.968   5.570  17.619  0.00  0.00    +0.000 A 
ATOM     13  C   UNL     1      39.773   5.784  16.524  0.00  0.00    +0.000 A 
ATOM     14  C   UNL     1      41.058   6.221  16.712  0.00  0.00    +0.000 A 
ATOM     15  C   UNL     1      41.528   6.441  17.989  0.00  0.00    +0.000 A 
ENDBRANCH   8  13
ENDBRANCH   1   8
BRANCH   2  16
ATOM     16  S   UNL     1      37.034   7.415  14.220  0.00  0.00    +0.000 S 
BRANCH  16  17
ATOM     17  C   UNL     1      35.885   8.394  15.120  0.00  0.00    +0.000 A 
ATOM     18  C   UNL     1      34.553   8.543  14.875  0.00  0.00    +0.000 A 
ATOM     19  C   UNL     1      33.719   9.332  15.630  0.00  0.00    +0.000 A 
ATOM     20  C   UNL     1      34.190  10.045  16.720  0.00  0.00    +0.000 A 
ATOM     21  C   UNL     1      33.283  10.894  17.532  0.00  0.00    +0.000 C 
ATOM     22  C   UNL     1      35.534   9.904  16.982  0.00  0.00    +0.000 A 
ATOM     23  C   UNL     1      36.364   9.119  16.229  0.00  0.00    +0.000 A 
ENDBRANCH  16  17
ENDBRANCH   2  16
BRANCH   5  24
ATOM     24  C   UNL     1      35.573   2.253  14.938  0.00  0.00    +0.000 C 
BRANCH  24  25
ATOM     25  C   UNL     1      35.037   2.073  16.338  0.00  0.00    +0.000 C 
BRANCH  25  26
ATOM     26  C   UNL     1      35.403   0.760  16.930  0.00  0.00    +0.000 A 
ATOM     27  C   UNL     1      35.825   0.643  18.246  0.00  0.00    +0.000 A 
ATOM     28  C   UNL     1      36.162  -0.577  18.792  0.00  0.00    +0.000 A 
ATOM     29  C   UNL     1      36.094  -1.736  18.048  0.00  0.00    +0.000 A 
ATOM     30  C   UNL     1      35.675  -1.630  16.739  0.00  0.00    +0.000 A 
ATOM     31  C   UNL     1      35.339  -0.409  16.199  0.00  0.00    +0.000 A 
ENDBRANCH  25  26
ENDBRANCH  24  25
ENDBRANCH   5  24
TORSDOF 7
ENDMDL
MODEL 9
REMARK VINA RESULT:      -7.9      2.356      7.342
REMARK  Name = 
REMARK  7 active torsions:
REMARK  status: ('A' for Active; 'I' for Inactive)
REMARK    1  A    between atoms: C_5  and  N_6
REMARK    2  A    between atoms: N_6  and  C_7
REMARK    3  A    between atoms: C_8  and  S_9
REMARK    4  A    between atoms: S_9  and  C_10
REMARK    5  A    between atoms: N_19  and  C_20
REMARK    6  A    between atoms: C_20  and  C_21
REMARK    7  A    between atoms: C_21  and  C_22
REMARK                            x       y       z     vdW  Elec       q    Type
REMARK                         _______ _______ _______ _____ _____    ______ ____
ROOT
ATOM      1  C   UNL     1      36.968   4.077  14.658  0.00  0.00    +0.000 C 
ATOM      2  C   UNL     1      36.654   5.375  14.513  0.00  0.00    +0.000 C 
ATOM      3  C   UNL     1      37.610   6.176  15.252  0.00  0.00    +0.000 C 
ATOM      4  O   UNL     1      37.613   7.426  15.331  0.00  0.00    +0.000 OA
ATOM      5  N   UNL     1      38.530   5.270  15.857  0.00  0.00    +0.000 N 
ATOM      6  C   UNL     1      38.140   3.965  15.495  0.00  0.00    +0.000 C 
ATOM      7  O   UNL     1      38.710   2.878  15.838  0.00  0.00    +0.000 OA
ENDROOT
BRANCH   1   8
ATOM      8  N   UNL     1      36.295   2.963  14.104  0.00  0.00    +0.000 NA
BRANCH   8  13
ATOM      9  C   UNL     1      34.736  -1.339  17.456  0.00  0.00    +0.000 C 
ATOM     10  C   UNL     1      35.110  -0.158  16.615  0.00  0.00    +0.000 A 
ATOM     11  C   UNL     1      34.680   1.111  16.898  0.00  0.00    +0.000 A 
ATOM     12  C   UNL     1      35.069   2.147  16.073  0.00  0.00    +0.000 A 
ATOM     13  C   UNL     1      35.873   1.926  14.979  0.00  0.00    +0.000 A 
ATOM     14  C   UNL     1      36.297   0.652  14.703  0.00  0.00    +0.000 A 
ATOM     15  C   UNL     1      35.915  -0.389  15.521  0.00  0.00    +0.000 A 
ENDBRANCH   8  13
ENDBRANCH   1   8
BRANCH   2  16
ATOM     16  S   UNL     1      35.247   5.829  13.528  0.00  0.00    +0.000 S 
BRANCH  16  17
ATOM     17  C   UNL     1      34.777   7.516  13.660  0.00  0.00    +0.000 A 
ATOM     18  C   UNL     1      34.159   8.124  14.711  0.00  0.00    +0.000 A 
ATOM     19  C   UNL     1      33.823   9.457  14.736  0.00  0.00    +0.000 A 
ATOM     20  C   UNL     1      34.101  10.292  13.667  0.00  0.00    +0.000 A 
ATOM     21  C   UNL     1      33.737  11.730  13.702  0.00  0.00    +0.000 C 
ATOM     22  C   UNL     1      34.726   9.694  12.597  0.00  0.00    +0.000 A 
ATOM     23  C   UNL     1      35.059   8.367  12.572  0.00  0.00    +0.000 A 
ENDBRANCH  16  17
ENDBRANCH   2  16
BRANCH   5  24
ATOM     24  C   UNL     1      39.642   5.685  16.683  0.00  0.00    +0.000 C 
BRANCH  24  25
ATOM     25  C   UNL     1      39.344   5.349  18.124  0.00  0.00    +0.000 C 
BRANCH  25  26
ATOM     26  C   UNL     1      39.036   6.550  18.943  0.00  0.00    +0.000 A 
ATOM     27  C   UNL     1      39.803   6.901  20.044  0.00  0.00    +0.000 A 
ATOM     28  C   UNL     1      39.516   8.016  20.801  0.00  0.00    +0.000 A 
ATOM     29  C   UNL     1      38.448   8.832  20.494  0.00  0.00    +0.000 A 
ATOM     30  C   UNL     1      37.679   8.492  19.401  0.00  0.00    +0.000 A 
ATOM     31  C   UNL     1      37.971   7.376  18.648  0.00  0.00    +0.000 A 
ENDBRANCH  25  26
ENDBRANCH  24  25
ENDBRANCH   5  24
TORSDOF 7
ENDMDL
MODEL 10
REMARK VINA RESULT:      -7.8     25.373     28.566
REMARK  Name = 
REMARK  7 active torsions:
REMARK  status: ('A' for Active; 'I' for Inactive)
REMARK    1  A    between atoms: C_5  and  N_6
REMARK    2  A    between atoms: N_6  and  C_7
REMARK    3  A    between atoms: C_8  and  S_9
REMARK    4  A    between atoms: S_9  and  C_10
REMARK    5  A    between atoms: N_19  and  C_20
REMARK    6  A    between atoms: C_20  and  C_21
REMARK    7  A    between atoms: C_21  and  C_22
REMARK                            x       y       z     vdW  Elec       q    Type
REMARK                         _______ _______ _______ _____ _____    ______ ____
ROOT
ATOM      1  C   UNL     1      27.321  14.969  40.508  0.00  0.00    +0.000 C 
ATOM      2  C   UNL     1      26.099  14.412  40.559  0.00  0.00    +0.000 C 
ATOM      3  C   UNL     1      25.381  14.740  39.343  0.00  0.00    +0.000 C 
ATOM      4  O   UNL     1      24.215  14.381  39.061  0.00  0.00    +0.000 OA
ATOM      5  N   UNL     1      26.256  15.537  38.547  0.00  0.00    +0.000 N 
ATOM      6  C   UNL     1      27.462  15.685  39.262  0.00  0.00    +0.000 C 
ATOM      7  O   UNL     1      28.494  16.331  38.886  0.00  0.00    +0.000 OA
ENDROOT
BRANCH   1   8
ATOM      8  N   UNL     1      28.339  14.897  41.487  0.00  0.00    +0.000 NA
BRANCH   8  13
ATOM      9  C   UNL     1      31.674  10.313  41.301  0.00  0.00    +0.000 C 
ATOM     10  C   UNL     1      30.805  11.525  41.423  0.00  0.00    +0.000 A 
ATOM     11  C   UNL     1      30.544  12.125  42.626  0.00  0.00    +0.000 A 
ATOM     12  C   UNL     1      29.731  13.240  42.654  0.00  0.00    +0.000 A 
ATOM     13  C   UNL     1      29.181  13.753  41.502  0.00  0.00    +0.000 A 
ATOM     14  C   UNL     1      29.446  13.145  40.303  0.00  0.00    +0.000 A 
ATOM     15  C   UNL     1      30.258  12.032  40.264  0.00  0.00    +0.000 A 
ENDBRANCH   8  13
ENDBRANCH   1   8
BRANCH   2  16
ATOM     16  S   UNL     1      25.632  13.459  41.984  0.00  0.00    +0.000 S 
BRANCH  16  17
ATOM     17  C   UNL     1      26.428  11.898  42.111  0.00  0.00    +0.000 A 
ATOM     18  C   UNL     1      26.875  11.286  43.243  0.00  0.00    +0.000 A 
ATOM     19  C   UNL     1      27.492  10.057  43.258  0.00  0.00    +0.000 A 
ATOM     20  C   UNL     1      27.704   9.342  42.091  0.00  0.00    +0.000 A 
ATOM     21  C   UNL     1      28.369   8.016  42.115  0.00  0.00    +0.000 C 
ATOM     22  C   UNL     1      27.258   9.946  40.938  0.00  0.00    +0.000 A 
ATOM     23  C   UNL     1      26.645  11.170  40.924  0.00  0.00    +0.000 A 
ENDBRANCH  16  17
ENDBRANCH   2  16
BRANCH   5  24
ATOM     24  C   UNL     1      25.903  16.067  37.249  0.00  0.00    +0.000 C 
BRANCH  24  25
ATOM     25  C   UNL     1      26.415  15.136  36.177  0.00  0.00    +0.000 C 
BRANCH  25  26
ATOM     26  C   UNL     1      25.828  15.416  34.842  0.00  0.00    +0.000 A 
ATOM     27  C   UNL     1      25.324  16.665  34.511  0.00  0.00    +0.000 A 
ATOM     28  C   UNL     1      24.781  16.922  33.271  0.00  0.00    +0.000 A 
ATOM     29  C   UNL     1      24.715  15.942  32.303  0.00  0.00    +0.000 A 
ATOM     30  C   UNL     1      25.214  14.697  32.621  0.00  0.00    +0.000 A 
ATOM     31  C   UNL     1      25.756  14.446  33.862  0.00  0.00    +0.000 A 
ENDBRANCH  25  26
ENDBRANCH  24  25
ENDBRANCH   5  24
TORSDOF 7
ENDMDL
