MODEL 1
REMARK VINA RESULT:      -5.8      0.000      0.000
REMARK  Name = 
REMARK  3 active torsions:
REMARK  status: ('A' for Active; 'I' for Inactive)
REMARK    1  A    between atoms: N_2  and  C_4
REMARK    2  A    between atoms: C_13  and  C_14
REMARK    3  A    between atoms: C_16  and  C_17
REMARK                            x       y       z     vdW  Elec       q    Type
REMARK                         _______ _______ _______ _____ _____    ______ ____
ROOT
ATOM      1  C   UNL     1      15.103  -9.204  26.093  0.00  0.00    +0.000 A 
ATOM      2  C   UNL     1      15.883 -10.241  25.684  0.00  0.00    +0.000 A 
ATOM      3  C   UNL     1      17.255 -10.049  25.462  0.00  0.00    +0.000 A 
ATOM      4  C   UNL     1      17.825  -8.799  25.657  0.00  0.00    +0.000 A 
ATOM      5  C   UNL     1      17.024  -7.807  26.058  0.00  0.00    +0.000 A 
ATOM      6  C   UNL     1      15.641  -7.983  26.287  0.00  0.00    +0.000 A 
ATOM      7  O   UNL     1      17.512  -6.539  26.275  0.00  0.00    +0.000 OA
ATOM      8  C   UNL     1      18.832  -6.303  26.073  0.00  0.00    +0.000 C 
ATOM      9  N   UNL     1      19.315  -4.966  26.306  0.00  0.00    +0.000 NA
ATOM     10  C   UNL     1      19.655  -7.193  25.693  0.00  0.00    +0.000 C 
ATOM     11  C   UNL     1      19.327  -8.669  25.395  0.00  0.00    +0.000 C 
ENDROOT
BRANCH  11  12
ATOM     12  C   UNL     1      19.876  -9.300  26.713  0.00  0.00    +0.000 A 
ATOM     13  C   UNL     1      19.464  -9.142  27.965  0.00  0.00    +0.000 A 
ATOM     14  C   UNL     1      20.116  -9.808  28.921  0.00  0.00    +0.000 A 
ATOM     15  C   UNL     1      21.155 -10.601  28.552  0.00  0.00    +0.000 A 
ATOM     16  S   UNL     1      21.180 -10.378  26.837  0.00  0.00    +0.000 S 
ENDBRANCH  11  12
BRANCH   1  18
ATOM     17  C   UNL     1      12.754  -8.345  25.999  0.00  0.00    +0.000 C 
ATOM     18  N   UNL     1      13.698  -9.361  26.330  0.00  0.00    +0.000 N 
ATOM     19  C   UNL     1      13.197 -10.593  26.929  0.00  0.00    +0.000 C 
ENDBRANCH   1  18
BRANCH  10  20
ATOM     20  C   UNL     1      21.042  -6.890  25.495  0.00  0.00    +0.000 C 
ATOM     21  N   UNL     1      22.185  -6.659  25.322  0.00  0.00    +0.000 NA
ENDBRANCH  10  20
TORSDOF 3
ENDMDL
MODEL 2
REMARK VINA RESULT:      -5.8     33.220     35.063
REMARK  Name = 
REMARK  3 active torsions:
REMARK  status: ('A' for Active; 'I' for Inactive)
REMARK    1  A    between atoms: N_2  and  C_4
REMARK    2  A    between atoms: C_13  and  C_14
REMARK    3  A    between atoms: C_16  and  C_17
REMARK                            x       y       z     vdW  Elec       q    Type
REMARK                         _______ _______ _______ _____ _____    ______ ____
ROOT
ATOM      1  C   UNL     1      31.591  23.820  26.660  0.00  0.00    +0.000 A 
ATOM      2  C   UNL     1      32.013  23.477  25.413  0.00  0.00    +0.000 A 
ATOM      3  C   UNL     1      31.084  23.252  24.387  0.00  0.00    +0.000 A 
ATOM      4  C   UNL     1      29.724  23.378  24.638  0.00  0.00    +0.000 A 
ATOM      5  C   UNL     1      29.350  23.716  25.876  0.00  0.00    +0.000 A 
ATOM      6  C   UNL     1      30.274  23.947  26.920  0.00  0.00    +0.000 A 
ATOM      7  O   UNL     1      28.023  23.862  26.206  0.00  0.00    +0.000 OA
ATOM      8  C   UNL     1      27.085  23.655  25.248  0.00  0.00    +0.000 C 
ATOM      9  N   UNL     1      25.703  23.814  25.622  0.00  0.00    +0.000 NA
ATOM     10  C   UNL     1      27.362  23.332  24.052  0.00  0.00    +0.000 C 
ATOM     11  C   UNL     1      28.772  23.117  23.469  0.00  0.00    +0.000 C 
ENDROOT
BRANCH  11  12
ATOM     12  C   UNL     1      28.918  24.473  22.709  0.00  0.00    +0.000 A 
ATOM     13  C   UNL     1      29.226  24.706  21.439  0.00  0.00    +0.000 A 
ATOM     14  C   UNL     1      29.283  25.977  21.038  0.00  0.00    +0.000 A 
ATOM     15  C   UNL     1      29.023  26.948  21.951  0.00  0.00    +0.000 A 
ATOM     16  S   UNL     1      28.701  26.019  23.373  0.00  0.00    +0.000 S 
ENDBRANCH  11  12
BRANCH   1  18
ATOM     17  C   UNL     1      33.588  24.986  27.617  0.00  0.00    +0.000 C 
ATOM     18  N   UNL     1      32.511  24.058  27.732  0.00  0.00    +0.000 N 
ATOM     19  C   UNL     1      32.359  23.337  28.991  0.00  0.00    +0.000 C 
ENDBRANCH   1  18
BRANCH  10  20
ATOM     20  C   UNL     1      26.330  23.124  23.078  0.00  0.00    +0.000 C 
ATOM     21  N   UNL     1      25.470  22.946  22.292  0.00  0.00    +0.000 NA
ENDBRANCH  10  20
TORSDOF 3
ENDMDL
MODEL 3
REMARK VINA RESULT:      -5.5     33.813     34.940
REMARK  Name = 
REMARK  3 active torsions:
REMARK  status: ('A' for Active; 'I' for Inactive)
REMARK    1  A    between atoms: N_2  and  C_4
REMARK    2  A    between atoms: C_13  and  C_14
REMARK    3  A    between atoms: C_16  and  C_17
REMARK                            x       y       z     vdW  Elec       q    Type
REMARK                         _______ _______ _______ _____ _____    ______ ____
ROOT
ATOM      1  C   UNL     1      25.118  25.329  26.647  0.00  0.00    +0.000 A 
ATOM      2  C   UNL     1      25.418  24.011  26.499  0.00  0.00    +0.000 A 
ATOM      3  C   UNL     1      26.251  23.587  25.453  0.00  0.00    +0.000 A 
ATOM      4  C   UNL     1      26.776  24.513  24.561  0.00  0.00    +0.000 A 
ATOM      5  C   UNL     1      26.457  25.798  24.741  0.00  0.00    +0.000 A 
ATOM      6  C   UNL     1      25.620  26.241  25.790  0.00  0.00    +0.000 A 
ATOM      7  O   UNL     1      26.937  26.777  23.902  0.00  0.00    +0.000 OA
ATOM      8  C   UNL     1      27.747  26.418  22.875  0.00  0.00    +0.000 C 
ATOM      9  N   UNL     1      28.233  27.463  22.011  0.00  0.00    +0.000 NA
ATOM     10  C   UNL     1      28.093  25.219  22.639  0.00  0.00    +0.000 C 
ATOM     11  C   UNL     1      27.676  23.974  23.447  0.00  0.00    +0.000 C 
ENDROOT
BRANCH  11  12
ATOM     12  C   UNL     1      28.996  23.770  24.257  0.00  0.00    +0.000 A 
ATOM     13  C   UNL     1      29.812  22.724  24.300  0.00  0.00    +0.000 A 
ATOM     14  C   UNL     1      30.889  22.811  25.084  0.00  0.00    +0.000 A 
ATOM     15  C   UNL     1      31.079  23.958  25.784  0.00  0.00    +0.000 A 
ATOM     16  S   UNL     1      29.708  24.897  25.306  0.00  0.00    +0.000 S 
ENDBRANCH  11  12
BRANCH   1  18
ATOM     17  C   UNL     1      24.725  25.903  29.051  0.00  0.00    +0.000 C 
ATOM     18  N   UNL     1      24.271  25.799  27.703  0.00  0.00    +0.000 N 
ATOM     19  C   UNL     1      22.895  26.187  27.411  0.00  0.00    +0.000 C 
ENDBRANCH   1  18
BRANCH  10  20
ATOM     20  C   UNL     1      28.952  24.894  21.538  0.00  0.00    +0.000 C 
ATOM     21  N   UNL     1      29.649  24.608  20.632  0.00  0.00    +0.000 NA
ENDBRANCH  10  20
TORSDOF 3
ENDMDL
MODEL 4
REMARK VINA RESULT:      -5.4     32.899     34.131
REMARK  Name = 
REMARK  3 active torsions:
REMARK  status: ('A' for Active; 'I' for Inactive)
REMARK    1  A    between atoms: N_2  and  C_4
REMARK    2  A    between atoms: C_13  and  C_14
REMARK    3  A    between atoms: C_16  and  C_17
REMARK                            x       y       z     vdW  Elec       q    Type
REMARK                         _______ _______ _______ _____ _____    ______ ____
ROOT
ATOM      1  C   UNL     1      27.662  24.100  29.901  0.00  0.00    +0.000 A 
ATOM      2  C   UNL     1      28.339  23.006  29.460  0.00  0.00    +0.000 A 
ATOM      3  C   UNL     1      28.176  22.555  28.142  0.00  0.00    +0.000 A 
ATOM      4  C   UNL     1      27.320  23.225  27.277  0.00  0.00    +0.000 A 
ATOM      5  C   UNL     1      26.674  24.295  27.749  0.00  0.00    +0.000 A 
ATOM      6  C   UNL     1      26.828  24.762  29.074  0.00  0.00    +0.000 A 
ATOM      7  O   UNL     1      25.810  25.014  26.956  0.00  0.00    +0.000 OA
ATOM      8  C   UNL     1      25.617  24.618  25.673  0.00  0.00    +0.000 C 
ATOM      9  N   UNL     1      24.706  25.388  24.866  0.00  0.00    +0.000 NA
ATOM     10  C   UNL     1      26.194  23.613  25.154  0.00  0.00    +0.000 C 
ATOM     11  C   UNL     1      27.195  22.674  25.855  0.00  0.00    +0.000 C 
ENDROOT
BRANCH  11  12
ATOM     12  C   UNL     1      28.514  23.240  25.241  0.00  0.00    +0.000 A 
ATOM     13  C   UNL     1      29.521  22.602  24.656  0.00  0.00    +0.000 A 
ATOM     14  C   UNL     1      30.543  23.334  24.210  0.00  0.00    +0.000 A 
ATOM     15  C   UNL     1      30.488  24.680  24.382  0.00  0.00    +0.000 A 
ATOM     16  S   UNL     1      28.968  24.874  25.183  0.00  0.00    +0.000 S 
ENDBRANCH  11  12
BRANCH   1  18
ATOM     17  C   UNL     1      29.047  24.544  31.938  0.00  0.00    +0.000 C 
ATOM     18  N   UNL     1      27.804  24.589  31.240  0.00  0.00    +0.000 N 
ATOM     19  C   UNL     1      26.651  25.155  31.931  0.00  0.00    +0.000 C 
ENDBRANCH   1  18
BRANCH  10  20
ATOM     20  C   UNL     1      25.955  23.237  23.791  0.00  0.00    +0.000 C 
ATOM     21  N   UNL     1      25.745  22.914  22.677  0.00  0.00    +0.000 NA
ENDBRANCH  10  20
TORSDOF 3
ENDMDL
MODEL 5
REMARK VINA RESULT:      -5.4     33.024     34.228
REMARK  Name = 
REMARK  3 active torsions:
REMARK  status: ('A' for Active; 'I' for Inactive)
REMARK    1  A    between atoms: N_2  and  C_4
REMARK    2  A    between atoms: C_13  and  C_14
REMARK    3  A    between atoms: C_16  and  C_17
REMARK                            x       y       z     vdW  Elec       q    Type
REMARK                         _______ _______ _______ _____ _____    ______ ____
ROOT
ATOM      1  C   UNL     1      30.805  22.605  29.211  0.00  0.00    +0.000 A 
ATOM      2  C   UNL     1      31.295  22.142  28.029  0.00  0.00    +0.000 A 
ATOM      3  C   UNL     1      30.493  22.152  26.878  0.00  0.00    +0.000 A 
ATOM      4  C   UNL     1      29.192  22.634  26.938  0.00  0.00    +0.000 A 
ATOM      5  C   UNL     1      28.750  23.079  28.118  0.00  0.00    +0.000 A 
ATOM      6  C   UNL     1      29.544  23.077  29.286  0.00  0.00    +0.000 A 
ATOM      7  O   UNL     1      27.474  23.574  28.261  0.00  0.00    +0.000 OA
ATOM      8  C   UNL     1      26.659  23.604  27.178  0.00  0.00    +0.000 C 
ATOM      9  N   UNL     1      25.328  24.126  27.357  0.00  0.00    +0.000 NA
ATOM     10  C   UNL     1      27.007  23.200  26.025  0.00  0.00    +0.000 C 
ATOM     11  C   UNL     1      28.380  22.613  25.642  0.00  0.00    +0.000 C 
ENDROOT
BRANCH  11  12
ATOM     12  C   UNL     1      28.982  23.870  24.939  0.00  0.00    +0.000 A 
ATOM     13  C   UNL     1      29.198  25.089  25.418  0.00  0.00    +0.000 A 
ATOM     14  C   UNL     1      29.734  25.993  24.594  0.00  0.00    +0.000 A 
ATOM     15  C   UNL     1      30.021  25.609  23.324  0.00  0.00    +0.000 A 
ATOM     16  S   UNL     1      29.518  23.954  23.331  0.00  0.00    +0.000 S 
ENDBRANCH  11  12
BRANCH   1  18
ATOM     17  C   UNL     1      32.961  23.020  30.413  0.00  0.00    +0.000 C 
ATOM     18  N   UNL     1      31.595  22.610  30.407  0.00  0.00    +0.000 N 
ATOM     19  C   UNL     1      31.001  22.186  31.670  0.00  0.00    +0.000 C 
ENDBRANCH   1  18
BRANCH  10  20
ATOM     20  C   UNL     1      26.106  23.254  24.912  0.00  0.00    +0.000 C 
ATOM     21  N   UNL     1      25.381  23.299  23.984  0.00  0.00    +0.000 NA
ENDBRANCH  10  20
TORSDOF 3
ENDMDL
MODEL 6
REMARK VINA RESULT:      -5.3      3.490      5.592
REMARK  Name = 
REMARK  3 active torsions:
REMARK  status: ('A' for Active; 'I' for Inactive)
REMARK    1  A    between atoms: N_2  and  C_4
REMARK    2  A    between atoms: C_13  and  C_14
REMARK    3  A    between atoms: C_16  and  C_17
REMARK                            x       y       z     vdW  Elec       q    Type
REMARK                         _______ _______ _______ _____ _____    ______ ____
ROOT
ATOM      1  C   UNL     1      19.356  -7.837  26.667  0.00  0.00    +0.000 A 
ATOM      2  C   UNL     1      19.719  -6.758  25.922  0.00  0.00    +0.000 A 
ATOM      3  C   UNL     1      20.936  -6.757  25.225  0.00  0.00    +0.000 A 
ATOM      4  C   UNL     1      21.779  -7.858  25.290  0.00  0.00    +0.000 A 
ATOM      5  C   UNL     1      21.386  -8.897  26.033  0.00  0.00    +0.000 A 
ATOM      6  C   UNL     1      20.164  -8.915  26.741  0.00  0.00    +0.000 A 
ATOM      7  O   UNL     1      22.163 -10.026  26.149  0.00  0.00    +0.000 OA
ATOM      8  C   UNL     1      23.350 -10.073  25.493  0.00  0.00    +0.000 C 
ATOM      9  N   UNL     1      24.144 -11.267  25.633  0.00  0.00    +0.000 NA
ATOM     10  C   UNL     1      23.790  -9.127  24.769  0.00  0.00    +0.000 C 
ATOM     11  C   UNL     1      23.088  -7.781  24.502  0.00  0.00    +0.000 C 
ENDROOT
BRANCH  11  12
ATOM     12  C   UNL     1      22.546  -8.084  23.069  0.00  0.00    +0.000 A 
ATOM     13  C   UNL     1      22.740  -7.428  21.931  0.00  0.00    +0.000 A 
ATOM     14  C   UNL     1      22.154  -7.906  20.832  0.00  0.00    +0.000 A 
ATOM     15  C   UNL     1      21.400  -9.029  20.947  0.00  0.00    +0.000 A 
ATOM     16  S   UNL     1      21.543  -9.381  22.634  0.00  0.00    +0.000 S 
ENDBRANCH  11  12
BRANCH   1  18
ATOM     17  C   UNL     1      17.869  -8.841  28.412  0.00  0.00    +0.000 C 
ATOM     18  N   UNL     1      18.121  -7.875  27.394  0.00  0.00    +0.000 N 
ATOM     19  C   UNL     1      17.075  -6.903  27.097  0.00  0.00    +0.000 C 
ENDBRANCH   1  18
BRANCH  10  20
ATOM     20  C   UNL     1      25.053  -9.228  24.097  0.00  0.00    +0.000 C 
ATOM     21  N   UNL     1      26.092  -9.290  23.544  0.00  0.00    +0.000 NA
ENDBRANCH  10  20
TORSDOF 3
ENDMDL
MODEL 7
REMARK VINA RESULT:      -5.2     29.753     31.933
REMARK  Name = 
REMARK  3 active torsions:
REMARK  status: ('A' for Active; 'I' for Inactive)
REMARK    1  A    between atoms: N_2  and  C_4
REMARK    2  A    between atoms: C_13  and  C_14
REMARK    3  A    between atoms: C_16  and  C_17
REMARK                            x       y       z     vdW  Elec       q    Type
REMARK                         _______ _______ _______ _____ _____    ______ ____
ROOT
ATOM      1  C   UNL     1      20.639  18.839  38.718  0.00  0.00    +0.000 A 
ATOM      2  C   UNL     1      19.285  18.913  38.611  0.00  0.00    +0.000 A 
ATOM      3  C   UNL     1      18.679  20.065  38.089  0.00  0.00    +0.000 A 
ATOM      4  C   UNL     1      19.458  21.139  37.678  0.00  0.00    +0.000 A 
ATOM      5  C   UNL     1      20.784  21.025  37.800  0.00  0.00    +0.000 A 
ATOM      6  C   UNL     1      21.411  19.872  38.323  0.00  0.00    +0.000 A 
ATOM      7  O   UNL     1      21.626  22.043  37.415  0.00  0.00    +0.000 OA
ATOM      8  C   UNL     1      21.087  23.179  36.904  0.00  0.00    +0.000 C 
ATOM      9  N   UNL     1      21.992  24.228  36.511  0.00  0.00    +0.000 NA
ATOM     10  C   UNL     1      19.839  23.360  36.758  0.00  0.00    +0.000 C 
ATOM     11  C   UNL     1      18.724  22.359  37.119  0.00  0.00    +0.000 C 
ENDROOT
BRANCH  11  12
ATOM     12  C   UNL     1      18.407  21.836  35.683  0.00  0.00    +0.000 A 
ATOM     13  C   UNL     1      19.144  21.090  34.869  0.00  0.00    +0.000 A 
ATOM     14  C   UNL     1      18.629  20.777  33.678  0.00  0.00    +0.000 A 
ATOM     15  C   UNL     1      17.389  21.240  33.376  0.00  0.00    +0.000 A 
ATOM     16  S   UNL     1      16.981  22.119  34.809  0.00  0.00    +0.000 S 
ENDBRANCH  11  12
BRANCH   1  18
ATOM     17  C   UNL     1      22.486  17.150  38.669  0.00  0.00    +0.000 C 
ATOM     18  N   UNL     1      21.294  17.678  39.247  0.00  0.00    +0.000 N 
ATOM     19  C   UNL     1      20.739  17.000  40.413  0.00  0.00    +0.000 C 
ENDBRANCH   1  18
BRANCH  10  20
ATOM     20  C   UNL     1      19.322  24.581  36.212  0.00  0.00    +0.000 C 
ATOM     21  N   UNL     1      18.880  25.574  35.757  0.00  0.00    +0.000 NA
ENDBRANCH  10  20
TORSDOF 3
ENDMDL
MODEL 8
REMARK VINA RESULT:      -5.2     21.654     23.381
REMARK  Name = 
REMARK  3 active torsions:
REMARK  status: ('A' for Active; 'I' for Inactive)
REMARK    1  A    between atoms: N_2  and  C_4
REMARK    2  A    between atoms: C_13  and  C_14
REMARK    3  A    between atoms: C_16  and  C_17
REMARK                            x       y       z     vdW  Elec       q    Type
REMARK                         _______ _______ _______ _____ _____    ______ ____
ROOT
ATOM      1  C   UNL     1      18.303   9.252  38.579  0.00  0.00    +0.000 A 
ATOM      2  C   UNL     1      17.280  10.053  38.982  0.00  0.00    +0.000 A 
ATOM      3  C   UNL     1      16.554   9.745  40.142  0.00  0.00    +0.000 A 
ATOM      4  C   UNL     1      16.875   8.618  40.887  0.00  0.00    +0.000 A 
ATOM      5  C   UNL     1      17.886   7.857  40.457  0.00  0.00    +0.000 A 
ATOM      6  C   UNL     1      18.628   8.154  39.291  0.00  0.00    +0.000 A 
ATOM      7  O   UNL     1      18.268   6.725  41.139  0.00  0.00    +0.000 OA
ATOM      8  C   UNL     1      17.596   6.384  42.267  0.00  0.00    +0.000 C 
ATOM      9  N   UNL     1      18.016   5.192  42.959  0.00  0.00    +0.000 NA
ATOM     10  C   UNL     1      16.626   7.055  42.737  0.00  0.00    +0.000 C 
ATOM     11  C   UNL     1      16.038   8.349  42.139  0.00  0.00    +0.000 C 
ENDROOT
BRANCH  11  12
ATOM     12  C   UNL     1      16.695   9.375  43.116  0.00  0.00    +0.000 A 
ATOM     13  C   UNL     1      16.132  10.317  43.863  0.00  0.00    +0.000 A 
ATOM     14  C   UNL     1      16.933  11.068  44.621  0.00  0.00    +0.000 A 
ATOM     15  C   UNL     1      18.268  10.822  44.580  0.00  0.00    +0.000 A 
ATOM     16  S   UNL     1      18.353   9.514  43.451  0.00  0.00    +0.000 S 
ENDBRANCH  11  12
BRANCH   1  18
ATOM     17  C   UNL     1      20.444   9.899  37.457  0.00  0.00    +0.000 C 
ATOM     18  N   UNL     1      19.067   9.535  37.400  0.00  0.00    +0.000 N 
ATOM     19  C   UNL     1      18.433   9.454  36.089  0.00  0.00    +0.000 C 
ENDBRANCH   1  18
BRANCH  10  20
ATOM     20  C   UNL     1      15.950   6.650  43.935  0.00  0.00    +0.000 C 
ATOM     21  N   UNL     1      15.376   6.320  44.910  0.00  0.00    +0.000 NA
ENDBRANCH  10  20
TORSDOF 3
ENDMDL
MODEL 9
REMARK VINA RESULT:      -5.2     32.986     34.585
REMARK  Name = 
REMARK  3 active torsions:
REMARK  status: ('A' for Active; 'I' for Inactive)
REMARK    1  A    between atoms: N_2  and  C_4
REMARK    2  A    between atoms: C_13  and  C_14
REMARK    3  A    between atoms: C_16  and  C_17
REMARK                            x       y       z     vdW  Elec       q    Type
REMARK                         _______ _______ _______ _____ _____    ______ ____
ROOT
ATOM      1  C   UNL     1      28.928  24.617  22.940  0.00  0.00    +0.000 A 
ATOM      2  C   UNL     1      28.160  23.562  23.325  0.00  0.00    +0.000 A 
ATOM      3  C   UNL     1      28.506  22.811  24.457  0.00  0.00    +0.000 A 
ATOM      4  C   UNL     1      29.637  23.138  25.194  0.00  0.00    +0.000 A 
ATOM      5  C   UNL     1      30.364  24.181  24.782  0.00  0.00    +0.000 A 
ATOM      6  C   UNL     1      30.030  24.949  23.644  0.00  0.00    +0.000 A 
ATOM      7  O   UNL     1      31.498  24.571  25.457  0.00  0.00    +0.000 OA
ATOM      8  C   UNL     1      31.874  23.876  26.559  0.00  0.00    +0.000 C 
ATOM      9  N   UNL     1      33.066  24.305  27.245  0.00  0.00    +0.000 NA
ATOM     10  C   UNL     1      31.235  22.875  27.011  0.00  0.00    +0.000 C 
ATOM     11  C   UNL     1      29.948  22.272  26.416  0.00  0.00    +0.000 C 
ENDROOT
BRANCH  11  12
ATOM     12  C   UNL     1      28.921  22.873  27.427  0.00  0.00    +0.000 A 
ATOM     13  C   UNL     1      27.966  22.272  28.126  0.00  0.00    +0.000 A 
ATOM     14  C   UNL     1      27.218  23.028  28.932  0.00  0.00    +0.000 A 
ATOM     15  C   UNL     1      27.482  24.359  28.986  0.00  0.00    +0.000 A 
ATOM     16  S   UNL     1      28.801  24.505  27.877  0.00  0.00    +0.000 S 
ENDBRANCH  11  12
BRANCH   1  18
ATOM     17  C   UNL     1      29.517  25.574  20.703  0.00  0.00    +0.000 C 
ATOM     18  N   UNL     1      28.607  25.408  21.789  0.00  0.00    +0.000 N 
ATOM     19  C   UNL     1      27.312  26.074  21.705  0.00  0.00    +0.000 C 
ENDBRANCH   1  18
BRANCH  10  20
ATOM     20  C   UNL     1      31.678  22.175  28.181  0.00  0.00    +0.000 C 
ATOM     21  N   UNL     1      32.047  21.617  29.151  0.00  0.00    +0.000 NA
ENDBRANCH  10  20
TORSDOF 3
ENDMDL
MODEL 10
REMARK VINA RESULT:      -5.1     18.116     20.057
REMARK  Name = 
REMARK  3 active torsions:
REMARK  status: ('A' for Active; 'I' for Inactive)
REMARK    1  A    between atoms: N_2  and  C_4
REMARK    2  A    between atoms: C_13  and  C_14
REMARK    3  A    between atoms: C_16  and  C_17
REMARK                            x       y       z     vdW  Elec       q    Type
REMARK                         _______ _______ _______ _____ _____    ______ ____
ROOT
ATOM      1  C   UNL     1      33.669   1.142  34.623  0.00  0.00    +0.000 A 
ATOM      2  C   UNL     1      33.505   0.830  35.937  0.00  0.00    +0.000 A 
ATOM      3  C   UNL     1      33.383  -0.509  36.337  0.00  0.00    +0.000 A 
ATOM      4  C   UNL     1      33.428  -1.526  35.393  0.00  0.00    +0.000 A 
ATOM      5  C   UNL     1      33.589  -1.178  34.114  0.00  0.00    +0.000 A 
ATOM      6  C   UNL     1      33.714   0.166  33.694  0.00  0.00    +0.000 A 
ATOM      7  O   UNL     1      33.645  -2.125  33.118  0.00  0.00    +0.000 OA
ATOM      8  C   UNL     1      33.531  -3.434  33.453  0.00  0.00    +0.000 C 
ATOM      9  N   UNL     1      33.591  -4.404  32.390  0.00  0.00    +0.000 NA
ATOM     10  C   UNL     1      33.376  -3.842  34.646  0.00  0.00    +0.000 C 
ATOM     11  C   UNL     1      33.288  -2.960  35.907  0.00  0.00    +0.000 C 
ENDROOT
BRANCH  11  12
ATOM     12  C   UNL     1      34.736  -3.184  36.448  0.00  0.00    +0.000 A 
ATOM     13  C   UNL     1      35.905  -2.888  35.893  0.00  0.00    +0.000 A 
ATOM     14  C   UNL     1      37.010  -3.187  36.579  0.00  0.00    +0.000 A 
ATOM     15  C   UNL     1      36.868  -3.774  37.795  0.00  0.00    +0.000 A 
ATOM     16  S   UNL     1      35.148  -3.886  37.936  0.00  0.00    +0.000 S 
ENDBRANCH  11  12
BRANCH   1  18
ATOM     17  C   UNL     1      33.979   3.582  35.086  0.00  0.00    +0.000 C 
ATOM     18  N   UNL     1      33.797   2.498  34.177  0.00  0.00    +0.000 N 
ATOM     19  C   UNL     1      33.740   2.800  32.752  0.00  0.00    +0.000 C 
ENDBRANCH   1  18
BRANCH  10  20
ATOM     20  C   UNL     1      33.261  -5.239  34.947  0.00  0.00    +0.000 C 
ATOM     21  N   UNL     1      33.180  -6.386  35.209  0.00  0.00    +0.000 NA
ENDBRANCH  10  20
TORSDOF 3
ENDMDL
