MODEL 1
REMARK VINA RESULT:      -8.6      0.000      0.000
REMARK  Name = 
REMARK  8 active torsions:
REMARK  status: ('A' for Active; 'I' for Inactive)
REMARK    1  A    between atoms: C_2  and  C_3
REMARK    2  A    between atoms: C_4  and  C_5
REMARK    3  A    between atoms: C_18  and  C_19
REMARK    4  A    between atoms: N_21  and  C_22
REMARK    5  A    between atoms: C_22  and  C_23
REMARK    6  A    between atoms: C_23  and  C_24
REMARK    7  A    between atoms: C_27  and  O_28
REMARK    8  A    between atoms: C_30  and  O_31
REMARK                            x       y       z     vdW  Elec       q    Type
REMARK                         _______ _______ _______ _____ _____    ______ ____
ROOT
ATOM      1  C   UNL     1      12.206  -0.695  26.501  0.00  0.00    +0.000 A 
ATOM      2  C   UNL     1      10.983  -0.569  25.902  0.00  0.00    +0.000 A 
ATOM      3  N   UNL     1      10.374   0.616  25.766  0.00  0.00    +0.000 NA
ATOM      4  C   UNL     1      10.940   1.740  26.217  0.00  0.00    +0.000 A 
ATOM      5  C   UNL     1      10.334   2.971  26.089  0.00  0.00    +0.000 A 
ATOM      6  C   UNL     1      10.929   4.120  26.558  0.00  0.00    +0.000 A 
ATOM      7  C   UNL     1      12.160   4.025  27.166  0.00  0.00    +0.000 A 
ATOM      8  C   UNL     1      12.772   2.800  27.296  0.00  0.00    +0.000 A 
ATOM      9  C   UNL     1      12.188   1.650  26.833  0.00  0.00    +0.000 A 
ATOM     10  C   UNL     1      12.831   0.450  26.983  0.00  0.00    +0.000 A 
ENDROOT
BRANCH   2  11
ATOM     11  C   UNL     1      10.294  -1.741  25.404  0.00  0.00    +0.000 A 
ATOM     12  C   UNL     1       9.320  -2.439  26.063  0.00  0.00    +0.000 A 
ATOM     13  C   UNL     1       8.684  -3.548  25.563  0.00  0.00    +0.000 A 
ATOM     14  C   UNL     1       9.064  -3.982  24.295  0.00  0.00    +0.000 A 
ATOM     15  C   UNL     1      10.033  -3.316  23.596  0.00  0.00    +0.000 A 
ATOM     16  C   UNL     1      10.639  -2.217  24.134  0.00  0.00    +0.000 A 
ENDBRANCH   2  11
BRANCH  10  17
ATOM     17  C   UNL     1      14.115   0.322  27.615  0.00  0.00    +0.000 C 
ATOM     18  O   UNL     1      14.138   0.144  28.869  0.00  0.00    +0.000 OA
ATOM     19  N   UNL     1      15.352   0.383  26.938  0.00  0.00    +0.000 NA
BRANCH  19  20
ATOM     20  C   UNL     1      16.581   0.240  27.696  0.00  0.00    +0.000 C 
BRANCH  20  21
ATOM     21  C   UNL     1      17.660   1.043  26.981  0.00  0.00    +0.000 C 
BRANCH  21  22
ATOM     22  C   UNL     1      18.334   0.227  25.940  0.00  0.00    +0.000 A 
ATOM     23  C   UNL     1      18.433  -1.144  26.041  0.00  0.00    +0.000 A 
ATOM     24  C   UNL     1      19.062  -1.890  25.069  0.00  0.00    +0.000 A 
ATOM     25  C   UNL     1      19.621  -1.304  23.954  0.00  0.00    +0.000 A 
ATOM     26  C   UNL     1      19.525   0.074  23.847  0.00  0.00    +0.000 A 
ATOM     27  C   UNL     1      18.893   0.813  24.824  0.00  0.00    +0.000 A 
BRANCH  25  28
ATOM     28  O   UNL     1      20.260  -2.062  22.965  0.00  0.00    +0.000 OA
ATOM     29  C   UNL     1      19.732  -3.318  22.657  0.00  0.00    +0.000 C 
ENDBRANCH  25  28
BRANCH  26  30
ATOM     30  O   UNL     1      20.091   0.649  22.721  0.00  0.00    +0.000 OA
ATOM     31  C   UNL     1      21.453   0.934  22.581  0.00  0.00    +0.000 C 
ENDBRANCH  26  30
ENDBRANCH  21  22
ENDBRANCH  20  21
ENDBRANCH  19  20
ENDBRANCH  10  17
BRANCH   1  33
ATOM     32  C   UNL     1      12.433  -2.742  27.878  0.00  0.00    +0.000 C 
ATOM     33  C   UNL     1      12.922  -2.011  26.658  0.00  0.00    +0.000 C 
ENDBRANCH   1  33
TORSDOF 8
ENDMDL
MODEL 2
REMARK VINA RESULT:      -8.1     22.782     26.765
REMARK  Name = 
REMARK  8 active torsions:
REMARK  status: ('A' for Active; 'I' for Inactive)
REMARK    1  A    between atoms: C_2  and  C_3
REMARK    2  A    between atoms: C_4  and  C_5
REMARK    3  A    between atoms: C_18  and  C_19
REMARK    4  A    between atoms: N_21  and  C_22
REMARK    5  A    between atoms: C_22  and  C_23
REMARK    6  A    between atoms: C_23  and  C_24
REMARK    7  A    between atoms: C_27  and  O_28
REMARK    8  A    between atoms: C_30  and  O_31
REMARK                            x       y       z     vdW  Elec       q    Type
REMARK                         _______ _______ _______ _____ _____    ______ ____
ROOT
ATOM      1  C   UNL     1      38.428   0.360  14.788  0.00  0.00    +0.000 A 
ATOM      2  C   UNL     1      38.459  -1.005  14.719  0.00  0.00    +0.000 A 
ATOM      3  N   UNL     1      37.506  -1.770  15.267  0.00  0.00    +0.000 NA
ATOM      4  C   UNL     1      36.469  -1.225  15.913  0.00  0.00    +0.000 A 
ATOM      5  C   UNL     1      35.475  -1.989  16.484  0.00  0.00    +0.000 A 
ATOM      6  C   UNL     1      34.414  -1.415  17.146  0.00  0.00    +0.000 A 
ATOM      7  C   UNL     1      34.355  -0.042  17.231  0.00  0.00    +0.000 A 
ATOM      8  C   UNL     1      35.343   0.727  16.663  0.00  0.00    +0.000 A 
ATOM      9  C   UNL     1      36.404   0.165  16.002  0.00  0.00    +0.000 A 
ATOM     10  C   UNL     1      37.366   0.968  15.450  0.00  0.00    +0.000 A 
ENDROOT
BRANCH   2  11
ATOM     11  C   UNL     1      39.558  -1.675  14.054  0.00  0.00    +0.000 A 
ATOM     12  C   UNL     1      40.808  -1.871  14.570  0.00  0.00    +0.000 A 
ATOM     13  C   UNL     1      41.830  -2.511  13.914  0.00  0.00    +0.000 A 
ATOM     14  C   UNL     1      41.562  -2.989  12.634  0.00  0.00    +0.000 A 
ATOM     15  C   UNL     1      40.326  -2.816  12.074  0.00  0.00    +0.000 A 
ATOM     16  C   UNL     1      39.340  -2.172  12.765  0.00  0.00    +0.000 A 
ENDBRANCH   2  11
BRANCH  10  17
ATOM     17  C   UNL     1      37.329   2.402  15.526  0.00  0.00    +0.000 C 
ATOM     18  O   UNL     1      36.743   3.025  14.592  0.00  0.00    +0.000 OA
ATOM     19  N   UNL     1      37.902   3.165  16.567  0.00  0.00    +0.000 NA
BRANCH  19  20
ATOM     20  C   UNL     1      37.795   4.612  16.524  0.00  0.00    +0.000 C 
BRANCH  20  21
ATOM     21  C   UNL     1      39.111   5.186  17.031  0.00  0.00    +0.000 C 
BRANCH  21  22
ATOM     22  C   UNL     1      38.878   6.244  18.046  0.00  0.00    +0.000 A 
ATOM     23  C   UNL     1      39.546   6.253  19.253  0.00  0.00    +0.000 A 
ATOM     24  C   UNL     1      39.320   7.240  20.187  0.00  0.00    +0.000 A 
ATOM     25  C   UNL     1      38.422   8.260  19.963  0.00  0.00    +0.000 A 
ATOM     26  C   UNL     1      37.748   8.256  18.752  0.00  0.00    +0.000 A 
ATOM     27  C   UNL     1      37.979   7.265  17.821  0.00  0.00    +0.000 A 
BRANCH  25  28
ATOM     28  O   UNL     1      38.193   9.264  20.913  0.00  0.00    +0.000 OA
ATOM     29  C   UNL     1      39.164  10.256  21.066  0.00  0.00    +0.000 C 
ENDBRANCH  25  28
BRANCH  26  30
ATOM     30  O   UNL     1      36.848   9.287  18.541  0.00  0.00    +0.000 OA
ATOM     31  C   UNL     1      36.174   9.513  17.336  0.00  0.00    +0.000 C 
ENDBRANCH  26  30
ENDBRANCH  21  22
ENDBRANCH  20  21
ENDBRANCH  19  20
ENDBRANCH  10  17
BRANCH   1  33
ATOM     32  C   UNL     1      39.220   1.441  12.704  0.00  0.00    +0.000 C 
ATOM     33  C   UNL     1      39.479   1.247  14.173  0.00  0.00    +0.000 C 
ENDBRANCH   1  33
TORSDOF 8
ENDMDL
MODEL 3
REMARK VINA RESULT:      -8.0     22.874     27.297
REMARK  Name = 
REMARK  8 active torsions:
REMARK  status: ('A' for Active; 'I' for Inactive)
REMARK    1  A    between atoms: C_2  and  C_3
REMARK    2  A    between atoms: C_4  and  C_5
REMARK    3  A    between atoms: C_18  and  C_19
REMARK    4  A    between atoms: N_21  and  C_22
REMARK    5  A    between atoms: C_22  and  C_23
REMARK    6  A    between atoms: C_23  and  C_24
REMARK    7  A    between atoms: C_27  and  O_28
REMARK    8  A    between atoms: C_30  and  O_31
REMARK                            x       y       z     vdW  Elec       q    Type
REMARK                         _______ _______ _______ _____ _____    ______ ____
ROOT
ATOM      1  C   UNL     1      38.479   0.613  14.707  0.00  0.00    +0.000 A 
ATOM      2  C   UNL     1      38.477  -0.754  14.665  0.00  0.00    +0.000 A 
ATOM      3  N   UNL     1      37.522  -1.485  15.253  0.00  0.00    +0.000 NA
ATOM      4  C   UNL     1      36.517  -0.904  15.917  0.00  0.00    +0.000 A 
ATOM      5  C   UNL     1      35.522  -1.634  16.530  0.00  0.00    +0.000 A 
ATOM      6  C   UNL     1      34.493  -1.022  17.210  0.00  0.00    +0.000 A 
ATOM      7  C   UNL     1      34.468   0.353  17.270  0.00  0.00    +0.000 A 
ATOM      8  C   UNL     1      35.457   1.088  16.659  0.00  0.00    +0.000 A 
ATOM      9  C   UNL     1      36.486   0.489  15.981  0.00  0.00    +0.000 A 
ATOM     10  C   UNL     1      37.450   1.258  15.387  0.00  0.00    +0.000 A 
ENDROOT
BRANCH   2  11
ATOM     11  C   UNL     1      39.541  -1.461  13.983  0.00  0.00    +0.000 A 
ATOM     12  C   UNL     1      39.467  -2.009  12.732  0.00  0.00    +0.000 A 
ATOM     13  C   UNL     1      40.494  -2.674  12.111  0.00  0.00    +0.000 A 
ATOM     14  C   UNL     1      41.691  -2.793  12.814  0.00  0.00    +0.000 A 
ATOM     15  C   UNL     1      41.814  -2.261  14.068  0.00  0.00    +0.000 A 
ATOM     16  C   UNL     1      40.764  -1.608  14.646  0.00  0.00    +0.000 A 
ENDBRANCH   2  11
BRANCH  10  17
ATOM     17  C   UNL     1      37.449   2.694  15.436  0.00  0.00    +0.000 C 
ATOM     18  O   UNL     1      36.813   3.312  14.530  0.00  0.00    +0.000 OA
ATOM     19  N   UNL     1      38.105   3.464  16.419  0.00  0.00    +0.000 NA
BRANCH  19  20
ATOM     20  C   UNL     1      38.026   4.911  16.353  0.00  0.00    +0.000 C 
BRANCH  20  21
ATOM     21  C   UNL     1      39.412   5.434  16.000  0.00  0.00    +0.000 C 
BRANCH  21  22
ATOM     22  C   UNL     1      40.097   5.988  17.195  0.00  0.00    +0.000 A 
ATOM     23  C   UNL     1      41.463   6.176  17.229  0.00  0.00    +0.000 A 
ATOM     24  C   UNL     1      42.087   6.690  18.344  0.00  0.00    +0.000 A 
ATOM     25  C   UNL     1      41.380   7.040  19.474  0.00  0.00    +0.000 A 
ATOM     26  C   UNL     1      40.007   6.853  19.446  0.00  0.00    +0.000 A 
ATOM     27  C   UNL     1      39.390   6.338  18.326  0.00  0.00    +0.000 A 
BRANCH  25  28
ATOM     28  O   UNL     1      42.015   7.564  20.608  0.00  0.00    +0.000 OA
ATOM     29  C   UNL     1      42.507   8.869  20.540  0.00  0.00    +0.000 C 
ENDBRANCH  25  28
BRANCH  26  30
ATOM     30  O   UNL     1      39.311   7.208  20.590  0.00  0.00    +0.000 OA
ATOM     31  C   UNL     1      38.549   8.373  20.719  0.00  0.00    +0.000 C 
ENDBRANCH  26  30
ENDBRANCH  21  22
ENDBRANCH  20  21
ENDBRANCH  19  20
ENDBRANCH  10  17
BRANCH   1  33
ATOM     32  C   UNL     1      39.219   1.663  12.589  0.00  0.00    +0.000 C 
ATOM     33  C   UNL     1      39.532   1.463  14.046  0.00  0.00    +0.000 C 
ENDBRANCH   1  33
TORSDOF 8
ENDMDL
MODEL 4
REMARK VINA RESULT:      -7.8     22.806     27.050
REMARK  Name = 
REMARK  8 active torsions:
REMARK  status: ('A' for Active; 'I' for Inactive)
REMARK    1  A    between atoms: C_2  and  C_3
REMARK    2  A    between atoms: C_4  and  C_5
REMARK    3  A    between atoms: C_18  and  C_19
REMARK    4  A    between atoms: N_21  and  C_22
REMARK    5  A    between atoms: C_22  and  C_23
REMARK    6  A    between atoms: C_23  and  C_24
REMARK    7  A    between atoms: C_27  and  O_28
REMARK    8  A    between atoms: C_30  and  O_31
REMARK                            x       y       z     vdW  Elec       q    Type
REMARK                         _______ _______ _______ _____ _____    ______ ____
ROOT
ATOM      1  C   UNL     1      37.606   0.510  15.271  0.00  0.00    +0.000 A 
ATOM      2  C   UNL     1      37.500  -0.823  15.555  0.00  0.00    +0.000 A 
ATOM      3  N   UNL     1      38.523  -1.672  15.391  0.00  0.00    +0.000 NA
ATOM      4  C   UNL     1      39.707  -1.248  14.935  0.00  0.00    +0.000 A 
ATOM      5  C   UNL     1      40.774  -2.100  14.758  0.00  0.00    +0.000 A 
ATOM      6  C   UNL     1      41.987  -1.649  14.287  0.00  0.00    +0.000 A 
ATOM      7  C   UNL     1      42.123  -0.311  13.991  0.00  0.00    +0.000 A 
ATOM      8  C   UNL     1      41.062   0.546  14.167  0.00  0.00    +0.000 A 
ATOM      9  C   UNL     1      39.851   0.107  14.634  0.00  0.00    +0.000 A 
ATOM     10  C   UNL     1      38.820   0.993  14.794  0.00  0.00    +0.000 A 
ENDROOT
BRANCH   2  11
ATOM     11  C   UNL     1      36.247  -1.367  16.036  0.00  0.00    +0.000 A 
ATOM     12  C   UNL     1      35.506  -0.877  17.075  0.00  0.00    +0.000 A 
ATOM     13  C   UNL     1      34.319  -1.415  17.507  0.00  0.00    +0.000 A 
ATOM     14  C   UNL     1      33.847  -2.538  16.833  0.00  0.00    +0.000 A 
ATOM     15  C   UNL     1      34.553  -3.065  15.786  0.00  0.00    +0.000 A 
ATOM     16  C   UNL     1      35.730  -2.496  15.392  0.00  0.00    +0.000 A 
ENDBRANCH   2  11
BRANCH  10  17
ATOM     17  C   UNL     1      38.935   2.394  14.492  0.00  0.00    +0.000 C 
ATOM     18  O   UNL     1      38.768   2.750  13.288  0.00  0.00    +0.000 OA
ATOM     19  N   UNL     1      39.222   3.398  15.440  0.00  0.00    +0.000 NA
BRANCH  19  20
ATOM     20  C   UNL     1      39.313   4.778  15.003  0.00  0.00    +0.000 C 
BRANCH  20  21
ATOM     21  C   UNL     1      38.551   5.632  16.009  0.00  0.00    +0.000 C 
BRANCH  21  22
ATOM     22  C   UNL     1      39.428   6.045  17.134  0.00  0.00    +0.000 A 
ATOM     23  C   UNL     1      40.803   6.028  17.029  0.00  0.00    +0.000 A 
ATOM     24  C   UNL     1      41.605   6.412  18.080  0.00  0.00    +0.000 A 
ATOM     25  C   UNL     1      41.076   6.831  19.282  0.00  0.00    +0.000 A 
ATOM     26  C   UNL     1      39.695   6.850  19.393  0.00  0.00    +0.000 A 
ATOM     27  C   UNL     1      38.898   6.463  18.336  0.00  0.00    +0.000 A 
BRANCH  25  28
ATOM     28  O   UNL     1      41.892   7.222  20.350  0.00  0.00    +0.000 OA
ATOM     29  C   UNL     1      43.170   6.665  20.439  0.00  0.00    +0.000 C 
ENDBRANCH  25  28
BRANCH  26  30
ATOM     30  O   UNL     1      39.177   7.272  20.607  0.00  0.00    +0.000 OA
ATOM     31  C   UNL     1      38.484   8.471  20.795  0.00  0.00    +0.000 C 
ENDBRANCH  26  30
ENDBRANCH  21  22
ENDBRANCH  20  21
ENDBRANCH  19  20
ENDBRANCH  10  17
BRANCH   1  33
ATOM     32  C   UNL     1      35.608   1.541  14.229  0.00  0.00    +0.000 C 
ATOM     33  C   UNL     1      36.477   1.491  15.456  0.00  0.00    +0.000 C 
ENDBRANCH   1  33
TORSDOF 8
ENDMDL
MODEL 5
REMARK VINA RESULT:      -7.8     24.813     27.798
REMARK  Name = 
REMARK  8 active torsions:
REMARK  status: ('A' for Active; 'I' for Inactive)
REMARK    1  A    between atoms: C_2  and  C_3
REMARK    2  A    between atoms: C_4  and  C_5
REMARK    3  A    between atoms: C_18  and  C_19
REMARK    4  A    between atoms: N_21  and  C_22
REMARK    5  A    between atoms: C_22  and  C_23
REMARK    6  A    between atoms: C_23  and  C_24
REMARK    7  A    between atoms: C_27  and  O_28
REMARK    8  A    between atoms: C_30  and  O_31
REMARK                            x       y       z     vdW  Elec       q    Type
REMARK                         _______ _______ _______ _____ _____    ______ ____
ROOT
ATOM      1  C   UNL     1      38.248  -0.838  14.762  0.00  0.00    +0.000 A 
ATOM      2  C   UNL     1      38.614  -2.152  14.852  0.00  0.00    +0.000 A 
ATOM      3  N   UNL     1      39.877  -2.556  14.664  0.00  0.00    +0.000 NA
ATOM      4  C   UNL     1      40.847  -1.682  14.377  0.00  0.00    +0.000 A 
ATOM      5  C   UNL     1      42.153  -2.072  14.180  0.00  0.00    +0.000 A 
ATOM      6  C   UNL     1      43.142  -1.161  13.884  0.00  0.00    +0.000 A 
ATOM      7  C   UNL     1      42.804   0.170  13.787  0.00  0.00    +0.000 A 
ATOM      8  C   UNL     1      41.502   0.567  13.984  0.00  0.00    +0.000 A 
ATOM      9  C   UNL     1      40.511  -0.332  14.277  0.00  0.00    +0.000 A 
ATOM     10  C   UNL     1      39.227   0.105  14.465  0.00  0.00    +0.000 A 
ENDROOT
BRANCH   2  11
ATOM     11  C   UNL     1      37.620  -3.165  15.141  0.00  0.00    +0.000 A 
ATOM     12  C   UNL     1      36.595  -3.541  14.318  0.00  0.00    +0.000 A 
ATOM     13  C   UNL     1      35.668  -4.507  14.620  0.00  0.00    +0.000 A 
ATOM     14  C   UNL     1      35.789  -5.141  15.854  0.00  0.00    +0.000 A 
ATOM     15  C   UNL     1      36.799  -4.800  16.712  0.00  0.00    +0.000 A 
ATOM     16  C   UNL     1      37.698  -3.832  16.368  0.00  0.00    +0.000 A 
ENDBRANCH   2  11
BRANCH  10  17
ATOM     17  C   UNL     1      38.847   1.488  14.368  0.00  0.00    +0.000 C 
ATOM     18  O   UNL     1      38.432   1.906  13.247  0.00  0.00    +0.000 OA
ATOM     19  N   UNL     1      38.906   2.412  15.433  0.00  0.00    +0.000 NA
BRANCH  19  20
ATOM     20  C   UNL     1      38.493   3.784  15.202  0.00  0.00    +0.000 C 
BRANCH  20  21
ATOM     21  C   UNL     1      37.969   4.336  16.521  0.00  0.00    +0.000 C 
BRANCH  21  22
ATOM     22  C   UNL     1      39.020   5.102  17.237  0.00  0.00    +0.000 A 
ATOM     23  C   UNL     1      38.998   5.261  18.607  0.00  0.00    +0.000 A 
ATOM     24  C   UNL     1      39.978   5.975  19.260  0.00  0.00    +0.000 A 
ATOM     25  C   UNL     1      41.024   6.561  18.579  0.00  0.00    +0.000 A 
ATOM     26  C   UNL     1      41.051   6.405  17.203  0.00  0.00    +0.000 A 
ATOM     27  C   UNL     1      40.065   5.689  16.557  0.00  0.00    +0.000 A 
BRANCH  25  28
ATOM     28  O   UNL     1      42.021   7.286  19.244  0.00  0.00    +0.000 OA
ATOM     29  C   UNL     1      41.702   8.562  19.715  0.00  0.00    +0.000 C 
ENDBRANCH  25  28
BRANCH  26  30
ATOM     30  O   UNL     1      42.107   7.000  16.533  0.00  0.00    +0.000 OA
ATOM     31  C   UNL     1      42.649   6.526  15.335  0.00  0.00    +0.000 C 
ENDBRANCH  26  30
ENDBRANCH  21  22
ENDBRANCH  20  21
ENDBRANCH  19  20
ENDBRANCH  10  17
BRANCH   1  33
ATOM     32  C   UNL     1      36.550  -0.191  16.445  0.00  0.00    +0.000 C 
ATOM     33  C   UNL     1      36.839  -0.351  14.979  0.00  0.00    +0.000 C 
ENDBRANCH   1  33
TORSDOF 8
ENDMDL
MODEL 6
REMARK VINA RESULT:      -7.6     23.224     28.373
REMARK  Name = 
REMARK  8 active torsions:
REMARK  status: ('A' for Active; 'I' for Inactive)
REMARK    1  A    between atoms: C_2  and  C_3
REMARK    2  A    between atoms: C_4  and  C_5
REMARK    3  A    between atoms: C_18  and  C_19
REMARK    4  A    between atoms: N_21  and  C_22
REMARK    5  A    between atoms: C_22  and  C_23
REMARK    6  A    between atoms: C_23  and  C_24
REMARK    7  A    between atoms: C_27  and  O_28
REMARK    8  A    between atoms: C_30  and  O_31
REMARK                            x       y       z     vdW  Elec       q    Type
REMARK                         _______ _______ _______ _____ _____    ______ ____
ROOT
ATOM      1  C   UNL     1      40.852   6.229  18.386  0.00  0.00    +0.000 A 
ATOM      2  C   UNL     1      42.148   6.648  18.505  0.00  0.00    +0.000 A 
ATOM      3  N   UNL     1      42.955   6.781  17.445  0.00  0.00    +0.000 NA
ATOM      4  C   UNL     1      42.525   6.507  16.209  0.00  0.00    +0.000 A 
ATOM      5  C   UNL     1      43.336   6.636  15.103  0.00  0.00    +0.000 A 
ATOM      6  C   UNL     1      42.879   6.350  13.836  0.00  0.00    +0.000 A 
ATOM      7  C   UNL     1      41.578   5.926  13.685  0.00  0.00    +0.000 A 
ATOM      8  C   UNL     1      40.763   5.795  14.784  0.00  0.00    +0.000 A 
ATOM      9  C   UNL     1      41.208   6.077  16.049  0.00  0.00    +0.000 A 
ATOM     10  C   UNL     1      40.363   5.934  17.117  0.00  0.00    +0.000 A 
ENDROOT
BRANCH   2  11
ATOM     11  C   UNL     1      42.698   6.948  19.811  0.00  0.00    +0.000 A 
ATOM     12  C   UNL     1      43.006   6.034  20.780  0.00  0.00    +0.000 A 
ATOM     13  C   UNL     1      43.528   6.349  22.010  0.00  0.00    +0.000 A 
ATOM     14  C   UNL     1      43.754   7.697  22.278  0.00  0.00    +0.000 A 
ATOM     15  C   UNL     1      43.461   8.649  21.340  0.00  0.00    +0.000 A 
ATOM     16  C   UNL     1      42.943   8.288  20.129  0.00  0.00    +0.000 A 
ENDBRANCH   2  11
BRANCH  10  17
ATOM     17  C   UNL     1      39.002   5.492  16.987  0.00  0.00    +0.000 C 
ATOM     18  O   UNL     1      38.104   6.379  16.882  0.00  0.00    +0.000 OA
ATOM     19  N   UNL     1      38.596   4.140  16.969  0.00  0.00    +0.000 NA
BRANCH  19  20
ATOM     20  C   UNL     1      37.186   3.828  16.832  0.00  0.00    +0.000 C 
BRANCH  20  21
ATOM     21  C   UNL     1      37.020   2.980  15.578  0.00  0.00    +0.000 C 
BRANCH  21  22
ATOM     22  C   UNL     1      36.607   1.594  15.918  0.00  0.00    +0.000 A 
ATOM     23  C   UNL     1      35.415   1.327  16.556  0.00  0.00    +0.000 A 
ATOM     24  C   UNL     1      35.043   0.038  16.867  0.00  0.00    +0.000 A 
ATOM     25  C   UNL     1      35.842  -1.042  16.557  0.00  0.00    +0.000 A 
ATOM     26  C   UNL     1      37.042  -0.779  15.916  0.00  0.00    +0.000 A 
ATOM     27  C   UNL     1      37.406   0.515  15.608  0.00  0.00    +0.000 A 
BRANCH  25  28
ATOM     28  O   UNL     1      35.464  -2.353  16.873  0.00  0.00    +0.000 OA
ATOM     29  C   UNL     1      34.610  -3.021  15.992  0.00  0.00    +0.000 C 
ENDBRANCH  25  28
BRANCH  26  30
ATOM     30  O   UNL     1      37.834  -1.874  15.612  0.00  0.00    +0.000 OA
ATOM     31  C   UNL     1      38.984  -2.237  16.320  0.00  0.00    +0.000 C 
ENDBRANCH  26  30
ENDBRANCH  21  22
ENDBRANCH  20  21
ENDBRANCH  19  20
ENDBRANCH  10  17
BRANCH   1  33
ATOM     32  C   UNL     1      39.367   7.417  19.974  0.00  0.00    +0.000 C 
ATOM     33  C   UNL     1      39.916   6.080  19.557  0.00  0.00    +0.000 C 
ENDBRANCH   1  33
TORSDOF 8
ENDMDL
MODEL 7
REMARK VINA RESULT:      -7.6     20.672     24.296
REMARK  Name = 
REMARK  8 active torsions:
REMARK  status: ('A' for Active; 'I' for Inactive)
REMARK    1  A    between atoms: C_2  and  C_3
REMARK    2  A    between atoms: C_4  and  C_5
REMARK    3  A    between atoms: C_18  and  C_19
REMARK    4  A    between atoms: N_21  and  C_22
REMARK    5  A    between atoms: C_22  and  C_23
REMARK    6  A    between atoms: C_23  and  C_24
REMARK    7  A    between atoms: C_27  and  O_28
REMARK    8  A    between atoms: C_30  and  O_31
REMARK                            x       y       z     vdW  Elec       q    Type
REMARK                         _______ _______ _______ _____ _____    ______ ____
ROOT
ATOM      1  C   UNL     1      28.120  15.595  36.216  0.00  0.00    +0.000 A 
ATOM      2  C   UNL     1      28.143  15.687  34.852  0.00  0.00    +0.000 A 
ATOM      3  N   UNL     1      29.281  15.865  34.169  0.00  0.00    +0.000 NA
ATOM      4  C   UNL     1      30.457  15.964  34.797  0.00  0.00    +0.000 A 
ATOM      5  C   UNL     1      31.641  16.147  34.117  0.00  0.00    +0.000 A 
ATOM      6  C   UNL     1      32.845  16.247  34.778  0.00  0.00    +0.000 A 
ATOM      7  C   UNL     1      32.852  16.159  36.152  0.00  0.00    +0.000 A 
ATOM      8  C   UNL     1      31.674  15.975  36.837  0.00  0.00    +0.000 A 
ATOM      9  C   UNL     1      30.471  15.875  36.189  0.00  0.00    +0.000 A 
ATOM     10  C   UNL     1      29.321  15.692  36.910  0.00  0.00    +0.000 A 
ENDROOT
BRANCH   2  11
ATOM     11  C   UNL     1      26.910  15.609  34.096  0.00  0.00    +0.000 A 
ATOM     12  C   UNL     1      26.276  14.460  33.713  0.00  0.00    +0.000 A 
ATOM     13  C   UNL     1      25.106  14.418  32.996  0.00  0.00    +0.000 A 
ATOM     14  C   UNL     1      24.535  15.637  32.641  0.00  0.00    +0.000 A 
ATOM     15  C   UNL     1      25.132  16.814  33.002  0.00  0.00    +0.000 A 
ATOM     16  C   UNL     1      26.296  16.806  33.715  0.00  0.00    +0.000 A 
ENDBRANCH   2  11
BRANCH  10  17
ATOM     17  C   UNL     1      29.301  15.598  38.344  0.00  0.00    +0.000 C 
ATOM     18  O   UNL     1      29.068  16.658  38.998  0.00  0.00    +0.000 OA
ATOM     19  N   UNL     1      29.523  14.411  39.073  0.00  0.00    +0.000 NA
BRANCH  19  20
ATOM     20  C   UNL     1      29.476  14.452  40.523  0.00  0.00    +0.000 C 
BRANCH  20  21
ATOM     21  C   UNL     1      30.084  13.155  41.041  0.00  0.00    +0.000 C 
BRANCH  21  22
ATOM     22  C   UNL     1      29.087  12.055  41.032  0.00  0.00    +0.000 A 
ATOM     23  C   UNL     1      29.407  10.788  40.589  0.00  0.00    +0.000 A 
ATOM     24  C   UNL     1      28.473   9.776  40.585  0.00  0.00    +0.000 A 
ATOM     25  C   UNL     1      27.181   9.978  41.020  0.00  0.00    +0.000 A 
ATOM     26  C   UNL     1      26.854  11.249  41.466  0.00  0.00    +0.000 A 
ATOM     27  C   UNL     1      27.795  12.257  41.467  0.00  0.00    +0.000 A 
BRANCH  25  28
ATOM     28  O   UNL     1      26.232   8.948  41.016  0.00  0.00    +0.000 OA
ATOM     29  C   UNL     1      26.394   7.903  41.928  0.00  0.00    +0.000 C 
ENDBRANCH  25  28
BRANCH  26  30
ATOM     30  O   UNL     1      25.552  11.437  41.899  0.00  0.00    +0.000 OA
ATOM     31  C   UNL     1      25.143  11.342  43.233  0.00  0.00    +0.000 C 
ENDBRANCH  26  30
ENDBRANCH  21  22
ENDBRANCH  20  21
ENDBRANCH  19  20
ENDBRANCH  10  17
BRANCH   1  33
ATOM     32  C   UNL     1      26.133  16.684  37.219  0.00  0.00    +0.000 C 
ATOM     33  C   UNL     1      26.858  15.383  37.012  0.00  0.00    +0.000 C 
ENDBRANCH   1  33
TORSDOF 8
ENDMDL
MODEL 8
REMARK VINA RESULT:      -7.6     23.050     26.448
REMARK  Name = 
REMARK  8 active torsions:
REMARK  status: ('A' for Active; 'I' for Inactive)
REMARK    1  A    between atoms: C_2  and  C_3
REMARK    2  A    between atoms: C_4  and  C_5
REMARK    3  A    between atoms: C_18  and  C_19
REMARK    4  A    between atoms: N_21  and  C_22
REMARK    5  A    between atoms: C_22  and  C_23
REMARK    6  A    between atoms: C_23  and  C_24
REMARK    7  A    between atoms: C_27  and  O_28
REMARK    8  A    between atoms: C_30  and  O_31
REMARK                            x       y       z     vdW  Elec       q    Type
REMARK                         _______ _______ _______ _____ _____    ______ ____
ROOT
ATOM      1  C   UNL     1      37.724   2.656  14.825  0.00  0.00    +0.000 A 
ATOM      2  C   UNL     1      37.442   3.301  15.997  0.00  0.00    +0.000 A 
ATOM      3  N   UNL     1      36.730   2.726  16.975  0.00  0.00    +0.000 NA
ATOM      4  C   UNL     1      36.256   1.482  16.846  0.00  0.00    +0.000 A 
ATOM      5  C   UNL     1      35.522   0.869  17.836  0.00  0.00    +0.000 A 
ATOM      6  C   UNL     1      35.041  -0.413  17.690  0.00  0.00    +0.000 A 
ATOM      7  C   UNL     1      35.309  -1.088  16.520  0.00  0.00    +0.000 A 
ATOM      8  C   UNL     1      36.042  -0.482  15.526  0.00  0.00    +0.000 A 
ATOM      9  C   UNL     1      36.525   0.793  15.663  0.00  0.00    +0.000 A 
ATOM     10  C   UNL     1      37.251   1.359  14.650  0.00  0.00    +0.000 A 
ENDROOT
BRANCH   2  11
ATOM     11  C   UNL     1      37.902   4.658  16.209  0.00  0.00    +0.000 A 
ATOM     12  C   UNL     1      37.483   5.763  15.521  0.00  0.00    +0.000 A 
ATOM     13  C   UNL     1      37.938   7.038  15.746  0.00  0.00    +0.000 A 
ATOM     14  C   UNL     1      38.891   7.206  16.746  0.00  0.00    +0.000 A 
ATOM     15  C   UNL     1      39.341   6.131  17.462  0.00  0.00    +0.000 A 
ATOM     16  C   UNL     1      38.860   4.879  17.203  0.00  0.00    +0.000 A 
ENDBRANCH   2  11
BRANCH  10  17
ATOM     17  C   UNL     1      37.544   0.678  13.418  0.00  0.00    +0.000 C 
ATOM     18  O   UNL     1      36.705   0.783  12.475  0.00  0.00    +0.000 OA
ATOM     19  N   UNL     1      38.698  -0.101  13.187  0.00  0.00    +0.000 NA
BRANCH  19  20
ATOM     20  C   UNL     1      38.873  -0.739  11.896  0.00  0.00    +0.000 C 
BRANCH  20  21
ATOM     21  C   UNL     1      39.375  -2.155  12.146  0.00  0.00    +0.000 C 
BRANCH  21  22
ATOM     22  C   UNL     1      38.948  -2.648  13.480  0.00  0.00    +0.000 A 
ATOM     23  C   UNL     1      39.706  -2.430  14.612  0.00  0.00    +0.000 A 
ATOM     24  C   UNL     1      39.301  -2.893  15.844  0.00  0.00    +0.000 A 
ATOM     25  C   UNL     1      38.124  -3.592  16.005  0.00  0.00    +0.000 A 
ATOM     26  C   UNL     1      37.359  -3.814  14.871  0.00  0.00    +0.000 A 
ATOM     27  C   UNL     1      37.772  -3.347  13.641  0.00  0.00    +0.000 A 
BRANCH  25  28
ATOM     28  O   UNL     1      37.712  -4.062  17.258  0.00  0.00    +0.000 OA
ATOM     29  C   UNL     1      38.492  -3.737  18.370  0.00  0.00    +0.000 C 
ENDBRANCH  25  28
BRANCH  26  30
ATOM     30  O   UNL     1      36.179  -4.518  15.049  0.00  0.00    +0.000 OA
ATOM     31  C   UNL     1      34.922  -4.071  14.631  0.00  0.00    +0.000 C 
ENDBRANCH  26  30
ENDBRANCH  21  22
ENDBRANCH  20  21
ENDBRANCH  19  20
ENDBRANCH  10  17
BRANCH   1  33
ATOM     32  C   UNL     1      40.003   3.168  14.002  0.00  0.00    +0.000 C 
ATOM     33  C   UNL     1      38.532   3.271  13.712  0.00  0.00    +0.000 C 
ENDBRANCH   1  33
TORSDOF 8
ENDMDL
MODEL 9
REMARK VINA RESULT:      -7.6     23.447     26.972
REMARK  Name = 
REMARK  8 active torsions:
REMARK  status: ('A' for Active; 'I' for Inactive)
REMARK    1  A    between atoms: C_2  and  C_3
REMARK    2  A    between atoms: C_4  and  C_5
REMARK    3  A    between atoms: C_18  and  C_19
REMARK    4  A    between atoms: N_21  and  C_22
REMARK    5  A    between atoms: C_22  and  C_23
REMARK    6  A    between atoms: C_23  and  C_24
REMARK    7  A    between atoms: C_27  and  O_28
REMARK    8  A    between atoms: C_30  and  O_31
REMARK                            x       y       z     vdW  Elec       q    Type
REMARK                         _______ _______ _______ _____ _____    ______ ____
ROOT
ATOM      1  C   UNL     1      37.278   4.774  15.254  0.00  0.00    +0.000 A 
ATOM      2  C   UNL     1      36.140   4.112  14.886  0.00  0.00    +0.000 A 
ATOM      3  N   UNL     1      35.180   4.696  14.157  0.00  0.00    +0.000 NA
ATOM      4  C   UNL     1      35.292   5.966  13.755  0.00  0.00    +0.000 A 
ATOM      5  C   UNL     1      34.319   6.589  13.005  0.00  0.00    +0.000 A 
ATOM      6  C   UNL     1      34.449   7.897  12.597  0.00  0.00    +0.000 A 
ATOM      7  C   UNL     1      35.585   8.589  12.954  0.00  0.00    +0.000 A 
ATOM      8  C   UNL     1      36.561   7.974  13.702  0.00  0.00    +0.000 A 
ATOM      9  C   UNL     1      36.441   6.672  14.113  0.00  0.00    +0.000 A 
ATOM     10  C   UNL     1      37.436   6.097  14.856  0.00  0.00    +0.000 A 
ENDROOT
BRANCH   2  11
ATOM     11  C   UNL     1      35.931   2.739  15.297  0.00  0.00    +0.000 A 
ATOM     12  C   UNL     1      36.462   1.633  14.696  0.00  0.00    +0.000 A 
ATOM     13  C   UNL     1      36.246   0.342  15.110  0.00  0.00    +0.000 A 
ATOM     14  C   UNL     1      35.427   0.160  16.222  0.00  0.00    +0.000 A 
ATOM     15  C   UNL     1      34.872   1.237  16.858  0.00  0.00    +0.000 A 
ATOM     16  C   UNL     1      35.115   2.503  16.409  0.00  0.00    +0.000 A 
ENDBRANCH   2  11
BRANCH  10  17
ATOM     17  C   UNL     1      38.631   6.797  15.242  0.00  0.00    +0.000 C 
ATOM     18  O   UNL     1      38.558   7.578  16.237  0.00  0.00    +0.000 OA
ATOM     19  N   UNL     1      39.878   6.676  14.592  0.00  0.00    +0.000 NA
BRANCH  19  20
ATOM     20  C   UNL     1      41.008   7.441  15.083  0.00  0.00    +0.000 C 
BRANCH  20  21
ATOM     21  C   UNL     1      42.062   6.451  15.561  0.00  0.00    +0.000 C 
BRANCH  21  22
ATOM     22  C   UNL     1      42.268   6.554  17.028  0.00  0.00    +0.000 A 
ATOM     23  C   UNL     1      43.518   6.752  17.575  0.00  0.00    +0.000 A 
ATOM     24  C   UNL     1      43.697   6.844  18.938  0.00  0.00    +0.000 A 
ATOM     25  C   UNL     1      42.639   6.745  19.816  0.00  0.00    +0.000 A 
ATOM     26  C   UNL     1      41.380   6.546  19.272  0.00  0.00    +0.000 A 
ATOM     27  C   UNL     1      41.210   6.454  17.907  0.00  0.00    +0.000 A 
BRANCH  25  28
ATOM     28  O   UNL     1      42.821   6.839  21.201  0.00  0.00    +0.000 OA
ATOM     29  C   UNL     1      43.803   7.712  21.677  0.00  0.00    +0.000 C 
ENDBRANCH  25  28
BRANCH  26  30
ATOM     30  O   UNL     1      40.328   6.447  20.167  0.00  0.00    +0.000 OA
ATOM     31  C   UNL     1      39.272   7.359  20.247  0.00  0.00    +0.000 C 
ENDBRANCH  26  30
ENDBRANCH  21  22
ENDBRANCH  20  21
ENDBRANCH  19  20
ENDBRANCH  10  17
BRANCH   1  33
ATOM     32  C   UNL     1      38.163   4.371  17.533  0.00  0.00    +0.000 C 
ATOM     33  C   UNL     1      38.381   4.142  16.063  0.00  0.00    +0.000 C 
ENDBRANCH   1  33
TORSDOF 8
ENDMDL
MODEL 10
REMARK VINA RESULT:      -7.6     23.688     27.602
REMARK  Name = 
REMARK  8 active torsions:
REMARK  status: ('A' for Active; 'I' for Inactive)
REMARK    1  A    between atoms: C_2  and  C_3
REMARK    2  A    between atoms: C_4  and  C_5
REMARK    3  A    between atoms: C_18  and  C_19
REMARK    4  A    between atoms: N_21  and  C_22
REMARK    5  A    between atoms: C_22  and  C_23
REMARK    6  A    between atoms: C_23  and  C_24
REMARK    7  A    between atoms: C_27  and  O_28
REMARK    8  A    between atoms: C_30  and  O_31
REMARK                            x       y       z     vdW  Elec       q    Type
REMARK                         _______ _______ _______ _____ _____    ______ ____
ROOT
ATOM      1  C   UNL     1      38.065  -0.930  14.880  0.00  0.00    +0.000 A 
ATOM      2  C   UNL     1      37.339  -1.369  15.953  0.00  0.00    +0.000 A 
ATOM      3  N   UNL     1      36.346  -0.646  16.486  0.00  0.00    +0.000 NA
ATOM      4  C   UNL     1      36.016   0.550  15.988  0.00  0.00    +0.000 A 
ATOM      5  C   UNL     1      34.998   1.312  16.518  0.00  0.00    +0.000 A 
ATOM      6  C   UNL     1      34.670   2.543  15.995  0.00  0.00    +0.000 A 
ATOM      7  C   UNL     1      35.383   3.011  14.915  0.00  0.00    +0.000 A 
ATOM      8  C   UNL     1      36.400   2.255  14.379  0.00  0.00    +0.000 A 
ATOM      9  C   UNL     1      36.735   1.030  14.893  0.00  0.00    +0.000 A 
ATOM     10  C   UNL     1      37.754   0.310  14.330  0.00  0.00    +0.000 A 
ENDROOT
BRANCH   2  11
ATOM     11  C   UNL     1      37.645  -2.646  16.564  0.00  0.00    +0.000 A 
ATOM     12  C   UNL     1      38.467  -2.845  17.638  0.00  0.00    +0.000 A 
ATOM     13  C   UNL     1      38.737  -4.069  18.195  0.00  0.00    +0.000 A 
ATOM     14  C   UNL     1      38.125  -5.179  17.619  0.00  0.00    +0.000 A 
ATOM     15  C   UNL     1      37.293  -5.031  16.542  0.00  0.00    +0.000 A 
ATOM     16  C   UNL     1      37.055  -3.792  16.021  0.00  0.00    +0.000 A 
ENDBRANCH   2  11
BRANCH  10  17
ATOM     17  C   UNL     1      38.515   0.776  13.204  0.00  0.00    +0.000 C 
ATOM     18  O   UNL     1      39.511   1.524  13.436  0.00  0.00    +0.000 OA
ATOM     19  N   UNL     1      38.231   0.461  11.858  0.00  0.00    +0.000 NA
BRANCH  19  20
ATOM     20  C   UNL     1      39.079   0.999  10.811  0.00  0.00    +0.000 C 
BRANCH  20  21
ATOM     21  C   UNL     1      39.573  -0.171   9.971  0.00  0.00    +0.000 C 
BRANCH  21  22
ATOM     22  C   UNL     1      40.577  -0.976  10.712  0.00  0.00    +0.000 A 
ATOM     23  C   UNL     1      40.469  -2.346  10.827  0.00  0.00    +0.000 A 
ATOM     24  C   UNL     1      41.406  -3.082  11.517  0.00  0.00    +0.000 A 
ATOM     25  C   UNL     1      42.493  -2.488  12.123  0.00  0.00    +0.000 A 
ATOM     26  C   UNL     1      42.607  -1.112  12.010  0.00  0.00    +0.000 A 
ATOM     27  C   UNL     1      41.664  -0.382  11.317  0.00  0.00    +0.000 A 
BRANCH  25  28
ATOM     28  O   UNL     1      43.446  -3.237  12.824  0.00  0.00    +0.000 OA
ATOM     29  C   UNL     1      44.439  -3.889  12.089  0.00  0.00    +0.000 C 
ENDBRANCH  25  28
BRANCH  26  30
ATOM     30  O   UNL     1      43.703  -0.529  12.624  0.00  0.00    +0.000 OA
ATOM     31  C   UNL     1      43.653   0.159  13.840  0.00  0.00    +0.000 C 
ENDBRANCH  26  30
ENDBRANCH  21  22
ENDBRANCH  20  21
ENDBRANCH  19  20
ENDBRANCH  10  17
BRANCH   1  33
ATOM     32  C   UNL     1      40.474  -1.496  14.981  0.00  0.00    +0.000 C 
ATOM     33  C   UNL     1      39.180  -1.724  14.251  0.00  0.00    +0.000 C 
ENDBRANCH   1  33
TORSDOF 8
ENDMDL
