MODEL 1
REMARK VINA RESULT:      -7.1      0.000      0.000
REMARK  Name = 
REMARK  2 active torsions:
REMARK  status: ('A' for Active; 'I' for Inactive)
REMARK    1  A    between atoms: C_6  and  C_7
REMARK    2  A    between atoms: C_7  and  C_8
REMARK                            x       y       z     vdW  Elec       q    Type
REMARK                         _______ _______ _______ _____ _____    ______ ____
ROOT
ATOM      1  C   UNL     1      30.395  22.497  10.792  0.00  0.00    +0.000 C 
ATOM      2  C   UNL     1      31.944  22.424  11.354  0.00  0.00    +0.000 C 
ATOM      3  C   UNL     1      32.803  22.708  10.187  0.00  0.00    +0.000 C 
ATOM      4  C   UNL     1      32.379  21.986   8.931  0.00  0.00    +0.000 A 
ATOM      5  S   UNL     1      33.059  21.895   7.363  0.00  0.00    +0.000 S 
ATOM      6  C   UNL     1      31.936  20.849   6.622  0.00  0.00    +0.000 A 
ATOM      7  C   UNL     1      31.795  20.284   5.338  0.00  0.00    +0.000 A 
ATOM      8  C   UNL     1      30.753  19.442   5.027  0.00  0.00    +0.000 A 
ATOM      9  C   UNL     1      29.871  19.201   6.058  0.00  0.00    +0.000 A 
ATOM     10  C   UNL     1      29.988  19.732   7.293  0.00  0.00    +0.000 A 
ATOM     11  C   UNL     1      31.050  20.595   7.622  0.00  0.00    +0.000 A 
ATOM     12  C   UNL     1      31.275  21.189   8.840  0.00  0.00    +0.000 A 
ATOM     13  C   UNL     1      30.484  21.092  10.109  0.00  0.00    +0.000 C 
ATOM     14  O   UNL     1      30.003  20.070  10.509  0.00  0.00    +0.000 OA
ENDROOT
BRANCH   1  15
ATOM     15  C   UNL     1      29.736  22.028  12.199  0.00  0.00    +0.000 C 
BRANCH  15  21
ATOM     16  C   UNL     1      28.686  24.251  14.067  0.00  0.00    +0.000 C 
ATOM     17  C   UNL     1      27.874  23.631  12.962  0.00  0.00    +0.000 A 
ATOM     18  N   UNL     1      26.606  23.921  12.606  0.00  0.00    +0.000 NA
ATOM     19  C   UNL     1      26.322  23.120  11.584  0.00  0.00    +0.000 A 
ATOM     20  N   UNL     1      27.415  22.344  11.317  0.00  0.00    +0.000 NA
ATOM     21  C   UNL     1      28.379  22.636  12.144  0.00  0.00    +0.000 A 
ENDBRANCH  15  21
ENDBRANCH   1  15
TORSDOF 2
ENDMDL
MODEL 2
REMARK VINA RESULT:      -6.7     14.462     17.551
REMARK  Name = 
REMARK  2 active torsions:
REMARK  status: ('A' for Active; 'I' for Inactive)
REMARK    1  A    between atoms: C_6  and  C_7
REMARK    2  A    between atoms: C_7  and  C_8
REMARK                            x       y       z     vdW  Elec       q    Type
REMARK                         _______ _______ _______ _____ _____    ______ ____
ROOT
ATOM      1  C   UNL     1      29.446  23.539  28.165  0.00  0.00    +0.000 C 
ATOM      2  C   UNL     1      30.837  22.684  27.940  0.00  0.00    +0.000 C 
ATOM      3  C   UNL     1      31.422  23.199  26.686  0.00  0.00    +0.000 C 
ATOM      4  C   UNL     1      30.414  23.382  25.577  0.00  0.00    +0.000 A 
ATOM      5  S   UNL     1      30.568  23.853  23.939  0.00  0.00    +0.000 S 
ATOM      6  C   UNL     1      28.937  23.757  23.456  0.00  0.00    +0.000 A 
ATOM      7  C   UNL     1      28.238  23.984  22.253  0.00  0.00    +0.000 A 
ATOM      8  C   UNL     1      26.876  23.811  22.163  0.00  0.00    +0.000 A 
ATOM      9  C   UNL     1      26.261  23.405  23.328  0.00  0.00    +0.000 A 
ATOM     10  C   UNL     1      26.913  23.183  24.489  0.00  0.00    +0.000 A 
ATOM     11  C   UNL     1      28.306  23.357  24.592  0.00  0.00    +0.000 A 
ATOM     12  C   UNL     1      29.075  23.157  25.713  0.00  0.00    +0.000 A 
ATOM     13  C   UNL     1      28.664  22.719  27.085  0.00  0.00    +0.000 C 
ATOM     14  O   UNL     1      27.851  21.863  27.288  0.00  0.00    +0.000 OA
ENDROOT
BRANCH   1  15
ATOM     15  C   UNL     1      28.994  22.689  29.471  0.00  0.00    +0.000 C 
BRANCH  15  21
ATOM     16  C   UNL     1      26.286  21.596  30.475  0.00  0.00    +0.000 C 
ATOM     17  C   UNL     1      26.656  23.055  30.484  0.00  0.00    +0.000 A 
ATOM     18  N   UNL     1      25.911  24.094  30.911  0.00  0.00    +0.000 NA
ATOM     19  C   UNL     1      26.655  25.179  30.722  0.00  0.00    +0.000 A 
ATOM     20  N   UNL     1      27.853  24.802  30.182  0.00  0.00    +0.000 NA
ATOM     21  C   UNL     1      27.881  23.507  30.025  0.00  0.00    +0.000 A 
ENDBRANCH  15  21
ENDBRANCH   1  15
TORSDOF 2
ENDMDL
MODEL 3
REMARK VINA RESULT:      -6.7      1.381      1.971
REMARK  Name = 
REMARK  2 active torsions:
REMARK  status: ('A' for Active; 'I' for Inactive)
REMARK    1  A    between atoms: C_6  and  C_7
REMARK    2  A    between atoms: C_7  and  C_8
REMARK                            x       y       z     vdW  Elec       q    Type
REMARK                         _______ _______ _______ _____ _____    ______ ____
ROOT
ATOM      1  C   UNL     1      30.597  22.482  10.793  0.00  0.00    +0.000 C 
ATOM      2  C   UNL     1      31.984  21.957  11.513  0.00  0.00    +0.000 C 
ATOM      3  C   UNL     1      33.086  22.589  10.760  0.00  0.00    +0.000 C 
ATOM      4  C   UNL     1      32.902  22.543   9.262  0.00  0.00    +0.000 A 
ATOM      5  S   UNL     1      33.894  23.037   7.958  0.00  0.00    +0.000 S 
ATOM      6  C   UNL     1      32.902  22.581   6.651  0.00  0.00    +0.000 A 
ATOM      7  C   UNL     1      33.009  22.646   5.247  0.00  0.00    +0.000 A 
ATOM      8  C   UNL     1      32.014  22.176   4.422  0.00  0.00    +0.000 A 
ATOM      9  C   UNL     1      30.920  21.644   5.070  0.00  0.00    +0.000 A 
ATOM     10  C   UNL     1      30.799  21.573   6.413  0.00  0.00    +0.000 A 
ATOM     11  C   UNL     1      31.811  22.051   7.267  0.00  0.00    +0.000 A 
ATOM     12  C   UNL     1      31.802  22.027   8.641  0.00  0.00    +0.000 A 
ATOM     13  C   UNL     1      30.755  21.509   9.578  0.00  0.00    +0.000 C 
ATOM     14  O   UNL     1      30.147  20.494   9.390  0.00  0.00    +0.000 OA
ENDROOT
BRANCH   1  15
ATOM     15  C   UNL     1      29.629  21.554  11.707  0.00  0.00    +0.000 C 
BRANCH  15  21
ATOM     16  C   UNL     1      26.705  22.472  11.326  0.00  0.00    +0.000 C 
ATOM     17  C   UNL     1      27.612  22.989  12.411  0.00  0.00    +0.000 A 
ATOM     18  N   UNL     1      27.324  23.898  13.363  0.00  0.00    +0.000 NA
ATOM     19  C   UNL     1      28.432  24.031  14.087  0.00  0.00    +0.000 A 
ATOM     20  N   UNL     1      29.392  23.203  13.576  0.00  0.00    +0.000 NA
ATOM     21  C   UNL     1      28.918  22.553  12.550  0.00  0.00    +0.000 A 
ENDBRANCH  15  21
ENDBRANCH   1  15
TORSDOF 2
ENDMDL
MODEL 4
REMARK VINA RESULT:      -6.6     32.426     34.028
REMARK  Name = 
REMARK  2 active torsions:
REMARK  status: ('A' for Active; 'I' for Inactive)
REMARK    1  A    between atoms: C_6  and  C_7
REMARK    2  A    between atoms: C_7  and  C_8
REMARK                            x       y       z     vdW  Elec       q    Type
REMARK                         _______ _______ _______ _____ _____    ______ ____
ROOT
ATOM      1  C   UNL     1      33.210  -1.307  34.638  0.00  0.00    +0.000 C 
ATOM      2  C   UNL     1      34.572  -1.673  35.491  0.00  0.00    +0.000 C 
ATOM      3  C   UNL     1      34.616  -0.703  36.604  0.00  0.00    +0.000 C 
ATOM      4  C   UNL     1      34.295   0.712  36.188  0.00  0.00    +0.000 A 
ATOM      5  S   UNL     1      34.291   2.196  37.041  0.00  0.00    +0.000 S 
ATOM      6  C   UNL     1      33.836   3.251  35.783  0.00  0.00    +0.000 A 
ATOM      7  C   UNL     1      33.618   4.639  35.675  0.00  0.00    +0.000 A 
ATOM      8  C   UNL     1      33.253   5.225  34.485  0.00  0.00    +0.000 A 
ATOM      9  C   UNL     1      33.119   4.356  33.423  0.00  0.00    +0.000 A 
ATOM     10  C   UNL     1      33.323   3.024  33.507  0.00  0.00    +0.000 A 
ATOM     11  C   UNL     1      33.697   2.414  34.720  0.00  0.00    +0.000 A 
ATOM     12  C   UNL     1      33.936   1.077  34.924  0.00  0.00    +0.000 A 
ATOM     13  C   UNL     1      33.866  -0.062  33.953  0.00  0.00    +0.000 C 
ATOM     14  O   UNL     1      34.264   0.007  32.826  0.00  0.00    +0.000 OA
ENDROOT
BRANCH   1  15
ATOM     15  C   UNL     1      33.505  -2.395  33.470  0.00  0.00    +0.000 C 
BRANCH  15  21
ATOM     16  C   UNL     1      34.306  -5.272  32.686  0.00  0.00    +0.000 C 
ATOM     17  C   UNL     1      33.241  -4.944  33.699  0.00  0.00    +0.000 A 
ATOM     18  N   UNL     1      32.486  -5.804  34.411  0.00  0.00    +0.000 NA
ATOM     19  C   UNL     1      31.694  -5.052  35.169  0.00  0.00    +0.000 A 
ATOM     20  N   UNL     1      31.967  -3.736  34.920  0.00  0.00    +0.000 NA
ATOM     21  C   UNL     1      32.910  -3.641  34.025  0.00  0.00    +0.000 A 
ENDBRANCH  15  21
ENDBRANCH   1  15
TORSDOF 2
ENDMDL
MODEL 5
REMARK VINA RESULT:      -6.4     13.372     17.926
REMARK  Name = 
REMARK  2 active torsions:
REMARK  status: ('A' for Active; 'I' for Inactive)
REMARK    1  A    between atoms: C_6  and  C_7
REMARK    2  A    between atoms: C_7  and  C_8
REMARK                            x       y       z     vdW  Elec       q    Type
REMARK                         _______ _______ _______ _____ _____    ______ ____
ROOT
ATOM      1  C   UNL     1      26.426  24.810  24.574  0.00  0.00    +0.000 C 
ATOM      2  C   UNL     1      24.852  25.284  24.451  0.00  0.00    +0.000 C 
ATOM      3  C   UNL     1      24.573  26.057  25.677  0.00  0.00    +0.000 C 
ATOM      4  C   UNL     1      25.114  25.418  26.934  0.00  0.00    +0.000 A 
ATOM      5  S   UNL     1      24.997  25.838  28.589  0.00  0.00    +0.000 S 
ATOM      6  C   UNL     1      25.876  24.550  29.276  0.00  0.00    +0.000 A 
ATOM      7  C   UNL     1      26.228  24.170  30.587  0.00  0.00    +0.000 A 
ATOM      8  C   UNL     1      26.963  23.036  30.840  0.00  0.00    +0.000 A 
ATOM      9  C   UNL     1      27.322  22.312  29.723  0.00  0.00    +0.000 A 
ATOM     10  C   UNL     1      26.995  22.659  28.460  0.00  0.00    +0.000 A 
ATOM     11  C   UNL     1      26.242  23.818  28.190  0.00  0.00    +0.000 A 
ATOM     12  C   UNL     1      25.846  24.267  26.954  0.00  0.00    +0.000 A 
ATOM     13  C   UNL     1      26.096  23.676  25.600  0.00  0.00    +0.000 C 
ATOM     14  O   UNL     1      26.042  22.500  25.375  0.00  0.00    +0.000 OA
ENDROOT
BRANCH   1  15
ATOM     15  C   UNL     1      26.387  23.915  23.221  0.00  0.00    +0.000 C 
BRANCH  15  21
ATOM     16  C   UNL     1      29.241  22.883  23.791  0.00  0.00    +0.000 C 
ATOM     17  C   UNL     1      28.914  23.905  22.736  0.00  0.00    +0.000 A 
ATOM     18  N   UNL     1      29.765  24.522  21.891  0.00  0.00    +0.000 NA
ATOM     19  C   UNL     1      29.018  25.333  21.149  0.00  0.00    +0.000 A 
ATOM     20  N   UNL     1      27.715  25.211  21.540  0.00  0.00    +0.000 NA
ATOM     21  C   UNL     1      27.622  24.344  22.509  0.00  0.00    +0.000 A 
ENDBRANCH  15  21
ENDBRANCH   1  15
TORSDOF 2
ENDMDL
MODEL 6
REMARK VINA RESULT:      -6.3     13.712     17.014
REMARK  Name = 
REMARK  2 active torsions:
REMARK  status: ('A' for Active; 'I' for Inactive)
REMARK    1  A    between atoms: C_6  and  C_7
REMARK    2  A    between atoms: C_7  and  C_8
REMARK                            x       y       z     vdW  Elec       q    Type
REMARK                         _______ _______ _______ _____ _____    ______ ____
ROOT
ATOM      1  C   UNL     1      27.366  23.868  27.100  0.00  0.00    +0.000 C 
ATOM      2  C   UNL     1      28.075  22.383  27.203  0.00  0.00    +0.000 C 
ATOM      3  C   UNL     1      29.379  22.517  26.525  0.00  0.00    +0.000 C 
ATOM      4  C   UNL     1      29.310  23.275  25.221  0.00  0.00    +0.000 A 
ATOM      5  S   UNL     1      30.481  23.631  24.025  0.00  0.00    +0.000 S 
ATOM      6  C   UNL     1      29.512  24.491  22.919  0.00  0.00    +0.000 A 
ATOM      7  C   UNL     1      29.733  25.114  21.673  0.00  0.00    +0.000 A 
ATOM      8  C   UNL     1      28.720  25.746  20.990  0.00  0.00    +0.000 A 
ATOM      9  C   UNL     1      27.491  25.721  21.614  0.00  0.00    +0.000 A 
ATOM     10  C   UNL     1      27.260  25.131  22.805  0.00  0.00    +0.000 A 
ATOM     11  C   UNL     1      28.289  24.481  23.513  0.00  0.00    +0.000 A 
ATOM     12  C   UNL     1      28.173  23.844  24.725  0.00  0.00    +0.000 A 
ATOM     13  C   UNL     1      26.969  23.671  25.599  0.00  0.00    +0.000 C 
ATOM     14  O   UNL     1      25.877  23.420  25.175  0.00  0.00    +0.000 OA
ENDROOT
BRANCH   1  15
ATOM     15  C   UNL     1      25.972  23.381  27.773  0.00  0.00    +0.000 C 
BRANCH  15  21
ATOM     16  C   UNL     1      26.413  21.841  30.413  0.00  0.00    +0.000 C 
ATOM     17  C   UNL     1      26.228  23.333  30.333  0.00  0.00    +0.000 A 
ATOM     18  N   UNL     1      26.224  24.220  31.348  0.00  0.00    +0.000 NA
ATOM     19  C   UNL     1      26.028  25.411  30.790  0.00  0.00    +0.000 A 
ATOM     20  N   UNL     1      25.914  25.250  29.438  0.00  0.00    +0.000 NA
ATOM     21  C   UNL     1      26.033  23.988  29.130  0.00  0.00    +0.000 A 
ENDBRANCH  15  21
ENDBRANCH   1  15
TORSDOF 2
ENDMDL
MODEL 7
REMARK VINA RESULT:      -6.3     30.758     33.603
REMARK  Name = 
REMARK  2 active torsions:
REMARK  status: ('A' for Active; 'I' for Inactive)
REMARK    1  A    between atoms: C_6  and  C_7
REMARK    2  A    between atoms: C_7  and  C_8
REMARK                            x       y       z     vdW  Elec       q    Type
REMARK                         _______ _______ _______ _____ _____    ______ ____
ROOT
ATOM      1  C   UNL     1      18.017  10.437  37.340  0.00  0.00    +0.000 C 
ATOM      2  C   UNL     1      18.866  11.703  37.968  0.00  0.00    +0.000 C 
ATOM      3  C   UNL     1      20.153  11.135  38.417  0.00  0.00    +0.000 C 
ATOM      4  C   UNL     1      20.013   9.827  39.158  0.00  0.00    +0.000 A 
ATOM      5  S   UNL     1      21.146   8.817  39.948  0.00  0.00    +0.000 S 
ATOM      6  C   UNL     1      20.101   7.595  40.513  0.00  0.00    +0.000 A 
ATOM      7  C   UNL     1      20.263   6.410  41.257  0.00  0.00    +0.000 A 
ATOM      8  C   UNL     1      19.195   5.603  41.576  0.00  0.00    +0.000 A 
ATOM      9  C   UNL     1      17.973   6.043  41.115  0.00  0.00    +0.000 A 
ATOM     10  C   UNL     1      17.798   7.175  40.400  0.00  0.00    +0.000 A 
ATOM     11  C   UNL     1      18.884   8.008  40.068  0.00  0.00    +0.000 A 
ATOM     12  C   UNL     1      18.828   9.180  39.355  0.00  0.00    +0.000 A 
ATOM     13  C   UNL     1      17.644   9.873  38.751  0.00  0.00    +0.000 C 
ATOM     14  O   UNL     1      16.583   9.962  39.299  0.00  0.00    +0.000 OA
ENDROOT
BRANCH   1  15
ATOM     15  C   UNL     1      16.675  11.311  37.079  0.00  0.00    +0.000 C 
BRANCH  15  21
ATOM     16  C   UNL     1      14.531  12.777  35.409  0.00  0.00    +0.000 C 
ATOM     17  C   UNL     1      15.518  11.798  34.833  0.00  0.00    +0.000 A 
ATOM     18  N   UNL     1      15.639  11.406  33.548  0.00  0.00    +0.000 NA
ATOM     19  C   UNL     1      16.644  10.536  33.525  0.00  0.00    +0.000 A 
ATOM     20  N   UNL     1      17.136  10.399  34.793  0.00  0.00    +0.000 NA
ATOM     21  C   UNL     1      16.466  11.160  35.613  0.00  0.00    +0.000 A 
ENDBRANCH  15  21
ENDBRANCH   1  15
TORSDOF 2
ENDMDL
MODEL 8
REMARK VINA RESULT:      -6.2     32.572     34.240
REMARK  Name = 
REMARK  2 active torsions:
REMARK  status: ('A' for Active; 'I' for Inactive)
REMARK    1  A    between atoms: C_6  and  C_7
REMARK    2  A    between atoms: C_7  and  C_8
REMARK                            x       y       z     vdW  Elec       q    Type
REMARK                         _______ _______ _______ _____ _____    ______ ____
ROOT
ATOM      1  C   UNL     1      34.684  -0.679  35.250  0.00  0.00    +0.000 C 
ATOM      2  C   UNL     1      33.552  -1.088  34.124  0.00  0.00    +0.000 C 
ATOM      3  C   UNL     1      33.606  -0.023  33.102  0.00  0.00    +0.000 C 
ATOM      4  C   UNL     1      33.686   1.369  33.680  0.00  0.00    +0.000 A 
ATOM      5  S   UNL     1      33.683   2.923  32.962  0.00  0.00    +0.000 S 
ATOM      6  C   UNL     1      33.778   3.889  34.363  0.00  0.00    +0.000 A 
ATOM      7  C   UNL     1      33.816   5.274  34.618  0.00  0.00    +0.000 A 
ATOM      8  C   UNL     1      33.889   5.774  35.897  0.00  0.00    +0.000 A 
ATOM      9  C   UNL     1      33.920   4.822  36.894  0.00  0.00    +0.000 A 
ATOM     10  C   UNL     1      33.884   3.491  36.670  0.00  0.00    +0.000 A 
ATOM     11  C   UNL     1      33.811   2.970  35.364  0.00  0.00    +0.000 A 
ATOM     12  C   UNL     1      33.763   1.642  35.015  0.00  0.00    +0.000 A 
ATOM     13  C   UNL     1      33.779   0.425  35.889  0.00  0.00    +0.000 C 
ATOM     14  O   UNL     1      33.174   0.347  36.921  0.00  0.00    +0.000 OA
ENDROOT
BRANCH   1  15
ATOM     15  C   UNL     1      34.302  -1.898  36.251  0.00  0.00    +0.000 C 
BRANCH  15  21
ATOM     16  C   UNL     1      34.208  -4.724  35.009  0.00  0.00    +0.000 C 
ATOM     17  C   UNL     1      35.459  -4.089  35.556  0.00  0.00    +0.000 A 
ATOM     18  N   UNL     1      36.700  -4.613  35.598  0.00  0.00    +0.000 NA
ATOM     19  C   UNL     1      37.467  -3.687  36.165  0.00  0.00    +0.000 A 
ATOM     20  N   UNL     1      36.695  -2.601  36.467  0.00  0.00    +0.000 NA
ATOM     21  C   UNL     1      35.461  -2.819  36.105  0.00  0.00    +0.000 A 
ENDBRANCH  15  21
ENDBRANCH   1  15
TORSDOF 2
ENDMDL
MODEL 9
REMARK VINA RESULT:      -6.1     35.276     36.116
REMARK  Name = 
REMARK  2 active torsions:
REMARK  status: ('A' for Active; 'I' for Inactive)
REMARK    1  A    between atoms: C_6  and  C_7
REMARK    2  A    between atoms: C_7  and  C_8
REMARK                            x       y       z     vdW  Elec       q    Type
REMARK                         _______ _______ _______ _____ _____    ______ ____
ROOT
ATOM      1  C   UNL     1      18.154  -7.388  25.959  0.00  0.00    +0.000 C 
ATOM      2  C   UNL     1      18.606  -5.934  26.590  0.00  0.00    +0.000 C 
ATOM      3  C   UNL     1      19.769  -5.498  25.791  0.00  0.00    +0.000 C 
ATOM      4  C   UNL     1      20.771  -6.596  25.528  0.00  0.00    +0.000 A 
ATOM      5  S   UNL     1      22.296  -6.610  24.752  0.00  0.00    +0.000 S 
ATOM      6  C   UNL     1      22.705  -8.253  24.948  0.00  0.00    +0.000 A 
ATOM      7  C   UNL     1      23.806  -9.056  24.590  0.00  0.00    +0.000 A 
ATOM      8  C   UNL     1      23.858 -10.395  24.901  0.00  0.00    +0.000 A 
ATOM      9  C   UNL     1      22.761 -10.879  25.581  0.00  0.00    +0.000 A 
ATOM     10  C   UNL     1      21.697 -10.126  25.933  0.00  0.00    +0.000 A 
ATOM     11  C   UNL     1      21.634  -8.755  25.619  0.00  0.00    +0.000 A 
ATOM     12  C   UNL     1      20.612  -7.890  25.929  0.00  0.00    +0.000 A 
ATOM     13  C   UNL     1      19.327  -8.155  26.654  0.00  0.00    +0.000 C 
ATOM     14  O   UNL     1      19.250  -8.856  27.622  0.00  0.00    +0.000 OA
ENDROOT
BRANCH   1  15
ATOM     15  C   UNL     1      17.010  -7.653  27.078  0.00  0.00    +0.000 C 
BRANCH  15  21
ATOM     16  C   UNL     1      16.173 -10.568  27.663  0.00  0.00    +0.000 C 
ATOM     17  C   UNL     1      15.586  -9.733  26.556  0.00  0.00    +0.000 A 
ATOM     18  N   UNL     1      14.637 -10.088  25.667  0.00  0.00    +0.000 NA
ATOM     19  C   UNL     1      14.448  -9.025  24.891  0.00  0.00    +0.000 A 
ATOM     20  N   UNL     1      15.280  -8.024  25.307  0.00  0.00    +0.000 NA
ATOM     21  C   UNL     1      15.987  -8.429  26.325  0.00  0.00    +0.000 A 
ENDBRANCH  15  21
ENDBRANCH   1  15
TORSDOF 2
ENDMDL
MODEL 10
REMARK VINA RESULT:      -6.1     29.947     31.514
REMARK  Name = 
REMARK  2 active torsions:
REMARK  status: ('A' for Active; 'I' for Inactive)
REMARK    1  A    between atoms: C_6  and  C_7
REMARK    2  A    between atoms: C_7  and  C_8
REMARK                            x       y       z     vdW  Elec       q    Type
REMARK                         _______ _______ _______ _____ _____    ______ ____
ROOT
ATOM      1  C   UNL     1      34.790   5.754  36.148  0.00  0.00    +0.000 C 
ATOM      2  C   UNL     1      33.772   5.625  37.438  0.00  0.00    +0.000 C 
ATOM      3  C   UNL     1      33.917   4.237  37.921  0.00  0.00    +0.000 C 
ATOM      4  C   UNL     1      33.933   3.209  36.816  0.00  0.00    +0.000 A 
ATOM      5  S   UNL     1      33.989   1.499  36.826  0.00  0.00    +0.000 S 
ATOM      6  C   UNL     1      33.945   1.197  35.150  0.00  0.00    +0.000 A 
ATOM      7  C   UNL     1      33.950   0.041  34.344  0.00  0.00    +0.000 A 
ATOM      8  C   UNL     1      33.898   0.115  32.971  0.00  0.00    +0.000 A 
ATOM      9  C   UNL     1      33.841   1.392  32.457  0.00  0.00    +0.000 A 
ATOM     10  C   UNL     1      33.834   2.511  33.212  0.00  0.00    +0.000 A 
ATOM     11  C   UNL     1      33.888   2.448  34.618  0.00  0.00    +0.000 A 
ATOM     12  C   UNL     1      33.881   3.512  35.487  0.00  0.00    +0.000 A 
ATOM     13  C   UNL     1      33.822   4.980  35.194  0.00  0.00    +0.000 C 
ATOM     14  O   UNL     1      33.123   5.455  34.345  0.00  0.00    +0.000 OA
ENDROOT
BRANCH   1  15
ATOM     15  C   UNL     1      34.321   7.263  35.778  0.00  0.00    +0.000 C 
BRANCH  15  21
ATOM     16  C   UNL     1      34.305  10.344  35.991  0.00  0.00    +0.000 C 
ATOM     17  C   UNL     1      35.435   9.476  36.477  0.00  0.00    +0.000 A 
ATOM     18  N   UNL     1      36.584   9.867  37.063  0.00  0.00    +0.000 NA
ATOM     19  C   UNL     1      37.264   8.752  37.313  0.00  0.00    +0.000 A 
ATOM     20  N   UNL     1      36.530   7.683  36.879  0.00  0.00    +0.000 NA
ATOM     21  C   UNL     1      35.406   8.097  36.364  0.00  0.00    +0.000 A 
ENDBRANCH  15  21
ENDBRANCH   1  15
TORSDOF 2
ENDMDL
