MODEL 1
REMARK VINA RESULT:      -8.3      0.000      0.000
REMARK  Name = 
REMARK  3 active torsions:
REMARK  status: ('A' for Active; 'I' for Inactive)
REMARK    1  A    between atoms: C_5  and  C_6
REMARK    2  A    between atoms: N_8  and  C_9
REMARK    3  A    between atoms: C_13  and  N_14
REMARK                            x       y       z     vdW  Elec       q    Type
REMARK                         _______ _______ _______ _____ _____    ______ ____
ROOT
ATOM      1  C   UNL     1      14.207  11.668  36.757  0.00  0.00    +0.000 C 
ATOM      2  O   UNL     1      12.972  11.625  36.529  0.00  0.00    +0.000 OA
ATOM      3  N   UNL     1      15.019  12.353  35.821  0.00  0.00    +0.000 NA
ENDROOT
BRANCH   1   8
ATOM      4  C   UNL     1      16.430   9.146  41.430  0.00  0.00    +0.000 C 
ATOM      5  C   UNL     1      15.804   9.799  40.241  0.00  0.00    +0.000 A 
ATOM      6  C   UNL     1      14.462  10.067  40.159  0.00  0.00    +0.000 A 
ATOM      7  C   UNL     1      13.967  10.672  39.024  0.00  0.00    +0.000 A 
ATOM      8  C   UNL     1      14.760  11.024  37.957  0.00  0.00    +0.000 A 
ATOM      9  C   UNL     1      16.105  10.750  38.054  0.00  0.00    +0.000 A 
ATOM     10  C   UNL     1      16.617  10.144  39.186  0.00  0.00    +0.000 A 
ATOM     11  C   UNL     1      18.090   9.845  39.284  0.00  0.00    +0.000 C 
ENDBRANCH   1   8
BRANCH   3  12
ATOM     12  C   UNL     1      14.538  12.993  34.647  0.00  0.00    +0.000 A 
ATOM     13  C   UNL     1      13.694  14.082  34.678  0.00  0.00    +0.000 A 
ATOM     14  C   UNL     1      13.291  14.625  33.471  0.00  0.00    +0.000 A 
ATOM     15  C   UNL     1      13.717  14.097  32.271  0.00  0.00    +0.000 A 
ATOM     16  C   UNL     1      14.555  13.015  32.237  0.00  0.00    +0.000 A 
ATOM     17  C   UNL     1      14.969  12.459  33.441  0.00  0.00    +0.000 A 
ATOM     18  C   UNL     1      15.883  11.277  33.413  0.00  0.00    +0.000 C 
BRANCH  16  19
ATOM     19  N   UNL     1      15.026  12.429  31.042  0.00  0.00    +0.000 N 
ATOM     20  O   UNL     1      16.023  12.893  30.480  0.00  0.00    +0.000 OA
ATOM     21  O   UNL     1      14.400  11.353  30.487  0.00  0.00    +0.000 OA
ENDBRANCH  16  19
ENDBRANCH   3  12
TORSDOF 3
ENDMDL
MODEL 2
REMARK VINA RESULT:      -8.1      1.469      2.325
REMARK  Name = 
REMARK  3 active torsions:
REMARK  status: ('A' for Active; 'I' for Inactive)
REMARK    1  A    between atoms: C_5  and  C_6
REMARK    2  A    between atoms: N_8  and  C_9
REMARK    3  A    between atoms: C_13  and  N_14
REMARK                            x       y       z     vdW  Elec       q    Type
REMARK                         _______ _______ _______ _____ _____    ______ ____
ROOT
ATOM      1  C   UNL     1      16.641  11.671  36.477  0.00  0.00    +0.000 C 
ATOM      2  O   UNL     1      17.260  12.730  36.206  0.00  0.00    +0.000 OA
ATOM      3  N   UNL     1      15.443  11.417  35.766  0.00  0.00    +0.000 NA
ENDROOT
BRANCH   1   8
ATOM      4  C   UNL     1      18.634   8.073  40.504  0.00  0.00    +0.000 C 
ATOM      5  C   UNL     1      18.161   8.995  39.428  0.00  0.00    +0.000 A 
ATOM      6  C   UNL     1      18.865   9.217  38.273  0.00  0.00    +0.000 A 
ATOM      7  C   UNL     1      18.355  10.085  37.333  0.00  0.00    +0.000 A 
ATOM      8  C   UNL     1      17.163  10.749  37.496  0.00  0.00    +0.000 A 
ATOM      9  C   UNL     1      16.466  10.517  38.660  0.00  0.00    +0.000 A 
ATOM     10  C   UNL     1      16.964   9.649  39.613  0.00  0.00    +0.000 A 
ATOM     11  C   UNL     1      16.197   9.401  40.885  0.00  0.00    +0.000 C 
ENDBRANCH   1   8
BRANCH   3  12
ATOM     12  C   UNL     1      14.894  12.272  34.772  0.00  0.00    +0.000 A 
ATOM     13  C   UNL     1      14.074  13.339  35.072  0.00  0.00    +0.000 A 
ATOM     14  C   UNL     1      13.598  14.105  34.023  0.00  0.00    +0.000 A 
ATOM     15  C   UNL     1      13.929  13.815  32.717  0.00  0.00    +0.000 A 
ATOM     16  C   UNL     1      14.743  12.756  32.416  0.00  0.00    +0.000 A 
ATOM     17  C   UNL     1      15.230  11.978  33.459  0.00  0.00    +0.000 A 
ATOM     18  C   UNL     1      16.119  10.819  33.140  0.00  0.00    +0.000 C 
BRANCH  16  19
ATOM     19  N   UNL     1      15.119  12.408  31.101  0.00  0.00    +0.000 N 
ATOM     20  O   UNL     1      14.428  11.615  30.453  0.00  0.00    +0.000 OA
ATOM     21  O   UNL     1      16.237  12.930  30.522  0.00  0.00    +0.000 OA
ENDBRANCH  16  19
ENDBRANCH   3  12
TORSDOF 3
ENDMDL
MODEL 3
REMARK VINA RESULT:      -7.4      2.894      7.806
REMARK  Name = 
REMARK  3 active torsions:
REMARK  status: ('A' for Active; 'I' for Inactive)
REMARK    1  A    between atoms: C_5  and  C_6
REMARK    2  A    between atoms: N_8  and  C_9
REMARK    3  A    between atoms: C_13  and  N_14
REMARK                            x       y       z     vdW  Elec       q    Type
REMARK                         _______ _______ _______ _____ _____    ______ ____
ROOT
ATOM      1  C   UNL     1      16.560  10.796  35.416  0.00  0.00    +0.000 C 
ATOM      2  O   UNL     1      16.906   9.618  35.153  0.00  0.00    +0.000 OA
ATOM      3  N   UNL     1      16.912  11.310  36.687  0.00  0.00    +0.000 NA
ENDROOT
BRANCH   1   8
ATOM      4  C   UNL     1      13.637  13.933  31.574  0.00  0.00    +0.000 C 
ATOM      5  C   UNL     1      14.419  13.092  32.530  0.00  0.00    +0.000 A 
ATOM      6  C   UNL     1      15.272  12.099  32.123  0.00  0.00    +0.000 A 
ATOM      7  C   UNL     1      15.954  11.369  33.073  0.00  0.00    +0.000 A 
ATOM      8  C   UNL     1      15.821  11.589  34.423  0.00  0.00    +0.000 A 
ATOM      9  C   UNL     1      14.962  12.589  34.818  0.00  0.00    +0.000 A 
ATOM     10  C   UNL     1      14.270  13.330  33.877  0.00  0.00    +0.000 A 
ATOM     11  C   UNL     1      13.331  14.422  34.316  0.00  0.00    +0.000 C 
ENDBRANCH   1   8
BRANCH   3  12
ATOM     12  C   UNL     1      17.624  10.589  37.684  0.00  0.00    +0.000 A 
ATOM     13  C   UNL     1      18.966  10.291  37.578  0.00  0.00    +0.000 A 
ATOM     14  C   UNL     1      19.557   9.585  38.611  0.00  0.00    +0.000 A 
ATOM     15  C   UNL     1      18.831   9.190  39.714  0.00  0.00    +0.000 A 
ATOM     16  C   UNL     1      17.499   9.484  39.822  0.00  0.00    +0.000 A 
ATOM     17  C   UNL     1      16.891  10.193  38.793  0.00  0.00    +0.000 A 
ATOM     18  C   UNL     1      15.436  10.518  38.902  0.00  0.00    +0.000 C 
BRANCH  16  19
ATOM     19  N   UNL     1      16.702   9.108  40.925  0.00  0.00    +0.000 N 
ATOM     20  O   UNL     1      16.578   9.875  41.885  0.00  0.00    +0.000 OA
ATOM     21  O   UNL     1      16.061   7.905  40.958  0.00  0.00    +0.000 OA
ENDBRANCH  16  19
ENDBRANCH   3  12
TORSDOF 3
ENDMDL
MODEL 4
REMARK VINA RESULT:      -7.1      2.966      7.844
REMARK  Name = 
REMARK  3 active torsions:
REMARK  status: ('A' for Active; 'I' for Inactive)
REMARK    1  A    between atoms: C_5  and  C_6
REMARK    2  A    between atoms: N_8  and  C_9
REMARK    3  A    between atoms: C_13  and  N_14
REMARK                            x       y       z     vdW  Elec       q    Type
REMARK                         _______ _______ _______ _____ _____    ______ ____
ROOT
ATOM      1  C   UNL     1      16.541  10.796  35.567  0.00  0.00    +0.000 C 
ATOM      2  O   UNL     1      16.909   9.628  35.288  0.00  0.00    +0.000 OA
ATOM      3  N   UNL     1      16.877  11.296  36.848  0.00  0.00    +0.000 NA
ENDROOT
BRANCH   1   8
ATOM      4  C   UNL     1      13.642  13.879  31.664  0.00  0.00    +0.000 C 
ATOM      5  C   UNL     1      14.368  13.106  32.717  0.00  0.00    +0.000 A 
ATOM      6  C   UNL     1      14.176  13.312  34.059  0.00  0.00    +0.000 A 
ATOM      7  C   UNL     1      14.889  12.554  34.962  0.00  0.00    +0.000 A 
ATOM      8  C   UNL     1      15.793  11.591  34.582  0.00  0.00    +0.000 A 
ATOM      9  C   UNL     1      15.975  11.394  33.233  0.00  0.00    +0.000 A 
ATOM     10  C   UNL     1      15.268  12.146  32.313  0.00  0.00    +0.000 A 
ATOM     11  C   UNL     1      15.474  11.927  30.837  0.00  0.00    +0.000 C 
ENDBRANCH   1   8
BRANCH   3  12
ATOM     12  C   UNL     1      17.597  10.573  37.837  0.00  0.00    +0.000 A 
ATOM     13  C   UNL     1      18.946  10.307  37.737  0.00  0.00    +0.000 A 
ATOM     14  C   UNL     1      19.544   9.596  38.762  0.00  0.00    +0.000 A 
ATOM     15  C   UNL     1      18.818   9.164  39.852  0.00  0.00    +0.000 A 
ATOM     16  C   UNL     1      17.479   9.427  39.954  0.00  0.00    +0.000 A 
ATOM     17  C   UNL     1      16.864  10.140  38.933  0.00  0.00    +0.000 A 
ATOM     18  C   UNL     1      15.401  10.432  39.035  0.00  0.00    +0.000 C 
BRANCH  16  19
ATOM     19  N   UNL     1      16.682   9.012  41.043  0.00  0.00    +0.000 N 
ATOM     20  O   UNL     1      16.170   7.888  41.038  0.00  0.00    +0.000 OA
ATOM     21  O   UNL     1      16.459   9.831  42.110  0.00  0.00    +0.000 OA
ENDBRANCH  16  19
ENDBRANCH   3  12
TORSDOF 3
ENDMDL
MODEL 5
REMARK VINA RESULT:      -7.1      3.041      7.417
REMARK  Name = 
REMARK  3 active torsions:
REMARK  status: ('A' for Active; 'I' for Inactive)
REMARK    1  A    between atoms: C_5  and  C_6
REMARK    2  A    between atoms: N_8  and  C_9
REMARK    3  A    between atoms: C_13  and  N_14
REMARK                            x       y       z     vdW  Elec       q    Type
REMARK                         _______ _______ _______ _____ _____    ______ ____
ROOT
ATOM      1  C   UNL     1      14.920  12.063  36.300  0.00  0.00    +0.000 C 
ATOM      2  O   UNL     1      14.269  12.544  37.261  0.00  0.00    +0.000 OA
ATOM      3  N   UNL     1      15.892  11.078  36.599  0.00  0.00    +0.000 NA
ENDROOT
BRANCH   1   8
ATOM      4  C   UNL     1      13.946  13.819  30.905  0.00  0.00    +0.000 C 
ATOM      5  C   UNL     1      14.167  13.405  32.323  0.00  0.00    +0.000 A 
ATOM      6  C   UNL     1      13.630  14.078  33.390  0.00  0.00    +0.000 A 
ATOM      7  C   UNL     1      13.886  13.627  34.666  0.00  0.00    +0.000 A 
ATOM      8  C   UNL     1      14.662  12.523  34.928  0.00  0.00    +0.000 A 
ATOM      9  C   UNL     1      15.195  11.856  33.849  0.00  0.00    +0.000 A 
ATOM     10  C   UNL     1      14.947  12.296  32.562  0.00  0.00    +0.000 A 
ATOM     11  C   UNL     1      15.534  11.562  31.385  0.00  0.00    +0.000 C 
ENDBRANCH   1   8
BRANCH   3  12
ATOM     12  C   UNL     1      16.183  10.597  37.905  0.00  0.00    +0.000 A 
ATOM     13  C   UNL     1      15.209  10.372  38.854  0.00  0.00    +0.000 A 
ATOM     14  C   UNL     1      15.608   9.900  40.093  0.00  0.00    +0.000 A 
ATOM     15  C   UNL     1      16.936   9.661  40.373  0.00  0.00    +0.000 A 
ATOM     16  C   UNL     1      17.905   9.883  39.432  0.00  0.00    +0.000 A 
ATOM     17  C   UNL     1      17.520  10.356  38.184  0.00  0.00    +0.000 A 
ATOM     18  C   UNL     1      18.571  10.602  37.150  0.00  0.00    +0.000 C 
BRANCH  16  19
ATOM     19  N   UNL     1      19.280   9.657  39.657  0.00  0.00    +0.000 N 
ATOM     20  O   UNL     1      19.755   8.530  39.484  0.00  0.00    +0.000 OA
ATOM     21  O   UNL     1      20.105  10.662  40.067  0.00  0.00    +0.000 OA
ENDBRANCH  16  19
ENDBRANCH   3  12
TORSDOF 3
ENDMDL
MODEL 6
REMARK VINA RESULT:      -6.9      3.690      7.831
REMARK  Name = 
REMARK  3 active torsions:
REMARK  status: ('A' for Active; 'I' for Inactive)
REMARK    1  A    between atoms: C_5  and  C_6
REMARK    2  A    between atoms: N_8  and  C_9
REMARK    3  A    between atoms: C_13  and  N_14
REMARK                            x       y       z     vdW  Elec       q    Type
REMARK                         _______ _______ _______ _____ _____    ______ ____
ROOT
ATOM      1  C   UNL     1      16.589  11.312  36.019  0.00  0.00    +0.000 C 
ATOM      2  O   UNL     1      16.601  12.336  36.747  0.00  0.00    +0.000 OA
ATOM      3  N   UNL     1      17.031  10.098  36.597  0.00  0.00    +0.000 NA
ENDROOT
BRANCH   1   8
ATOM      4  C   UNL     1      14.744  11.703  30.580  0.00  0.00    +0.000 C 
ATOM      5  C   UNL     1      15.253  11.558  31.977  0.00  0.00    +0.000 A 
ATOM      6  C   UNL     1      16.132  10.575  32.353  0.00  0.00    +0.000 A 
ATOM      7  C   UNL     1      16.550  10.514  33.664  0.00  0.00    +0.000 A 
ATOM      8  C   UNL     1      16.127  11.399  34.627  0.00  0.00    +0.000 A 
ATOM      9  C   UNL     1      15.246  12.382  34.236  0.00  0.00    +0.000 A 
ATOM     10  C   UNL     1      14.816  12.456  32.925  0.00  0.00    +0.000 A 
ATOM     11  C   UNL     1      13.851  13.534  32.504  0.00  0.00    +0.000 C 
ENDBRANCH   1   8
BRANCH   3  12
ATOM     12  C   UNL     1      17.487   9.956  37.936  0.00  0.00    +0.000 A 
ATOM     13  C   UNL     1      16.634   9.914  39.018  0.00  0.00    +0.000 A 
ATOM     14  C   UNL     1      17.189   9.771  40.277  0.00  0.00    +0.000 A 
ATOM     15  C   UNL     1      18.553   9.674  40.450  0.00  0.00    +0.000 A 
ATOM     16  C   UNL     1      19.403   9.715  39.377  0.00  0.00    +0.000 A 
ATOM     17  C   UNL     1      18.860   9.858  38.107  0.00  0.00    +0.000 A 
ATOM     18  C   UNL     1      19.780   9.906  36.930  0.00  0.00    +0.000 C 
BRANCH  16  19
ATOM     19  N   UNL     1      20.807   9.622  39.489  0.00  0.00    +0.000 N 
ATOM     20  O   UNL     1      21.341   8.516  39.628  0.00  0.00    +0.000 OA
ATOM     21  O   UNL     1      21.597  10.732  39.448  0.00  0.00    +0.000 OA
ENDBRANCH  16  19
ENDBRANCH   3  12
TORSDOF 3
ENDMDL
MODEL 7
REMARK VINA RESULT:      -6.8     19.450     20.994
REMARK  Name = 
REMARK  3 active torsions:
REMARK  status: ('A' for Active; 'I' for Inactive)
REMARK    1  A    between atoms: C_5  and  C_6
REMARK    2  A    between atoms: N_8  and  C_9
REMARK    3  A    between atoms: C_13  and  N_14
REMARK                            x       y       z     vdW  Elec       q    Type
REMARK                         _______ _______ _______ _____ _____    ______ ____
ROOT
ATOM      1  C   UNL     1      29.555  23.202  27.331  0.00  0.00    +0.000 C 
ATOM      2  O   UNL     1      28.987  24.313  27.476  0.00  0.00    +0.000 OA
ATOM      3  N   UNL     1      29.352  22.523  26.106  0.00  0.00    +0.000 NA
ENDROOT
BRANCH   1   8
ATOM      4  C   UNL     1      32.793  21.071  31.587  0.00  0.00    +0.000 C 
ATOM      5  C   UNL     1      31.991  21.607  30.446  0.00  0.00    +0.000 A 
ATOM      6  C   UNL     1      32.404  21.529  29.141  0.00  0.00    +0.000 A 
ATOM      7  C   UNL     1      31.602  22.051  28.151  0.00  0.00    +0.000 A 
ATOM      8  C   UNL     1      30.392  22.653  28.407  0.00  0.00    +0.000 A 
ATOM      9  C   UNL     1      29.989  22.724  29.721  0.00  0.00    +0.000 A 
ATOM     10  C   UNL     1      30.783  22.205  30.726  0.00  0.00    +0.000 A 
ATOM     11  C   UNL     1      30.336  22.287  32.162  0.00  0.00    +0.000 C 
ENDBRANCH   1   8
BRANCH   3  12
ATOM     12  C   UNL     1      28.554  23.006  25.033  0.00  0.00    +0.000 A 
ATOM     13  C   UNL     1      27.185  22.847  24.987  0.00  0.00    +0.000 A 
ATOM     14  C   UNL     1      26.509  23.361  23.894  0.00  0.00    +0.000 A 
ATOM     15  C   UNL     1      27.179  24.012  22.881  0.00  0.00    +0.000 A 
ATOM     16  C   UNL     1      28.538  24.172  22.924  0.00  0.00    +0.000 A 
ATOM     17  C   UNL     1      29.230  23.662  24.015  0.00  0.00    +0.000 A 
ATOM     18  C   UNL     1      30.715  23.830  24.071  0.00  0.00    +0.000 C 
BRANCH  16  19
ATOM     19  N   UNL     1      29.280  24.828  21.919  0.00  0.00    +0.000 N 
ATOM     20  O   UNL     1      29.697  24.191  20.946  0.00  0.00    +0.000 OA
ATOM     21  O   UNL     1      29.552  26.162  21.996  0.00  0.00    +0.000 OA
ENDBRANCH  16  19
ENDBRANCH   3  12
TORSDOF 3
ENDMDL
MODEL 8
REMARK VINA RESULT:      -6.8      3.716      5.373
REMARK  Name = 
REMARK  3 active torsions:
REMARK  status: ('A' for Active; 'I' for Inactive)
REMARK    1  A    between atoms: C_5  and  C_6
REMARK    2  A    between atoms: N_8  and  C_9
REMARK    3  A    between atoms: C_13  and  N_14
REMARK                            x       y       z     vdW  Elec       q    Type
REMARK                         _______ _______ _______ _____ _____    ______ ____
ROOT
ATOM      1  C   UNL     1      19.326  10.840  37.536  0.00  0.00    +0.000 C 
ATOM      2  O   UNL     1      19.118  12.049  37.808  0.00  0.00    +0.000 OA
ATOM      3  N   UNL     1      18.266  10.115  36.940  0.00  0.00    +0.000 NA
ENDROOT
BRANCH   1   8
ATOM      4  C   UNL     1      24.446   8.452  38.645  0.00  0.00    +0.000 C 
ATOM      5  C   UNL     1      23.103   9.063  38.410  0.00  0.00    +0.000 A 
ATOM      6  C   UNL     1      22.150   9.170  39.389  0.00  0.00    +0.000 A 
ATOM      7  C   UNL     1      20.936   9.747  39.085  0.00  0.00    +0.000 A 
ATOM      8  C   UNL     1      20.629  10.228  37.835  0.00  0.00    +0.000 A 
ATOM      9  C   UNL     1      21.595  10.116  36.861  0.00  0.00    +0.000 A 
ATOM     10  C   UNL     1      22.817   9.539  37.150  0.00  0.00    +0.000 A 
ATOM     11  C   UNL     1      23.870   9.418  36.079  0.00  0.00    +0.000 C 
ENDBRANCH   1   8
BRANCH   3  12
ATOM     12  C   UNL     1      16.989  10.655  36.630  0.00  0.00    +0.000 A 
ATOM     13  C   UNL     1      16.094  11.065  37.595  0.00  0.00    +0.000 A 
ATOM     14  C   UNL     1      14.879  11.578  37.177  0.00  0.00    +0.000 A 
ATOM     15  C   UNL     1      14.567  11.676  35.838  0.00  0.00    +0.000 A 
ATOM     16  C   UNL     1      15.453  11.270  34.878  0.00  0.00    +0.000 A 
ATOM     17  C   UNL     1      16.678  10.753  35.282  0.00  0.00    +0.000 A 
ATOM     18  C   UNL     1      17.652  10.306  34.240  0.00  0.00    +0.000 C 
BRANCH  16  19
ATOM     19  N   UNL     1      15.193  11.345  33.492  0.00  0.00    +0.000 N 
ATOM     20  O   UNL     1      15.316  12.423  32.900  0.00  0.00    +0.000 OA
ATOM     21  O   UNL     1      14.805  10.247  32.783  0.00  0.00    +0.000 OA
ENDBRANCH  16  19
ENDBRANCH   3  12
TORSDOF 3
ENDMDL
MODEL 9
REMARK VINA RESULT:      -6.6      3.805      7.790
REMARK  Name = 
REMARK  3 active torsions:
REMARK  status: ('A' for Active; 'I' for Inactive)
REMARK    1  A    between atoms: C_5  and  C_6
REMARK    2  A    between atoms: N_8  and  C_9
REMARK    3  A    between atoms: C_13  and  N_14
REMARK                            x       y       z     vdW  Elec       q    Type
REMARK                         _______ _______ _______ _____ _____    ______ ____
ROOT
ATOM      1  C   UNL     1      17.044  11.023  35.578  0.00  0.00    +0.000 C 
ATOM      2  O   UNL     1      17.776  10.059  35.241  0.00  0.00    +0.000 OA
ATOM      3  N   UNL     1      17.118  11.457  36.924  0.00  0.00    +0.000 NA
ENDROOT
BRANCH   1   8
ATOM      4  C   UNL     1      13.601  13.481  31.673  0.00  0.00    +0.000 C 
ATOM      5  C   UNL     1      14.467  12.869  32.726  0.00  0.00    +0.000 A 
ATOM      6  C   UNL     1      14.305  13.122  34.064  0.00  0.00    +0.000 A 
ATOM      7  C   UNL     1      15.149  12.514  34.968  0.00  0.00    +0.000 A 
ATOM      8  C   UNL     1      16.157  11.658  34.593  0.00  0.00    +0.000 A 
ATOM      9  C   UNL     1      16.308  11.413  33.247  0.00  0.00    +0.000 A 
ATOM     10  C   UNL     1      15.469  12.015  32.328  0.00  0.00    +0.000 A 
ATOM     11  C   UNL     1      15.641  11.743  30.856  0.00  0.00    +0.000 C 
ENDBRANCH   1   8
BRANCH   3  12
ATOM     12  C   UNL     1      17.956  10.882  37.916  0.00  0.00    +0.000 A 
ATOM     13  C   UNL     1      17.706   9.652  38.487  0.00  0.00    +0.000 A 
ATOM     14  C   UNL     1      18.593   9.188  39.443  0.00  0.00    +0.000 A 
ATOM     15  C   UNL     1      19.692   9.930  39.818  0.00  0.00    +0.000 A 
ATOM     16  C   UNL     1      19.943  11.151  39.253  0.00  0.00    +0.000 A 
ATOM     17  C   UNL     1      19.062  11.630  38.291  0.00  0.00    +0.000 A 
ATOM     18  C   UNL     1      19.327  12.963  37.670  0.00  0.00    +0.000 C 
BRANCH  16  19
ATOM     19  N   UNL     1      21.050  11.958  39.594  0.00  0.00    +0.000 N 
ATOM     20  O   UNL     1      22.122  11.817  38.995  0.00  0.00    +0.000 OA
ATOM     21  O   UNL     1      20.967  12.897  40.579  0.00  0.00    +0.000 OA
ENDBRANCH  16  19
ENDBRANCH   3  12
TORSDOF 3
ENDMDL
MODEL 10
REMARK VINA RESULT:      -6.4     19.039     20.657
REMARK  Name = 
REMARK  3 active torsions:
REMARK  status: ('A' for Active; 'I' for Inactive)
REMARK    1  A    between atoms: C_5  and  C_6
REMARK    2  A    between atoms: N_8  and  C_9
REMARK    3  A    between atoms: C_13  and  N_14
REMARK                            x       y       z     vdW  Elec       q    Type
REMARK                         _______ _______ _______ _____ _____    ______ ____
ROOT
ATOM      1  C   UNL     1      30.232  23.426  27.009  0.00  0.00    +0.000 C 
ATOM      2  O   UNL     1      30.074  24.670  26.940  0.00  0.00    +0.000 OA
ATOM      3  N   UNL     1      29.855  22.658  25.881  0.00  0.00    +0.000 NA
ENDROOT
BRANCH   1   8
ATOM      4  C   UNL     1      32.366  21.067  31.807  0.00  0.00    +0.000 C 
ATOM      5  C   UNL     1      31.855  21.658  30.534  0.00  0.00    +0.000 A 
ATOM      6  C   UNL     1      32.494  21.506  29.331  0.00  0.00    +0.000 A 
ATOM      7  C   UNL     1      31.953  22.086  28.205  0.00  0.00    +0.000 A 
ATOM      8  C   UNL     1      30.789  22.817  28.226  0.00  0.00    +0.000 A 
ATOM      9  C   UNL     1      30.156  22.961  29.439  0.00  0.00    +0.000 A 
ATOM     10  C   UNL     1      30.687  22.386  30.578  0.00  0.00    +0.000 A 
ATOM     11  C   UNL     1      29.990  22.549  31.904  0.00  0.00    +0.000 C 
ENDBRANCH   1   8
BRANCH   3  12
ATOM     12  C   UNL     1      29.312  23.193  24.681  0.00  0.00    +0.000 A 
ATOM     13  C   UNL     1      30.092  23.748  23.688  0.00  0.00    +0.000 A 
ATOM     14  C   UNL     1      29.455  24.236  22.561  0.00  0.00    +0.000 A 
ATOM     15  C   UNL     1      28.084  24.174  22.430  0.00  0.00    +0.000 A 
ATOM     16  C   UNL     1      27.308  23.624  23.415  0.00  0.00    +0.000 A 
ATOM     17  C   UNL     1      27.933  23.129  24.552  0.00  0.00    +0.000 A 
ATOM     18  C   UNL     1      27.093  22.527  25.633  0.00  0.00    +0.000 C 
BRANCH  16  19
ATOM     19  N   UNL     1      25.901  23.531  23.340  0.00  0.00    +0.000 N 
ATOM     20  O   UNL     1      25.199  24.213  24.093  0.00  0.00    +0.000 OA
ATOM     21  O   UNL     1      25.293  22.698  22.449  0.00  0.00    +0.000 OA
ENDBRANCH  16  19
ENDBRANCH   3  12
TORSDOF 3
ENDMDL
