MODEL 1
REMARK VINA RESULT:      -7.8      0.000      0.000
REMARK  Name = 
REMARK  9 active torsions:
REMARK  status: ('A' for Active; 'I' for Inactive)
REMARK    1  A    between atoms: C_2  and  C_5
REMARK    2  A    between atoms: C_8  and  C_9
REMARK    3  A    between atoms: C_9  and  N_10
REMARK    4  A    between atoms: N_10  and  C_11
REMARK    5  A    between atoms: N_10  and  C_18
REMARK    6  A    between atoms: C_11  and  C_12
REMARK    7  A    between atoms: C_18  and  C_19
REMARK    8  A    between atoms: C_22  and  C_23
REMARK    9  A    between atoms: N_25  and  C_26
REMARK                            x       y       z     vdW  Elec       q    Type
REMARK                         _______ _______ _______ _____ _____    ______ ____
ROOT
ATOM      1  N   UNL     1      37.201   4.276  14.735  0.00  0.00    +0.000 NA
ENDROOT
BRANCH   1   2
ATOM      2  C   UNL     1      38.534   3.926  14.999  0.00  0.00    +0.000 C 
BRANCH   2   6
ATOM      3  C   UNL     1      39.896   6.215  18.246  0.00  0.00    +0.000 A 
ATOM      4  C   UNL     1      40.491   6.393  17.025  0.00  0.00    +0.000 A 
ATOM      5  C   UNL     1      40.029   5.633  15.960  0.00  0.00    +0.000 A 
ATOM      6  C   UNL     1      39.005   4.734  16.150  0.00  0.00    +0.000 A 
ATOM      7  C   UNL     1      38.426   4.579  17.399  0.00  0.00    +0.000 A 
ATOM      8  C   UNL     1      38.871   5.325  18.466  0.00  0.00    +0.000 A 
BRANCH   3  10
ATOM      9  C   UNL     1      41.368   6.157  20.170  0.00  0.00    +0.000 C 
ATOM     10  C   UNL     1      40.406   7.024  19.399  0.00  0.00    +0.000 C 
ATOM     11  C   UNL     1      41.106   8.282  18.871  0.00  0.00    +0.000 C 
ATOM     12  C   UNL     1      39.230   7.391  20.275  0.00  0.00    +0.000 C 
ENDBRANCH   3  10
ENDBRANCH   2   6
ENDBRANCH   1   2
BRANCH   1  13
ATOM     13  C   UNL     1      36.801   5.619  14.827  0.00  0.00    +0.000 C 
BRANCH  13  14
ATOM     14  C   UNL     1      35.861   6.065  13.783  0.00  0.00    +0.000 A 
ATOM     15  C   UNL     1      36.180   6.119  12.427  0.00  0.00    +0.000 A 
ATOM     16  C   UNL     1      35.234   6.569  11.507  0.00  0.00    +0.000 A 
ATOM     17  C   UNL     1      33.980   6.969  11.898  0.00  0.00    +0.000 A 
ATOM     18  C   UNL     1      33.670   6.916  13.219  0.00  0.00    +0.000 A 
ATOM     19  C   UNL     1      34.601   6.471  14.140  0.00  0.00    +0.000 A 
ENDBRANCH  13  14
ENDBRANCH   1  13
BRANCH   1  20
ATOM     20  C   UNL     1      36.286   3.306  14.298  0.00  0.00    +0.000 C 
BRANCH  20  21
ATOM     21  C   UNL     1      36.022   2.278  15.372  0.00  0.00    +0.000 A 
ATOM     22  C   UNL     1      35.146   2.357  16.437  0.00  0.00    +0.000 A 
ATOM     23  C   UNL     1      35.248   1.185  17.146  0.00  0.00    +0.000 A 
ATOM     24  C   UNL     1      36.197   0.412  16.486  0.00  0.00    +0.000 A 
ATOM     25  O   UNL     1      36.594   1.112  15.474  0.00  0.00    +0.000 OA
BRANCH  24  26
ATOM     26  C   UNL     1      36.634  -0.936  16.892  0.00  0.00    +0.000 C 
ATOM     27  O   UNL     1      37.637  -1.040  17.614  0.00  0.00    +0.000 OA
ATOM     28  N   UNL     1      35.929  -2.082  16.472  0.00  0.00    +0.000 NA
BRANCH  28  29
ATOM     29  C   UNL     1      36.328  -3.431  16.854  0.00  0.00    +0.000 C 
ATOM     30  C   UNL     1      35.691  -4.475  15.903  0.00  0.00    +0.000 C 
ATOM     31  C   UNL     1      37.161  -4.100  15.745  0.00  0.00    +0.000 C 
ENDBRANCH  28  29
ENDBRANCH  24  26
ENDBRANCH  20  21
ENDBRANCH   1  20
TORSDOF 9
ENDMDL
MODEL 2
REMARK VINA RESULT:      -7.8      2.413      5.982
REMARK  Name = 
REMARK  9 active torsions:
REMARK  status: ('A' for Active; 'I' for Inactive)
REMARK    1  A    between atoms: C_2  and  C_5
REMARK    2  A    between atoms: C_8  and  C_9
REMARK    3  A    between atoms: C_9  and  N_10
REMARK    4  A    between atoms: N_10  and  C_11
REMARK    5  A    between atoms: N_10  and  C_18
REMARK    6  A    between atoms: C_11  and  C_12
REMARK    7  A    between atoms: C_18  and  C_19
REMARK    8  A    between atoms: C_22  and  C_23
REMARK    9  A    between atoms: N_25  and  C_26
REMARK                            x       y       z     vdW  Elec       q    Type
REMARK                         _______ _______ _______ _____ _____    ______ ____
ROOT
ATOM      1  N   UNL     1      37.450   3.501  15.572  0.00  0.00    +0.000 NA
ENDROOT
BRANCH   1   2
ATOM      2  C   UNL     1      37.248   3.222  14.211  0.00  0.00    +0.000 C 
BRANCH   2   6
ATOM      3  C   UNL     1      38.652  -0.661  13.441  0.00  0.00    +0.000 A 
ATOM      4  C   UNL     1      39.565   0.325  13.705  0.00  0.00    +0.000 A 
ATOM      5  C   UNL     1      39.088   1.603  13.961  0.00  0.00    +0.000 A 
ATOM      6  C   UNL     1      37.735   1.847  13.944  0.00  0.00    +0.000 A 
ATOM      7  C   UNL     1      36.837   0.826  13.674  0.00  0.00    +0.000 A 
ATOM      8  C   UNL     1      37.293  -0.446  13.417  0.00  0.00    +0.000 A 
BRANCH   3  10
ATOM      9  C   UNL     1      40.316  -2.298  14.091  0.00  0.00    +0.000 C 
ATOM     10  C   UNL     1      39.168  -2.035  13.149  0.00  0.00    +0.000 C 
ATOM     11  C   UNL     1      38.045  -3.059  13.357  0.00  0.00    +0.000 C 
ATOM     12  C   UNL     1      39.661  -2.061  11.720  0.00  0.00    +0.000 C 
ENDBRANCH   3  10
ENDBRANCH   2   6
ENDBRANCH   1   2
BRANCH   1  13
ATOM     13  C   UNL     1      38.711   3.928  16.017  0.00  0.00    +0.000 C 
BRANCH  13  14
ATOM     14  C   UNL     1      38.694   5.083  16.931  0.00  0.00    +0.000 A 
ATOM     15  C   UNL     1      39.056   5.011  18.276  0.00  0.00    +0.000 A 
ATOM     16  C   UNL     1      38.996   6.152  19.075  0.00  0.00    +0.000 A 
ATOM     17  C   UNL     1      38.585   7.363  18.574  0.00  0.00    +0.000 A 
ATOM     18  C   UNL     1      38.233   7.433  17.265  0.00  0.00    +0.000 A 
ATOM     19  C   UNL     1      38.288   6.306  16.463  0.00  0.00    +0.000 A 
ENDBRANCH  13  14
ENDBRANCH   1  13
BRANCH   1  20
ATOM     20  C   UNL     1      36.378   3.436  16.476  0.00  0.00    +0.000 C 
BRANCH  20  21
ATOM     21  C   UNL     1      36.057   2.008  16.846  0.00  0.00    +0.000 A 
ATOM     22  C   UNL     1      34.827   1.379  16.846  0.00  0.00    +0.000 A 
ATOM     23  C   UNL     1      35.024   0.083  17.255  0.00  0.00    +0.000 A 
ATOM     24  C   UNL     1      36.387  -0.047  17.497  0.00  0.00    +0.000 A 
ATOM     25  O   UNL     1      36.913   1.107  17.237  0.00  0.00    +0.000 OA
BRANCH  24  26
ATOM     26  C   UNL     1      37.062  -1.274  17.957  0.00  0.00    +0.000 C 
ATOM     27  O   UNL     1      37.821  -1.200  18.935  0.00  0.00    +0.000 OA
ATOM     28  N   UNL     1      36.849  -2.504  17.303  0.00  0.00    +0.000 NA
BRANCH  28  29
ATOM     29  C   UNL     1      37.495  -3.740  17.730  0.00  0.00    +0.000 C 
ATOM     30  C   UNL     1      37.504  -4.773  16.576  0.00  0.00    +0.000 C 
ATOM     31  C   UNL     1      38.778  -4.006  16.920  0.00  0.00    +0.000 C 
ENDBRANCH  28  29
ENDBRANCH  24  26
ENDBRANCH  20  21
ENDBRANCH   1  20
TORSDOF 9
ENDMDL
MODEL 3
REMARK VINA RESULT:      -7.6     23.640     26.057
REMARK  Name = 
REMARK  9 active torsions:
REMARK  status: ('A' for Active; 'I' for Inactive)
REMARK    1  A    between atoms: C_2  and  C_5
REMARK    2  A    between atoms: C_8  and  C_9
REMARK    3  A    between atoms: C_9  and  N_10
REMARK    4  A    between atoms: N_10  and  C_11
REMARK    5  A    between atoms: N_10  and  C_18
REMARK    6  A    between atoms: C_11  and  C_12
REMARK    7  A    between atoms: C_18  and  C_19
REMARK    8  A    between atoms: C_22  and  C_23
REMARK    9  A    between atoms: N_25  and  C_26
REMARK                            x       y       z     vdW  Elec       q    Type
REMARK                         _______ _______ _______ _____ _____    ______ ____
ROOT
ATOM      1  N   UNL     1      13.788  -0.060  27.389  0.00  0.00    +0.000 NA
ENDROOT
BRANCH   1   2
ATOM      2  C   UNL     1      13.180  -0.877  28.356  0.00  0.00    +0.000 C 
BRANCH   2   6
ATOM      3  C   UNL     1      13.137   1.206  32.003  0.00  0.00    +0.000 A 
ATOM      4  C   UNL     1      14.319   0.664  31.573  0.00  0.00    +0.000 A 
ATOM      5  C   UNL     1      14.320  -0.020  30.366  0.00  0.00    +0.000 A 
ATOM      6  C   UNL     1      13.158  -0.135  29.640  0.00  0.00    +0.000 A 
ATOM      7  C   UNL     1      11.979   0.427  30.104  0.00  0.00    +0.000 A 
ATOM      8  C   UNL     1      11.960   1.107  31.299  0.00  0.00    +0.000 A 
BRANCH   3  10
ATOM      9  C   UNL     1      14.458   2.637  33.445  0.00  0.00    +0.000 C 
ATOM     10  C   UNL     1      13.133   1.929  33.314  0.00  0.00    +0.000 C 
ATOM     11  C   UNL     1      11.973   2.931  33.342  0.00  0.00    +0.000 C 
ATOM     12  C   UNL     1      12.987   0.906  34.417  0.00  0.00    +0.000 C 
ENDBRANCH   3  10
ENDBRANCH   2   6
ENDBRANCH   1   2
BRANCH   1  13
ATOM     13  C   UNL     1      13.748   1.336  27.530  0.00  0.00    +0.000 C 
BRANCH  13  14
ATOM     14  C   UNL     1      12.527   1.982  27.018  0.00  0.00    +0.000 A 
ATOM     15  C   UNL     1      11.455   1.283  26.463  0.00  0.00    +0.000 A 
ATOM     16  C   UNL     1      10.343   1.976  25.988  0.00  0.00    +0.000 A 
ATOM     17  C   UNL     1      10.266   3.345  26.048  0.00  0.00    +0.000 A 
ATOM     18  C   UNL     1      11.309   4.026  26.588  0.00  0.00    +0.000 A 
ATOM     19  C   UNL     1      12.418   3.349  27.063  0.00  0.00    +0.000 A 
ENDBRANCH  13  14
ENDBRANCH   1  13
BRANCH   1  20
ATOM     20  C   UNL     1      14.505  -0.632  26.327  0.00  0.00    +0.000 C 
BRANCH  20  21
ATOM     21  C   UNL     1      15.948  -0.186  26.337  0.00  0.00    +0.000 A 
ATOM     22  C   UNL     1      16.720   0.193  27.418  0.00  0.00    +0.000 A 
ATOM     23  C   UNL     1      17.968   0.516  26.943  0.00  0.00    +0.000 A 
ATOM     24  C   UNL     1      17.924   0.323  25.567  0.00  0.00    +0.000 A 
ATOM     25  O   UNL     1      16.725  -0.083  25.297  0.00  0.00    +0.000 OA
BRANCH  24  26
ATOM     26  C   UNL     1      19.044   0.546  24.635  0.00  0.00    +0.000 C 
ATOM     27  O   UNL     1      19.421   1.710  24.433  0.00  0.00    +0.000 OA
ATOM     28  N   UNL     1      19.674  -0.537  23.990  0.00  0.00    +0.000 NA
BRANCH  28  29
ATOM     29  C   UNL     1      20.786  -0.357  23.064  0.00  0.00    +0.000 C 
ATOM     30  C   UNL     1      20.866  -1.547  22.075  0.00  0.00    +0.000 C 
ATOM     31  C   UNL     1      20.286  -0.212  21.615  0.00  0.00    +0.000 C 
ENDBRANCH  28  29
ENDBRANCH  24  26
ENDBRANCH  20  21
ENDBRANCH   1  20
TORSDOF 9
ENDMDL
MODEL 4
REMARK VINA RESULT:      -7.5      1.717      2.582
REMARK  Name = 
REMARK  9 active torsions:
REMARK  status: ('A' for Active; 'I' for Inactive)
REMARK    1  A    between atoms: C_2  and  C_5
REMARK    2  A    between atoms: C_8  and  C_9
REMARK    3  A    between atoms: C_9  and  N_10
REMARK    4  A    between atoms: N_10  and  C_11
REMARK    5  A    between atoms: N_10  and  C_18
REMARK    6  A    between atoms: C_11  and  C_12
REMARK    7  A    between atoms: C_18  and  C_19
REMARK    8  A    between atoms: C_22  and  C_23
REMARK    9  A    between atoms: N_25  and  C_26
REMARK                            x       y       z     vdW  Elec       q    Type
REMARK                         _______ _______ _______ _____ _____    ______ ____
ROOT
ATOM      1  N   UNL     1      38.303   4.928  15.311  0.00  0.00    +0.000 NA
ENDROOT
BRANCH   1   2
ATOM      2  C   UNL     1      37.960   5.059  16.665  0.00  0.00    +0.000 C 
BRANCH   2   6
ATOM      3  C   UNL     1      41.308   6.490  18.758  0.00  0.00    +0.000 A 
ATOM      4  C   UNL     1      40.202   6.112  19.473  0.00  0.00    +0.000 A 
ATOM      5  C   UNL     1      39.104   5.639  18.769  0.00  0.00    +0.000 A 
ATOM      6  C   UNL     1      39.149   5.559  17.397  0.00  0.00    +0.000 A 
ATOM      7  C   UNL     1      40.284   5.949  16.705  0.00  0.00    +0.000 A 
ATOM      8  C   UNL     1      41.382   6.422  17.386  0.00  0.00    +0.000 A 
BRANCH   3  10
ATOM      9  C   UNL     1      42.215   8.467  19.824  0.00  0.00    +0.000 C 
ATOM     10  C   UNL     1      42.487   7.016  19.516  0.00  0.00    +0.000 C 
ATOM     11  C   UNL     1      42.667   6.209  20.808  0.00  0.00    +0.000 C 
ATOM     12  C   UNL     1      43.708   6.899  18.633  0.00  0.00    +0.000 C 
ENDBRANCH   3  10
ENDBRANCH   2   6
ENDBRANCH   1   2
BRANCH   1  13
ATOM     13  C   UNL     1      38.101   6.005  14.432  0.00  0.00    +0.000 C 
BRANCH  13  14
ATOM     14  C   UNL     1      36.731   6.547  14.410  0.00  0.00    +0.000 A 
ATOM     15  C   UNL     1      36.397   7.826  14.854  0.00  0.00    +0.000 A 
ATOM     16  C   UNL     1      35.070   8.252  14.812  0.00  0.00    +0.000 A 
ATOM     17  C   UNL     1      34.066   7.442  14.342  0.00  0.00    +0.000 A 
ATOM     18  C   UNL     1      34.391   6.197  13.910  0.00  0.00    +0.000 A 
ATOM     19  C   UNL     1      35.705   5.763  13.948  0.00  0.00    +0.000 A 
ENDBRANCH  13  14
ENDBRANCH   1  13
BRANCH   1  20
ATOM     20  C   UNL     1      38.923   3.759  14.844  0.00  0.00    +0.000 C 
BRANCH  20  21
ATOM     21  C   UNL     1      37.962   2.594  14.837  0.00  0.00    +0.000 A 
ATOM     22  C   UNL     1      36.841   2.413  14.050  0.00  0.00    +0.000 A 
ATOM     23  C   UNL     1      36.282   1.207  14.396  0.00  0.00    +0.000 A 
ATOM     24  C   UNL     1      37.086   0.677  15.399  0.00  0.00    +0.000 A 
ATOM     25  O   UNL     1      38.033   1.537  15.595  0.00  0.00    +0.000 OA
BRANCH  24  26
ATOM     26  C   UNL     1      36.869  -0.613  16.077  0.00  0.00    +0.000 C 
ATOM     27  O   UNL     1      36.392  -1.552  15.422  0.00  0.00    +0.000 OA
ATOM     28  N   UNL     1      37.197  -0.778  17.438  0.00  0.00    +0.000 NA
BRANCH  28  29
ATOM     29  C   UNL     1      37.000  -2.039  18.143  0.00  0.00    +0.000 C 
ATOM     30  C   UNL     1      38.355  -2.595  18.649  0.00  0.00    +0.000 C 
ATOM     31  C   UNL     1      37.399  -1.916  19.625  0.00  0.00    +0.000 C 
ENDBRANCH  28  29
ENDBRANCH  24  26
ENDBRANCH  20  21
ENDBRANCH   1  20
TORSDOF 9
ENDMDL
MODEL 5
REMARK VINA RESULT:      -7.5      2.951      5.384
REMARK  Name = 
REMARK  9 active torsions:
REMARK  status: ('A' for Active; 'I' for Inactive)
REMARK    1  A    between atoms: C_2  and  C_5
REMARK    2  A    between atoms: C_8  and  C_9
REMARK    3  A    between atoms: C_9  and  N_10
REMARK    4  A    between atoms: N_10  and  C_11
REMARK    5  A    between atoms: N_10  and  C_18
REMARK    6  A    between atoms: C_11  and  C_12
REMARK    7  A    between atoms: C_18  and  C_19
REMARK    8  A    between atoms: C_22  and  C_23
REMARK    9  A    between atoms: N_25  and  C_26
REMARK                            x       y       z     vdW  Elec       q    Type
REMARK                         _______ _______ _______ _____ _____    ______ ____
ROOT
ATOM      1  N   UNL     1      38.370   6.614  17.863  0.00  0.00    +0.000 NA
ENDROOT
BRANCH   1   2
ATOM      2  C   UNL     1      38.994   5.673  18.697  0.00  0.00    +0.000 C 
BRANCH   2   6
ATOM      3  C   UNL     1      42.999   6.829  19.207  0.00  0.00    +0.000 A 
ATOM      4  C   UNL     1      42.225   6.642  20.322  0.00  0.00    +0.000 A 
ATOM      5  C   UNL     1      40.904   6.257  20.139  0.00  0.00    +0.000 A 
ATOM      6  C   UNL     1      40.410   6.075  18.868  0.00  0.00    +0.000 A 
ATOM      7  C   UNL     1      41.222   6.273  17.762  0.00  0.00    +0.000 A 
ATOM      8  C   UNL     1      42.533   6.656  17.925  0.00  0.00    +0.000 A 
BRANCH   3  10
ATOM      9  C   UNL     1      44.993   6.430  20.524  0.00  0.00    +0.000 C 
ATOM     10  C   UNL     1      44.419   7.261  19.404  0.00  0.00    +0.000 C 
ATOM     11  C   UNL     1      45.205   7.044  18.105  0.00  0.00    +0.000 C 
ATOM     12  C   UNL     1      44.419   8.720  19.796  0.00  0.00    +0.000 C 
ENDBRANCH   3  10
ENDBRANCH   2   6
ENDBRANCH   1   2
BRANCH   1  13
ATOM     13  C   UNL     1      37.751   7.742  18.424  0.00  0.00    +0.000 C 
BRANCH  13  14
ATOM     14  C   UNL     1      38.666   8.710  19.053  0.00  0.00    +0.000 A 
ATOM     15  C   UNL     1      38.657   9.012  20.415  0.00  0.00    +0.000 A 
ATOM     16  C   UNL     1      39.549   9.954  20.925  0.00  0.00    +0.000 A 
ATOM     17  C   UNL     1      40.450  10.605  20.119  0.00  0.00    +0.000 A 
ATOM     18  C   UNL     1      40.460  10.311  18.794  0.00  0.00    +0.000 A 
ATOM     19  C   UNL     1      39.578   9.377  18.277  0.00  0.00    +0.000 A 
ENDBRANCH  13  14
ENDBRANCH   1  13
BRANCH   1  20
ATOM     20  C   UNL     1      38.432   6.477  16.467  0.00  0.00    +0.000 C 
BRANCH  20  21
ATOM     21  C   UNL     1      38.247   5.038  16.048  0.00  0.00    +0.000 A 
ATOM     22  C   UNL     1      39.015   4.297  15.171  0.00  0.00    +0.000 A 
ATOM     23  C   UNL     1      38.466   3.040  15.101  0.00  0.00    +0.000 A 
ATOM     24  C   UNL     1      37.363   3.048  15.947  0.00  0.00    +0.000 A 
ATOM     25  O   UNL     1      37.306   4.236  16.456  0.00  0.00    +0.000 OA
BRANCH  24  26
ATOM     26  C   UNL     1      36.463   1.906  16.190  0.00  0.00    +0.000 C 
ATOM     27  O   UNL     1      35.794   1.468  15.242  0.00  0.00    +0.000 OA
ATOM     28  N   UNL     1      36.364   1.323  17.469  0.00  0.00    +0.000 NA
BRANCH  28  29
ATOM     29  C   UNL     1      35.488   0.192  17.749  0.00  0.00    +0.000 C 
ATOM     30  C   UNL     1      36.322  -1.078  18.050  0.00  0.00    +0.000 C 
ATOM     31  C   UNL     1      35.669  -0.309  19.194  0.00  0.00    +0.000 C 
ENDBRANCH  28  29
ENDBRANCH  24  26
ENDBRANCH  20  21
ENDBRANCH   1  20
TORSDOF 9
ENDMDL
MODEL 6
REMARK VINA RESULT:      -7.5      1.384      2.150
REMARK  Name = 
REMARK  9 active torsions:
REMARK  status: ('A' for Active; 'I' for Inactive)
REMARK    1  A    between atoms: C_2  and  C_5
REMARK    2  A    between atoms: C_8  and  C_9
REMARK    3  A    between atoms: C_9  and  N_10
REMARK    4  A    between atoms: N_10  and  C_11
REMARK    5  A    between atoms: N_10  and  C_18
REMARK    6  A    between atoms: C_11  and  C_12
REMARK    7  A    between atoms: C_18  and  C_19
REMARK    8  A    between atoms: C_22  and  C_23
REMARK    9  A    between atoms: N_25  and  C_26
REMARK                            x       y       z     vdW  Elec       q    Type
REMARK                         _______ _______ _______ _____ _____    ______ ____
ROOT
ATOM      1  N   UNL     1      38.297   4.935  15.371  0.00  0.00    +0.000 NA
ENDROOT
BRANCH   1   2
ATOM      2  C   UNL     1      37.979   4.983  16.737  0.00  0.00    +0.000 C 
BRANCH   2   6
ATOM      3  C   UNL     1      41.298   6.481  18.829  0.00  0.00    +0.000 A 
ATOM      4  C   UNL     1      40.194   6.097  19.542  0.00  0.00    +0.000 A 
ATOM      5  C   UNL     1      39.105   5.601  18.839  0.00  0.00    +0.000 A 
ATOM      6  C   UNL     1      39.157   5.507  17.468  0.00  0.00    +0.000 A 
ATOM      7  C   UNL     1      40.291   5.905  16.777  0.00  0.00    +0.000 A 
ATOM      8  C   UNL     1      41.379   6.399  17.458  0.00  0.00    +0.000 A 
BRANCH   3  10
ATOM      9  C   UNL     1      43.682   6.899  18.704  0.00  0.00    +0.000 C 
ATOM     10  C   UNL     1      42.466   7.031  19.586  0.00  0.00    +0.000 C 
ATOM     11  C   UNL     1      42.202   8.501  19.936  0.00  0.00    +0.000 C 
ATOM     12  C   UNL     1      42.649   6.205  20.839  0.00  0.00    +0.000 C 
ENDBRANCH   3  10
ENDBRANCH   2   6
ENDBRANCH   1   2
BRANCH   1  13
ATOM     13  C   UNL     1      38.093   6.067  14.565  0.00  0.00    +0.000 C 
BRANCH  13  14
ATOM     14  C   UNL     1      36.699   6.538  14.491  0.00  0.00    +0.000 A 
ATOM     15  C   UNL     1      35.633   5.740  14.077  0.00  0.00    +0.000 A 
ATOM     16  C   UNL     1      34.346   6.272  14.020  0.00  0.00    +0.000 A 
ATOM     17  C   UNL     1      34.089   7.577  14.364  0.00  0.00    +0.000 A 
ATOM     18  C   UNL     1      35.126   8.354  14.767  0.00  0.00    +0.000 A 
ATOM     19  C   UNL     1      36.408   7.836  14.826  0.00  0.00    +0.000 A 
ENDBRANCH  13  14
ENDBRANCH   1  13
BRANCH   1  20
ATOM     20  C   UNL     1      38.896   3.790  14.822  0.00  0.00    +0.000 C 
BRANCH  20  21
ATOM     21  C   UNL     1      37.942   2.620  14.817  0.00  0.00    +0.000 A 
ATOM     22  C   UNL     1      36.891   2.375  13.956  0.00  0.00    +0.000 A 
ATOM     23  C   UNL     1      36.307   1.192  14.338  0.00  0.00    +0.000 A 
ATOM     24  C   UNL     1      37.027   0.740  15.439  0.00  0.00    +0.000 A 
ATOM     25  O   UNL     1      37.953   1.619  15.651  0.00  0.00    +0.000 OA
BRANCH  24  26
ATOM     26  C   UNL     1      36.758  -0.501  16.187  0.00  0.00    +0.000 C 
ATOM     27  O   UNL     1      37.554  -0.839  17.076  0.00  0.00    +0.000 OA
ATOM     28  N   UNL     1      35.623  -1.285  15.901  0.00  0.00    +0.000 NA
BRANCH  28  29
ATOM     29  C   UNL     1      35.322  -2.517  16.621  0.00  0.00    +0.000 C 
ATOM     30  C   UNL     1      34.471  -3.465  15.739  0.00  0.00    +0.000 C 
ATOM     31  C   UNL     1      35.960  -3.736  15.930  0.00  0.00    +0.000 C 
ENDBRANCH  28  29
ENDBRANCH  24  26
ENDBRANCH  20  21
ENDBRANCH   1  20
TORSDOF 9
ENDMDL
MODEL 7
REMARK VINA RESULT:      -7.4     24.138     26.987
REMARK  Name = 
REMARK  9 active torsions:
REMARK  status: ('A' for Active; 'I' for Inactive)
REMARK    1  A    between atoms: C_2  and  C_5
REMARK    2  A    between atoms: C_8  and  C_9
REMARK    3  A    between atoms: C_9  and  N_10
REMARK    4  A    between atoms: N_10  and  C_11
REMARK    5  A    between atoms: N_10  and  C_18
REMARK    6  A    between atoms: C_11  and  C_12
REMARK    7  A    between atoms: C_18  and  C_19
REMARK    8  A    between atoms: C_22  and  C_23
REMARK    9  A    between atoms: N_25  and  C_26
REMARK                            x       y       z     vdW  Elec       q    Type
REMARK                         _______ _______ _______ _____ _____    ______ ____
ROOT
ATOM      1  N   UNL     1      13.739   0.099  27.376  0.00  0.00    +0.000 NA
ENDROOT
BRANCH   1   2
ATOM      2  C   UNL     1      12.936   0.038  26.226  0.00  0.00    +0.000 C 
BRANCH   2   6
ATOM      3  C   UNL     1       9.344   2.047  27.058  0.00  0.00    +0.000 A 
ATOM      4  C   UNL     1      10.481   2.789  26.875  0.00  0.00    +0.000 A 
ATOM      5  C   UNL     1      11.660   2.113  26.598  0.00  0.00    +0.000 A 
ATOM      6  C   UNL     1      11.663   0.740  26.514  0.00  0.00    +0.000 A 
ATOM      7  C   UNL     1      10.493   0.020  26.705  0.00  0.00    +0.000 A 
ATOM      8  C   UNL     1       9.315   0.674  26.982  0.00  0.00    +0.000 A 
BRANCH   3  10
ATOM      9  C   UNL     1       7.474   2.132  28.598  0.00  0.00    +0.000 C 
ATOM     10  C   UNL     1       8.074   2.777  27.374  0.00  0.00    +0.000 C 
ATOM     11  C   UNL     1       8.385   4.256  27.633  0.00  0.00    +0.000 C 
ATOM     12  C   UNL     1       7.136   2.621  26.200  0.00  0.00    +0.000 C 
ENDBRANCH   3  10
ENDBRANCH   2   6
ENDBRANCH   1   2
BRANCH   1  13
ATOM     13  C   UNL     1      13.405  -0.670  28.502  0.00  0.00    +0.000 C 
BRANCH  13  14
ATOM     14  C   UNL     1      13.177   0.098  29.738  0.00  0.00    +0.000 A 
ATOM     15  C   UNL     1      12.052   0.893  29.959  0.00  0.00    +0.000 A 
ATOM     16  C   UNL     1      11.923   1.599  31.154  0.00  0.00    +0.000 A 
ATOM     17  C   UNL     1      12.882   1.538  32.136  0.00  0.00    +0.000 A 
ATOM     18  C   UNL     1      13.976   0.765  31.921  0.00  0.00    +0.000 A 
ATOM     19  C   UNL     1      14.115   0.059  30.739  0.00  0.00    +0.000 A 
ENDBRANCH  13  14
ENDBRANCH   1  13
BRANCH   1  20
ATOM     20  C   UNL     1      14.919   0.859  27.378  0.00  0.00    +0.000 C 
BRANCH  20  21
ATOM     21  C   UNL     1      15.992   0.210  26.536  0.00  0.00    +0.000 A 
ATOM     22  C   UNL     1      16.156  -1.130  26.242  0.00  0.00    +0.000 A 
ATOM     23  C   UNL     1      17.268  -1.246  25.444  0.00  0.00    +0.000 A 
ATOM     24  C   UNL     1      17.760   0.043  25.271  0.00  0.00    +0.000 A 
ATOM     25  O   UNL     1      16.968   0.825  25.931  0.00  0.00    +0.000 OA
BRANCH  24  26
ATOM     26  C   UNL     1      18.951   0.406  24.482  0.00  0.00    +0.000 C 
ATOM     27  O   UNL     1      19.294   1.597  24.444  0.00  0.00    +0.000 OA
ATOM     28  N   UNL     1      19.686  -0.577  23.789  0.00  0.00    +0.000 NA
BRANCH  28  29
ATOM     29  C   UNL     1      20.870  -0.258  23.001  0.00  0.00    +0.000 C 
ATOM     30  C   UNL     1      21.117  -1.348  21.928  0.00  0.00    +0.000 C 
ATOM     31  C   UNL     1      20.507  -0.009  21.525  0.00  0.00    +0.000 C 
ENDBRANCH  28  29
ENDBRANCH  24  26
ENDBRANCH  20  21
ENDBRANCH   1  20
TORSDOF 9
ENDMDL
MODEL 8
REMARK VINA RESULT:      -7.3      3.447      8.577
REMARK  Name = 
REMARK  9 active torsions:
REMARK  status: ('A' for Active; 'I' for Inactive)
REMARK    1  A    between atoms: C_2  and  C_5
REMARK    2  A    between atoms: C_8  and  C_9
REMARK    3  A    between atoms: C_9  and  N_10
REMARK    4  A    between atoms: N_10  and  C_11
REMARK    5  A    between atoms: N_10  and  C_18
REMARK    6  A    between atoms: C_11  and  C_12
REMARK    7  A    between atoms: C_18  and  C_19
REMARK    8  A    between atoms: C_22  and  C_23
REMARK    9  A    between atoms: N_25  and  C_26
REMARK                            x       y       z     vdW  Elec       q    Type
REMARK                         _______ _______ _______ _____ _____    ______ ____
ROOT
ATOM      1  N   UNL     1      35.888   1.433  15.416  0.00  0.00    +0.000 NA
ENDROOT
BRANCH   1   2
ATOM      2  C   UNL     1      36.289   1.337  14.075  0.00  0.00    +0.000 C 
BRANCH   2   6
ATOM      3  C   UNL     1      39.796  -0.969  13.926  0.00  0.00    +0.000 A 
ATOM      4  C   UNL     1      38.654  -1.478  13.366  0.00  0.00    +0.000 A 
ATOM      5  C   UNL     1      37.503  -0.705  13.420  0.00  0.00    +0.000 A 
ATOM      6  C   UNL     1      37.533   0.532  14.021  0.00  0.00    +0.000 A 
ATOM      7  C   UNL     1      38.706   1.016  14.578  0.00  0.00    +0.000 A 
ATOM      8  C   UNL     1      39.856   0.263  14.535  0.00  0.00    +0.000 A 
BRANCH   3  10
ATOM      9  C   UNL     1      40.914  -2.847  14.972  0.00  0.00    +0.000 C 
ATOM     10  C   UNL     1      41.033  -1.811  13.883  0.00  0.00    +0.000 C 
ATOM     11  C   UNL     1      41.152  -2.476  12.506  0.00  0.00    +0.000 C 
ATOM     12  C   UNL     1      42.222  -0.918  14.153  0.00  0.00    +0.000 C 
ENDBRANCH   3  10
ENDBRANCH   2   6
ENDBRANCH   1   2
BRANCH   1  13
ATOM     13  C   UNL     1      35.238   0.351  16.031  0.00  0.00    +0.000 C 
BRANCH  13  14
ATOM     14  C   UNL     1      35.971  -0.266  17.150  0.00  0.00    +0.000 A 
ATOM     15  C   UNL     1      35.688  -0.015  18.492  0.00  0.00    +0.000 A 
ATOM     16  C   UNL     1      36.444  -0.630  19.490  0.00  0.00    +0.000 A 
ATOM     17  C   UNL     1      37.474  -1.487  19.190  0.00  0.00    +0.000 A 
ATOM     18  C   UNL     1      37.750  -1.731  17.883  0.00  0.00    +0.000 A 
ATOM     19  C   UNL     1      37.007  -1.126  16.885  0.00  0.00    +0.000 A 
ENDBRANCH  13  14
ENDBRANCH   1  13
BRANCH   1  20
ATOM     20  C   UNL     1      36.205   2.573  16.172  0.00  0.00    +0.000 C 
BRANCH  20  21
ATOM     21  C   UNL     1      36.211   3.816  15.314  0.00  0.00    +0.000 A 
ATOM     22  C   UNL     1      37.287   4.603  14.954  0.00  0.00    +0.000 A 
ATOM     23  C   UNL     1      36.811   5.624  14.168  0.00  0.00    +0.000 A 
ATOM     24  C   UNL     1      35.437   5.430  14.069  0.00  0.00    +0.000 A 
ATOM     25  O   UNL     1      35.171   4.367  14.756  0.00  0.00    +0.000 OA
BRANCH  24  26
ATOM     26  C   UNL     1      34.504   6.289  13.317  0.00  0.00    +0.000 C 
ATOM     27  O   UNL     1      33.533   6.773  13.917  0.00  0.00    +0.000 OA
ATOM     28  N   UNL     1      34.710   6.555  11.949  0.00  0.00    +0.000 NA
BRANCH  28  29
ATOM     29  C   UNL     1      33.812   7.401  11.172  0.00  0.00    +0.000 C 
ATOM     30  C   UNL     1      34.604   8.532  10.469  0.00  0.00    +0.000 C 
ATOM     31  C   UNL     1      34.133   7.321   9.668  0.00  0.00    +0.000 C 
ENDBRANCH  28  29
ENDBRANCH  24  26
ENDBRANCH  20  21
ENDBRANCH   1  20
TORSDOF 9
ENDMDL
MODEL 9
REMARK VINA RESULT:      -7.2      2.470      5.964
REMARK  Name = 
REMARK  9 active torsions:
REMARK  status: ('A' for Active; 'I' for Inactive)
REMARK    1  A    between atoms: C_2  and  C_5
REMARK    2  A    between atoms: C_8  and  C_9
REMARK    3  A    between atoms: C_9  and  N_10
REMARK    4  A    between atoms: N_10  and  C_11
REMARK    5  A    between atoms: N_10  and  C_18
REMARK    6  A    between atoms: C_11  and  C_12
REMARK    7  A    between atoms: C_18  and  C_19
REMARK    8  A    between atoms: C_22  and  C_23
REMARK    9  A    between atoms: N_25  and  C_26
REMARK                            x       y       z     vdW  Elec       q    Type
REMARK                         _______ _______ _______ _____ _____    ______ ____
ROOT
ATOM      1  N   UNL     1      38.005   4.118  13.678  0.00  0.00    +0.000 NA
ENDROOT
BRANCH   1   2
ATOM      2  C   UNL     1      39.305   3.724  13.324  0.00  0.00    +0.000 C 
BRANCH   2   6
ATOM      3  C   UNL     1      39.518  -0.466  13.525  0.00  0.00    +0.000 A 
ATOM      4  C   UNL     1      39.655   0.252  14.683  0.00  0.00    +0.000 A 
ATOM      5  C   UNL     1      39.580   1.636  14.603  0.00  0.00    +0.000 A 
ATOM      6  C   UNL     1      39.373   2.244  13.387  0.00  0.00    +0.000 A 
ATOM      7  C   UNL     1      39.239   1.487  12.234  0.00  0.00    +0.000 A 
ATOM      8  C   UNL     1      39.312   0.114  12.295  0.00  0.00    +0.000 A 
BRANCH   3  10
ATOM      9  C   UNL     1      38.329  -2.463  14.210  0.00  0.00    +0.000 C 
ATOM     10  C   UNL     1      39.616  -1.957  13.609  0.00  0.00    +0.000 C 
ATOM     11  C   UNL     1      39.828  -2.536  12.205  0.00  0.00    +0.000 C 
ATOM     12  C   UNL     1      40.776  -2.304  14.515  0.00  0.00    +0.000 C 
ENDBRANCH   3  10
ENDBRANCH   2   6
ENDBRANCH   1   2
BRANCH   1  13
ATOM     13  C   UNL     1      37.809   5.300  14.409  0.00  0.00    +0.000 C 
BRANCH  13  14
ATOM     14  C   UNL     1      38.470   5.340  15.725  0.00  0.00    +0.000 A 
ATOM     15  C   UNL     1      38.046   4.597  16.827  0.00  0.00    +0.000 A 
ATOM     16  C   UNL     1      38.722   4.706  18.041  0.00  0.00    +0.000 A 
ATOM     17  C   UNL     1      39.806   5.535  18.192  0.00  0.00    +0.000 A 
ATOM     18  C   UNL     1      40.219   6.258  17.120  0.00  0.00    +0.000 A 
ATOM     19  C   UNL     1      39.556   6.157  15.909  0.00  0.00    +0.000 A 
ENDBRANCH  13  14
ENDBRANCH   1  13
BRANCH   1  20
ATOM     20  C   UNL     1      36.895   3.381  13.236  0.00  0.00    +0.000 C 
BRANCH  20  21
ATOM     21  C   UNL     1      36.104   2.829  14.398  0.00  0.00    +0.000 A 
ATOM     22  C   UNL     1      35.026   3.397  15.047  0.00  0.00    +0.000 A 
ATOM     23  C   UNL     1      34.637   2.532  16.040  0.00  0.00    +0.000 A 
ATOM     24  C   UNL     1      35.501   1.444  15.970  0.00  0.00    +0.000 A 
ATOM     25  O   UNL     1      36.317   1.692  14.997  0.00  0.00    +0.000 OA
BRANCH  24  26
ATOM     26  C   UNL     1      35.460   0.262  16.849  0.00  0.00    +0.000 C 
ATOM     27  O   UNL     1      34.388  -0.350  16.966  0.00  0.00    +0.000 OA
ATOM     28  N   UNL     1      36.612  -0.167  17.538  0.00  0.00    +0.000 NA
BRANCH  28  29
ATOM     29  C   UNL     1      36.613  -1.333  18.413  0.00  0.00    +0.000 C 
ATOM     30  C   UNL     1      37.568  -2.422  17.864  0.00  0.00    +0.000 C 
ATOM     31  C   UNL     1      37.999  -1.556  19.043  0.00  0.00    +0.000 C 
ENDBRANCH  28  29
ENDBRANCH  24  26
ENDBRANCH  20  21
ENDBRANCH   1  20
TORSDOF 9
ENDMDL
MODEL 10
REMARK VINA RESULT:      -7.1      4.268      6.755
REMARK  Name = 
REMARK  9 active torsions:
REMARK  status: ('A' for Active; 'I' for Inactive)
REMARK    1  A    between atoms: C_2  and  C_5
REMARK    2  A    between atoms: C_8  and  C_9
REMARK    3  A    between atoms: C_9  and  N_10
REMARK    4  A    between atoms: N_10  and  C_11
REMARK    5  A    between atoms: N_10  and  C_18
REMARK    6  A    between atoms: C_11  and  C_12
REMARK    7  A    between atoms: C_18  and  C_19
REMARK    8  A    between atoms: C_22  and  C_23
REMARK    9  A    between atoms: N_25  and  C_26
REMARK                            x       y       z     vdW  Elec       q    Type
REMARK                         _______ _______ _______ _____ _____    ______ ____
ROOT
ATOM      1  N   UNL     1      37.680   0.028  14.290  0.00  0.00    +0.000 NA
ENDROOT
BRANCH   1   2
ATOM      2  C   UNL     1      36.952   1.189  13.986  0.00  0.00    +0.000 C 
BRANCH   2   6
ATOM      3  C   UNL     1      38.510   4.368  16.245  0.00  0.00    +0.000 A 
ATOM      4  C   UNL     1      37.299   3.840  16.607  0.00  0.00    +0.000 A 
ATOM      5  C   UNL     1      36.797   2.788  15.854  0.00  0.00    +0.000 A 
ATOM      6  C   UNL     1      37.512   2.308  14.782  0.00  0.00    +0.000 A 
ATOM      7  C   UNL     1      38.735   2.866  14.443  0.00  0.00    +0.000 A 
ATOM      8  C   UNL     1      39.247   3.909  15.179  0.00  0.00    +0.000 A 
BRANCH   3  10
ATOM      9  C   UNL     1      40.432   5.815  16.541  0.00  0.00    +0.000 C 
ATOM     10  C   UNL     1      39.044   5.514  17.048  0.00  0.00    +0.000 C 
ATOM     11  C   UNL     1      38.124   6.730  16.877  0.00  0.00    +0.000 C 
ATOM     12  C   UNL     1      39.108   5.087  18.496  0.00  0.00    +0.000 C 
ENDBRANCH   3  10
ENDBRANCH   2   6
ENDBRANCH   1   2
BRANCH   1  13
ATOM     13  C   UNL     1      37.688  -0.467  15.604  0.00  0.00    +0.000 C 
BRANCH  13  14
ATOM     14  C   UNL     1      36.418  -1.062  16.056  0.00  0.00    +0.000 A 
ATOM     15  C   UNL     1      35.579  -0.470  16.999  0.00  0.00    +0.000 A 
ATOM     16  C   UNL     1      34.401  -1.111  17.382  0.00  0.00    +0.000 A 
ATOM     17  C   UNL     1      34.035  -2.325  16.854  0.00  0.00    +0.000 A 
ATOM     18  C   UNL     1      34.853  -2.901  15.935  0.00  0.00    +0.000 A 
ATOM     19  C   UNL     1      36.024  -2.273  15.548  0.00  0.00    +0.000 A 
ENDBRANCH  13  14
ENDBRANCH   1  13
BRANCH   1  20
ATOM     20  C   UNL     1      38.333  -0.687  13.274  0.00  0.00    +0.000 C 
BRANCH  20  21
ATOM     21  C   UNL     1      39.736  -1.067  13.684  0.00  0.00    +0.000 A 
ATOM     22  C   UNL     1      40.207  -2.303  14.080  0.00  0.00    +0.000 A 
ATOM     23  C   UNL     1      41.546  -2.167  14.357  0.00  0.00    +0.000 A 
ATOM     24  C   UNL     1      41.860  -0.834  14.120  0.00  0.00    +0.000 A 
ATOM     25  O   UNL     1      40.763  -0.266  13.734  0.00  0.00    +0.000 OA
BRANCH  24  26
ATOM     26  C   UNL     1      43.193  -0.226  14.284  0.00  0.00    +0.000 C 
ATOM     27  O   UNL     1      43.483   0.758  13.588  0.00  0.00    +0.000 OA
ATOM     28  N   UNL     1      44.116  -0.748  15.213  0.00  0.00    +0.000 NA
BRANCH  28  29
ATOM     29  C   UNL     1      45.441  -0.173  15.407  0.00  0.00    +0.000 C 
ATOM     30  C   UNL     1      45.760  -0.043  16.917  0.00  0.00    +0.000 C 
ATOM     31  C   UNL     1      46.385  -1.171  16.101  0.00  0.00    +0.000 C 
ENDBRANCH  28  29
ENDBRANCH  24  26
ENDBRANCH  20  21
ENDBRANCH   1  20
TORSDOF 9
ENDMDL
