MODEL 1
REMARK VINA RESULT:      -7.1      0.000      0.000
REMARK  Name = 
REMARK  4 active torsions:
REMARK  status: ('A' for Active; 'I' for Inactive)
REMARK    1  A    between atoms: N_2  and  C_4
REMARK    2  A    between atoms: C_7  and  C_8
REMARK    3  A    between atoms: C_8  and  N_9
REMARK    4  A    between atoms: N_9  and  C_10
REMARK                            x       y       z     vdW  Elec       q    Type
REMARK                         _______ _______ _______ _____ _____    ______ ____
ROOT
ATOM      1  N   UNL     1      18.347   9.454  36.557  0.00  0.00    +0.000 NA
ENDROOT
BRANCH   1   2
ATOM      2  C   UNL     1      17.460  10.189  35.715  0.00  0.00    +0.000 A 
ATOM      3  C   UNL     1      16.586  11.131  36.245  0.00  0.00    +0.000 A 
ATOM      4  C   UNL     1      15.732  11.837  35.424  0.00  0.00    +0.000 A 
ATOM      5  C   UNL     1      15.707  11.642  34.054  0.00  0.00    +0.000 A 
ATOM      6  C   UNL     1      16.566  10.714  33.519  0.00  0.00    +0.000 A 
ATOM      7  C   UNL     1      17.420  10.008  34.347  0.00  0.00    +0.000 A 
ATOM      8  O   UNL     1      16.541  10.518  32.143  0.00  0.00    +0.000 OA
ATOM      9  C   UNL     1      16.012  11.485  31.255  0.00  0.00    +0.000 C 
ATOM     10  C   UNL     1      14.689  11.978  31.843  0.00  0.00    +0.000 C 
ATOM     11  O   UNL     1      14.872  12.326  33.203  0.00  0.00    +0.000 OA
ENDBRANCH   1   2
BRANCH   1  12
ATOM     12  C   UNL     1      18.814  10.103  37.766  0.00  0.00    +0.000 C 
BRANCH  12  16
ATOM     13  C   UNL     1      22.937  10.931  37.061  0.00  0.00    +0.000 A 
ATOM     14  C   UNL     1      22.297   9.921  36.368  0.00  0.00    +0.000 A 
ATOM     15  C   UNL     1      20.967   9.672  36.612  0.00  0.00    +0.000 A 
ATOM     16  C   UNL     1      20.270  10.410  37.531  0.00  0.00    +0.000 A 
ATOM     17  C   UNL     1      20.906  11.410  38.215  0.00  0.00    +0.000 A 
ATOM     18  C   UNL     1      22.236  11.657  37.970  0.00  0.00    +0.000 A 
BRANCH  13  20
ATOM     19  O   UNL     1      24.888  12.206  37.272  0.00  0.00    +0.000 OA
ATOM     20  N   UNL     1      24.308  11.200  36.820  0.00  0.00    +0.000 N 
ATOM     21  O   UNL     1      25.065  10.341  36.062  0.00  0.00    +0.000 OA
ENDBRANCH  13  20
ENDBRANCH  12  16
ENDBRANCH   1  12
TORSDOF 4
ENDMDL
MODEL 2
REMARK VINA RESULT:      -6.9      1.826      7.385
REMARK  Name = 
REMARK  4 active torsions:
REMARK  status: ('A' for Active; 'I' for Inactive)
REMARK    1  A    between atoms: N_2  and  C_4
REMARK    2  A    between atoms: C_7  and  C_8
REMARK    3  A    between atoms: C_8  and  N_9
REMARK    4  A    between atoms: N_9  and  C_10
REMARK                            x       y       z     vdW  Elec       q    Type
REMARK                         _______ _______ _______ _____ _____    ______ ____
ROOT
ATOM      1  N   UNL     1      18.332   9.433  36.843  0.00  0.00    +0.000 NA
ENDROOT
BRANCH   1   2
ATOM      2  C   UNL     1      19.593  10.043  37.112  0.00  0.00    +0.000 A 
ATOM      3  C   UNL     1      19.704  11.081  38.030  0.00  0.00    +0.000 A 
ATOM      4  C   UNL     1      20.927  11.665  38.283  0.00  0.00    +0.000 A 
ATOM      5  C   UNL     1      22.084  11.250  37.645  0.00  0.00    +0.000 A 
ATOM      6  C   UNL     1      21.986  10.225  36.736  0.00  0.00    +0.000 A 
ATOM      7  C   UNL     1      20.756   9.643  36.485  0.00  0.00    +0.000 A 
ATOM      8  O   UNL     1      23.146   9.807  36.094  0.00  0.00    +0.000 OA
ATOM      9  C   UNL     1      24.433  10.075  36.619  0.00  0.00    +0.000 C 
ATOM     10  C   UNL     1      24.455  11.536  37.068  0.00  0.00    +0.000 C 
ATOM     11  O   UNL     1      23.320  11.806  37.871  0.00  0.00    +0.000 OA
ENDBRANCH   1   2
BRANCH   1  12
ATOM     12  C   UNL     1      17.150  10.266  36.943  0.00  0.00    +0.000 C 
BRANCH  12  16
ATOM     13  C   UNL     1      16.047  11.302  32.956  0.00  0.00    +0.000 A 
ATOM     14  C   UNL     1      15.425  11.903  34.034  0.00  0.00    +0.000 A 
ATOM     15  C   UNL     1      15.797  11.553  35.311  0.00  0.00    +0.000 A 
ATOM     16  C   UNL     1      16.774  10.618  35.527  0.00  0.00    +0.000 A 
ATOM     17  C   UNL     1      17.390  10.026  34.459  0.00  0.00    +0.000 A 
ATOM     18  C   UNL     1      17.015  10.377  33.183  0.00  0.00    +0.000 A 
BRANCH  13  20
ATOM     19  O   UNL     1      16.224  12.575  31.001  0.00  0.00    +0.000 OA
ATOM     20  N   UNL     1      15.675  11.653  31.634  0.00  0.00    +0.000 N 
ATOM     21  O   UNL     1      14.672  10.974  30.988  0.00  0.00    +0.000 OA
ENDBRANCH  13  20
ENDBRANCH  12  16
ENDBRANCH   1  12
TORSDOF 4
ENDMDL
MODEL 3
REMARK VINA RESULT:      -6.9      1.545      2.438
REMARK  Name = 
REMARK  4 active torsions:
REMARK  status: ('A' for Active; 'I' for Inactive)
REMARK    1  A    between atoms: N_2  and  C_4
REMARK    2  A    between atoms: C_7  and  C_8
REMARK    3  A    between atoms: C_8  and  N_9
REMARK    4  A    between atoms: N_9  and  C_10
REMARK                            x       y       z     vdW  Elec       q    Type
REMARK                         _______ _______ _______ _____ _____    ______ ____
ROOT
ATOM      1  N   UNL     1      16.554  10.777  36.152  0.00  0.00    +0.000 NA
ENDROOT
BRANCH   1   2
ATOM      2  C   UNL     1      16.280  11.060  34.781  0.00  0.00    +0.000 A 
ATOM      3  C   UNL     1      16.898  10.342  33.764  0.00  0.00    +0.000 A 
ATOM      4  C   UNL     1      16.627  10.622  32.442  0.00  0.00    +0.000 A 
ATOM      5  C   UNL     1      15.739  11.618  32.071  0.00  0.00    +0.000 A 
ATOM      6  C   UNL     1      15.123  12.334  33.066  0.00  0.00    +0.000 A 
ATOM      7  C   UNL     1      15.398  12.049  34.392  0.00  0.00    +0.000 A 
ATOM      8  O   UNL     1      14.231  13.334  32.696  0.00  0.00    +0.000 OA
ATOM      9  C   UNL     1      13.624  13.364  31.418  0.00  0.00    +0.000 C 
ATOM     10  C   UNL     1      14.712  13.077  30.382  0.00  0.00    +0.000 C 
ATOM     11  O   UNL     1      15.444  11.927  30.765  0.00  0.00    +0.000 OA
ENDBRANCH   1   2
BRANCH   1  12
ATOM     12  C   UNL     1      17.410   9.645  36.444  0.00  0.00    +0.000 C 
BRANCH  12  16
ATOM     13  C   UNL     1      21.087  11.250  37.888  0.00  0.00    +0.000 A 
ATOM     14  C   UNL     1      21.082  10.134  37.072  0.00  0.00    +0.000 A 
ATOM     15  C   UNL     1      19.884   9.634  36.618  0.00  0.00    +0.000 A 
ATOM     16  C   UNL     1      18.698  10.226  36.964  0.00  0.00    +0.000 A 
ATOM     17  C   UNL     1      18.706  11.331  37.771  0.00  0.00    +0.000 A 
ATOM     18  C   UNL     1      19.905  11.828  38.224  0.00  0.00    +0.000 A 
BRANCH  13  20
ATOM     19  O   UNL     1      22.409  12.403  39.437  0.00  0.00    +0.000 OA
ATOM     20  N   UNL     1      22.314  11.778  38.364  0.00  0.00    +0.000 N 
ATOM     21  O   UNL     1      23.470  11.615  37.641  0.00  0.00    +0.000 OA
ENDBRANCH  13  20
ENDBRANCH  12  16
ENDBRANCH   1  12
TORSDOF 4
ENDMDL
MODEL 4
REMARK VINA RESULT:      -6.8      4.490      5.776
REMARK  Name = 
REMARK  4 active torsions:
REMARK  status: ('A' for Active; 'I' for Inactive)
REMARK    1  A    between atoms: N_2  and  C_4
REMARK    2  A    between atoms: C_7  and  C_8
REMARK    3  A    between atoms: C_8  and  N_9
REMARK    4  A    between atoms: N_9  and  C_10
REMARK                            x       y       z     vdW  Elec       q    Type
REMARK                         _______ _______ _______ _____ _____    ______ ____
ROOT
ATOM      1  N   UNL     1      16.568  10.643  37.789  0.00  0.00    +0.000 NA
ENDROOT
BRANCH   1   2
ATOM      2  C   UNL     1      16.601  10.623  36.363  0.00  0.00    +0.000 A 
ATOM      3  C   UNL     1      17.455   9.765  35.679  0.00  0.00    +0.000 A 
ATOM      4  C   UNL     1      17.480   9.752  34.301  0.00  0.00    +0.000 A 
ATOM      5  C   UNL     1      16.666  10.580  33.546  0.00  0.00    +0.000 A 
ATOM      6  C   UNL     1      15.818  11.430  34.210  0.00  0.00    +0.000 A 
ATOM      7  C   UNL     1      15.797  11.440  35.594  0.00  0.00    +0.000 A 
ATOM      8  O   UNL     1      15.000  12.262  33.454  0.00  0.00    +0.000 OA
ATOM      9  C   UNL     1      14.696  11.986  32.099  0.00  0.00    +0.000 C 
ATOM     10  C   UNL     1      15.997  11.584  31.405  0.00  0.00    +0.000 C 
ATOM     11  O   UNL     1      16.662  10.595  32.172  0.00  0.00    +0.000 OA
ENDBRANCH   1   2
BRANCH   1  12
ATOM     12  C   UNL     1      17.792  10.310  38.492  0.00  0.00    +0.000 C 
BRANCH  12  16
ATOM     13  C   UNL     1      16.672   7.769  41.728  0.00  0.00    +0.000 A 
ATOM     14  C   UNL     1      17.826   7.520  41.008  0.00  0.00    +0.000 A 
ATOM     15  C   UNL     1      18.167   8.353  39.969  0.00  0.00    +0.000 A 
ATOM     16  C   UNL     1      17.379   9.424  39.638  0.00  0.00    +0.000 A 
ATOM     17  C   UNL     1      16.238   9.668  40.352  0.00  0.00    +0.000 A 
ATOM     18  C   UNL     1      15.899   8.833  41.391  0.00  0.00    +0.000 A 
BRANCH  13  20
ATOM     19  O   UNL     1      15.405   7.205  43.613  0.00  0.00    +0.000 OA
ATOM     20  N   UNL     1      16.308   6.919  42.803  0.00  0.00    +0.000 N 
ATOM     21  O   UNL     1      16.952   5.722  42.996  0.00  0.00    +0.000 OA
ENDBRANCH  13  20
ENDBRANCH  12  16
ENDBRANCH   1  12
TORSDOF 4
ENDMDL
MODEL 5
REMARK VINA RESULT:      -6.7      2.143      3.083
REMARK  Name = 
REMARK  4 active torsions:
REMARK  status: ('A' for Active; 'I' for Inactive)
REMARK    1  A    between atoms: N_2  and  C_4
REMARK    2  A    between atoms: C_7  and  C_8
REMARK    3  A    between atoms: C_8  and  N_9
REMARK    4  A    between atoms: N_9  and  C_10
REMARK                            x       y       z     vdW  Elec       q    Type
REMARK                         _______ _______ _______ _____ _____    ______ ____
ROOT
ATOM      1  N   UNL     1      15.433  11.190  36.342  0.00  0.00    +0.000 NA
ENDROOT
BRANCH   1   2
ATOM      2  C   UNL     1      14.962  11.984  35.256  0.00  0.00    +0.000 A 
ATOM      3  C   UNL     1      14.199  13.124  35.481  0.00  0.00    +0.000 A 
ATOM      4  C   UNL     1      13.747  13.887  34.425  0.00  0.00    +0.000 A 
ATOM      5  C   UNL     1      14.030  13.556  33.110  0.00  0.00    +0.000 A 
ATOM      6  C   UNL     1      14.782  12.433  32.875  0.00  0.00    +0.000 A 
ATOM      7  C   UNL     1      15.233  11.671  33.939  0.00  0.00    +0.000 A 
ATOM      8  O   UNL     1      15.066  12.100  31.556  0.00  0.00    +0.000 OA
ATOM      9  C   UNL     1      14.993  13.049  30.508  0.00  0.00    +0.000 C 
ATOM     10  C   UNL     1      13.697  13.841  30.692  0.00  0.00    +0.000 C 
ATOM     11  O   UNL     1      13.598  14.290  32.031  0.00  0.00    +0.000 OA
ENDBRANCH   1   2
BRANCH   1  12
ATOM     12  C   UNL     1      16.121  11.871  37.421  0.00  0.00    +0.000 C 
BRANCH  12  16
ATOM     13  C   UNL     1      20.126  10.409  37.426  0.00  0.00    +0.000 A 
ATOM     14  C   UNL     1      19.838  11.665  37.926  0.00  0.00    +0.000 A 
ATOM     15  C   UNL     1      18.539  12.116  37.914  0.00  0.00    +0.000 A 
ATOM     16  C   UNL     1      17.529  11.337  37.414  0.00  0.00    +0.000 A 
ATOM     17  C   UNL     1      17.817  10.094  36.921  0.00  0.00    +0.000 A 
ATOM     18  C   UNL     1      19.117   9.646  36.934  0.00  0.00    +0.000 A 
BRANCH  13  20
ATOM     19  O   UNL     1      22.004   9.459  38.450  0.00  0.00    +0.000 OA
ATOM     20  N   UNL     1      21.461   9.930  37.432  0.00  0.00    +0.000 N 
ATOM     21  O   UNL     1      22.221   9.970  36.290  0.00  0.00    +0.000 OA
ENDBRANCH  13  20
ENDBRANCH  12  16
ENDBRANCH   1  12
TORSDOF 4
ENDMDL
MODEL 6
REMARK VINA RESULT:      -6.6      3.602      7.923
REMARK  Name = 
REMARK  4 active torsions:
REMARK  status: ('A' for Active; 'I' for Inactive)
REMARK    1  A    between atoms: N_2  and  C_4
REMARK    2  A    between atoms: C_7  and  C_8
REMARK    3  A    between atoms: C_8  and  N_9
REMARK    4  A    between atoms: N_9  and  C_10
REMARK                            x       y       z     vdW  Elec       q    Type
REMARK                         _______ _______ _______ _____ _____    ______ ____
ROOT
ATOM      1  N   UNL     1      17.991  10.432  35.971  0.00  0.00    +0.000 NA
ENDROOT
BRANCH   1   2
ATOM      2  C   UNL     1      17.854  10.009  37.327  0.00  0.00    +0.000 A 
ATOM      3  C   UNL     1      16.767  10.409  38.095  0.00  0.00    +0.000 A 
ATOM      4  C   UNL     1      16.643   9.995  39.404  0.00  0.00    +0.000 A 
ATOM      5  C   UNL     1      17.582   9.173  40.005  0.00  0.00    +0.000 A 
ATOM      6  C   UNL     1      18.660   8.772  39.256  0.00  0.00    +0.000 A 
ATOM      7  C   UNL     1      18.780   9.191  37.942  0.00  0.00    +0.000 A 
ATOM      8  O   UNL     1      19.604   7.948  39.857  0.00  0.00    +0.000 OA
ATOM      9  C   UNL     1      19.307   7.182  41.010  0.00  0.00    +0.000 C 
ATOM     10  C   UNL     1      18.551   8.087  41.984  0.00  0.00    +0.000 C 
ATOM     11  O   UNL     1      17.493   8.740  41.306  0.00  0.00    +0.000 OA
ENDBRANCH   1   2
BRANCH   1  12
ATOM     12  C   UNL     1      17.365   9.616  34.949  0.00  0.00    +0.000 C 
BRANCH  12  16
ATOM     13  C   UNL     1      15.042  12.268  32.551  0.00  0.00    +0.000 A 
ATOM     14  C   UNL     1      15.930  11.387  31.963  0.00  0.00    +0.000 A 
ATOM     15  C   UNL     1      16.669  10.542  32.756  0.00  0.00    +0.000 A 
ATOM     16  C   UNL     1      16.536  10.561  34.119  0.00  0.00    +0.000 A 
ATOM     17  C   UNL     1      15.656  11.433  34.699  0.00  0.00    +0.000 A 
ATOM     18  C   UNL     1      14.919  12.278  33.903  0.00  0.00    +0.000 A 
BRANCH  13  20
ATOM     19  O   UNL     1      13.587  14.071  32.222  0.00  0.00    +0.000 OA
ATOM     20  N   UNL     1      14.273  13.146  31.746  0.00  0.00    +0.000 N 
ATOM     21  O   UNL     1      14.254  13.005  30.381  0.00  0.00    +0.000 OA
ENDBRANCH  13  20
ENDBRANCH  12  16
ENDBRANCH   1  12
TORSDOF 4
ENDMDL
MODEL 7
REMARK VINA RESULT:      -6.5      3.982      4.629
REMARK  Name = 
REMARK  4 active torsions:
REMARK  status: ('A' for Active; 'I' for Inactive)
REMARK    1  A    between atoms: N_2  and  C_4
REMARK    2  A    between atoms: C_7  and  C_8
REMARK    3  A    between atoms: C_8  and  N_9
REMARK    4  A    between atoms: N_9  and  C_10
REMARK                            x       y       z     vdW  Elec       q    Type
REMARK                         _______ _______ _______ _____ _____    ______ ____
ROOT
ATOM      1  N   UNL     1      15.781  10.949  36.402  0.00  0.00    +0.000 NA
ENDROOT
BRANCH   1   2
ATOM      2  C   UNL     1      15.228  11.766  35.373  0.00  0.00    +0.000 A 
ATOM      3  C   UNL     1      14.409  12.847  35.679  0.00  0.00    +0.000 A 
ATOM      4  C   UNL     1      13.879  13.631  34.677  0.00  0.00    +0.000 A 
ATOM      5  C   UNL     1      14.135  13.383  33.339  0.00  0.00    +0.000 A 
ATOM      6  C   UNL     1      14.943  12.318  33.024  0.00  0.00    +0.000 A 
ATOM      7  C   UNL     1      15.472  11.534  34.034  0.00  0.00    +0.000 A 
ATOM      8  O   UNL     1      15.201  12.068  31.682  0.00  0.00    +0.000 OA
ATOM      9  C   UNL     1      15.038  13.061  30.687  0.00  0.00    +0.000 C 
ATOM     10  C   UNL     1      13.706  13.764  30.950  0.00  0.00    +0.000 C 
ATOM     11  O   UNL     1      13.626  14.142  32.312  0.00  0.00    +0.000 OA
ENDBRANCH   1   2
BRANCH   1  12
ATOM     12  C   UNL     1      16.954  11.446  37.095  0.00  0.00    +0.000 C 
BRANCH  12  16
ATOM     13  C   UNL     1      17.945   8.498  40.011  0.00  0.00    +0.000 A 
ATOM     14  C   UNL     1      18.732   8.665  38.888  0.00  0.00    +0.000 A 
ATOM     15  C   UNL     1      18.393   9.622  37.961  0.00  0.00    +0.000 A 
ATOM     16  C   UNL     1      17.287  10.410  38.136  0.00  0.00    +0.000 A 
ATOM     17  C   UNL     1      16.510  10.244  39.250  0.00  0.00    +0.000 A 
ATOM     18  C   UNL     1      16.851   9.286  40.175  0.00  0.00    +0.000 A 
BRANCH  13  20
ATOM     19  O   UNL     1      19.182   7.682  41.823  0.00  0.00    +0.000 OA
ATOM     20  N   UNL     1      18.282   7.516  40.977  0.00  0.00    +0.000 N 
ATOM     21  O   UNL     1      17.614   6.317  41.015  0.00  0.00    +0.000 OA
ENDBRANCH  13  20
ENDBRANCH  12  16
ENDBRANCH   1  12
TORSDOF 4
ENDMDL
MODEL 8
REMARK VINA RESULT:      -6.4      3.434      8.116
REMARK  Name = 
REMARK  4 active torsions:
REMARK  status: ('A' for Active; 'I' for Inactive)
REMARK    1  A    between atoms: N_2  and  C_4
REMARK    2  A    between atoms: C_7  and  C_8
REMARK    3  A    between atoms: C_8  and  N_9
REMARK    4  A    between atoms: N_9  and  C_10
REMARK                            x       y       z     vdW  Elec       q    Type
REMARK                         _______ _______ _______ _____ _____    ______ ____
ROOT
ATOM      1  N   UNL     1      15.616  11.101  36.697  0.00  0.00    +0.000 NA
ENDROOT
BRANCH   1   2
ATOM      2  C   UNL     1      16.862  11.172  37.389  0.00  0.00    +0.000 A 
ATOM      3  C   UNL     1      17.745  12.222  37.168  0.00  0.00    +0.000 A 
ATOM      4  C   UNL     1      18.946  12.282  37.842  0.00  0.00    +0.000 A 
ATOM      5  C   UNL     1      19.322  11.314  38.757  0.00  0.00    +0.000 A 
ATOM      6  C   UNL     1      18.457  10.272  38.984  0.00  0.00    +0.000 A 
ATOM      7  C   UNL     1      17.253  10.216  38.305  0.00  0.00    +0.000 A 
ATOM      8  O   UNL     1      18.833   9.299  39.903  0.00  0.00    +0.000 OA
ATOM      9  C   UNL     1      19.817   9.539  40.892  0.00  0.00    +0.000 C 
ATOM     10  C   UNL     1      20.990  10.249  40.214  0.00  0.00    +0.000 C 
ATOM     11  O   UNL     1      20.510  11.339  39.448  0.00  0.00    +0.000 OA
ENDBRANCH   1   2
BRANCH   1  12
ATOM     12  C   UNL     1      14.812  12.306  36.641  0.00  0.00    +0.000 C 
BRANCH  12  16
ATOM     13  C   UNL     1      14.360  13.145  32.485  0.00  0.00    +0.000 A 
ATOM     14  C   UNL     1      15.115  12.066  32.904  0.00  0.00    +0.000 A 
ATOM     15  C   UNL     1      15.247  11.815  34.250  0.00  0.00    +0.000 A 
ATOM     16  C   UNL     1      14.641  12.619  35.178  0.00  0.00    +0.000 A 
ATOM     17  C   UNL     1      13.892  13.686  34.761  0.00  0.00    +0.000 A 
ATOM     18  C   UNL     1      13.763  13.935  33.415  0.00  0.00    +0.000 A 
BRANCH  13  20
ATOM     19  O   UNL     1      13.122  13.723  30.585  0.00  0.00    +0.000 OA
ATOM     20  N   UNL     1      14.214  13.417  31.101  0.00  0.00    +0.000 N 
ATOM     21  O   UNL     1      15.296  13.348  30.259  0.00  0.00    +0.000 OA
ENDBRANCH  13  20
ENDBRANCH  12  16
ENDBRANCH   1  12
TORSDOF 4
ENDMDL
MODEL 9
REMARK VINA RESULT:      -6.2      4.695      8.016
REMARK  Name = 
REMARK  4 active torsions:
REMARK  status: ('A' for Active; 'I' for Inactive)
REMARK    1  A    between atoms: N_2  and  C_4
REMARK    2  A    between atoms: C_7  and  C_8
REMARK    3  A    between atoms: C_8  and  N_9
REMARK    4  A    between atoms: N_9  and  C_10
REMARK                            x       y       z     vdW  Elec       q    Type
REMARK                         _______ _______ _______ _____ _____    ______ ____
ROOT
ATOM      1  N   UNL     1      18.763   9.183  38.410  0.00  0.00    +0.000 NA
ENDROOT
BRANCH   1   2
ATOM      2  C   UNL     1      18.149   8.584  39.549  0.00  0.00    +0.000 A 
ATOM      3  C   UNL     1      17.098   9.212  40.208  0.00  0.00    +0.000 A 
ATOM      4  C   UNL     1      16.510   8.626  41.309  0.00  0.00    +0.000 A 
ATOM      5  C   UNL     1      16.933   7.403  41.801  0.00  0.00    +0.000 A 
ATOM      6  C   UNL     1      17.969   6.773  41.158  0.00  0.00    +0.000 A 
ATOM      7  C   UNL     1      18.556   7.366  40.054  0.00  0.00    +0.000 A 
ATOM      8  O   UNL     1      18.395   5.545  41.651  0.00  0.00    +0.000 OA
ATOM      9  C   UNL     1      17.573   4.741  42.476  0.00  0.00    +0.000 C 
ATOM     10  C   UNL     1      16.938   5.654  43.526  0.00  0.00    +0.000 C 
ATOM     11  O   UNL     1      16.372   6.787  42.894  0.00  0.00    +0.000 OA
ENDBRANCH   1   2
BRANCH   1  12
ATOM     12  C   UNL     1      18.448  10.570  38.130  0.00  0.00    +0.000 C 
BRANCH  12  16
ATOM     13  C   UNL     1      16.680  10.660  34.251  0.00  0.00    +0.000 A 
ATOM     14  C   UNL     1      16.477  11.700  35.138  0.00  0.00    +0.000 A 
ATOM     15  C   UNL     1      17.057  11.650  36.383  0.00  0.00    +0.000 A 
ATOM     16  C   UNL     1      17.832  10.583  36.756  0.00  0.00    +0.000 A 
ATOM     17  C   UNL     1      18.032   9.555  35.876  0.00  0.00    +0.000 A 
ATOM     18  C   UNL     1      17.450   9.608  34.631  0.00  0.00    +0.000 A 
BRANCH  13  20
ATOM     19  O   UNL     1      16.680  10.308  31.938  0.00  0.00    +0.000 OA
ATOM     20  N   UNL     1      16.089  10.697  32.963  0.00  0.00    +0.000 N 
ATOM     21  O   UNL     1      14.814  11.178  32.794  0.00  0.00    +0.000 OA
ENDBRANCH  13  20
ENDBRANCH  12  16
ENDBRANCH   1  12
TORSDOF 4
ENDMDL
MODEL 10
REMARK VINA RESULT:      -6.2     17.845     20.860
REMARK  Name = 
REMARK  4 active torsions:
REMARK  status: ('A' for Active; 'I' for Inactive)
REMARK    1  A    between atoms: N_2  and  C_4
REMARK    2  A    between atoms: C_7  and  C_8
REMARK    3  A    between atoms: C_8  and  N_9
REMARK    4  A    between atoms: N_9  and  C_10
REMARK                            x       y       z     vdW  Elec       q    Type
REMARK                         _______ _______ _______ _____ _____    ______ ____
ROOT
ATOM      1  N   UNL     1      33.763  -4.182  33.716  0.00  0.00    +0.000 NA
ENDROOT
BRANCH   1   2
ATOM      2  C   UNL     1      33.395  -5.063  32.656  0.00  0.00    +0.000 A 
ATOM      3  C   UNL     1      32.238  -5.829  32.732  0.00  0.00    +0.000 A 
ATOM      4  C   UNL     1      31.890  -6.679  31.703  0.00  0.00    +0.000 A 
ATOM      5  C   UNL     1      32.666  -6.804  30.563  0.00  0.00    +0.000 A 
ATOM      6  C   UNL     1      33.811  -6.053  30.477  0.00  0.00    +0.000 A 
ATOM      7  C   UNL     1      34.156  -5.202  31.513  0.00  0.00    +0.000 A 
ATOM      8  O   UNL     1      34.591  -6.178  29.334  0.00  0.00    +0.000 OA
ATOM      9  C   UNL     1      34.070  -6.690  28.121  0.00  0.00    +0.000 C 
ATOM     10  C   UNL     1      33.246  -7.932  28.459  0.00  0.00    +0.000 C 
ATOM     11  O   UNL     1      32.352  -7.639  29.518  0.00  0.00    +0.000 OA
ENDBRANCH   1   2
BRANCH   1  12
ATOM     12  C   UNL     1      32.696  -3.503  34.424  0.00  0.00    +0.000 C 
BRANCH  12  16
ATOM     13  C   UNL     1      33.433   0.653  33.822  0.00  0.00    +0.000 A 
ATOM     14  C   UNL     1      34.157  -0.295  33.125  0.00  0.00    +0.000 A 
ATOM     15  C   UNL     1      33.902  -1.630  33.335  0.00  0.00    +0.000 A 
ATOM     16  C   UNL     1      32.941  -2.030  34.225  0.00  0.00    +0.000 A 
ATOM     17  C   UNL     1      32.225  -1.090  34.914  0.00  0.00    +0.000 A 
ATOM     18  C   UNL     1      32.483   0.244  34.702  0.00  0.00    +0.000 A 
BRANCH  13  20
ATOM     19  O   UNL     1      33.762   2.852  34.552  0.00  0.00    +0.000 OA
ATOM     20  N   UNL     1      33.684   2.034  33.616  0.00  0.00    +0.000 N 
ATOM     21  O   UNL     1      33.852   2.530  32.347  0.00  0.00    +0.000 OA
ENDBRANCH  13  20
ENDBRANCH  12  16
ENDBRANCH   1  12
TORSDOF 4
ENDMDL
