MODEL 1
REMARK VINA RESULT:      -8.2      0.000      0.000
REMARK  Name = 
REMARK  8 active torsions:
REMARK  status: ('A' for Active; 'I' for Inactive)
REMARK    1  A    between atoms: O_2  and  C_3
REMARK    2  A    between atoms: C_9  and  C_10
REMARK    3  A    between atoms: N_12  and  C_13
REMARK    4  A    between atoms: C_13  and  C_15
REMARK    5  A    between atoms: C_15  and  C_16
REMARK    6  A    between atoms: C_16  and  C_17
REMARK    7  A    between atoms: N_25  and  C_26
REMARK    8  A    between atoms: C_26  and  C_27
REMARK                            x       y       z     vdW  Elec       q    Type
REMARK                         _______ _______ _______ _____ _____    ______ ____
ROOT
ATOM      1  C   UNL     1      40.925  -1.740  14.397  0.00  0.00    +0.000 A 
ATOM      2  C   UNL     1      40.519  -2.829  15.137  0.00  0.00    +0.000 A 
ATOM      3  C   UNL     1      39.326  -2.890  15.829  0.00  0.00    +0.000 A 
ATOM      4  C   UNL     1      38.460  -1.813  15.806  0.00  0.00    +0.000 A 
ATOM      5  C   UNL     1      38.858  -0.720  15.069  0.00  0.00    +0.000 A 
ATOM      6  C   UNL     1      40.042  -0.651  14.377  0.00  0.00    +0.000 A 
ATOM      7  C   UNL     1      37.848   0.193  15.204  0.00  0.00    +0.000 A 
ATOM      8  C   UNL     1      36.859  -0.355  16.016  0.00  0.00    +0.000 A 
ATOM      9  C   UNL     1      35.581   0.273  16.436  0.00  0.00    +0.000 C 
ATOM     10  N   UNL     1      37.261  -1.594  16.375  0.00  0.00    +0.000 N 
ENDROOT
BRANCH   7  11
ATOM     11  C   UNL     1      37.759   1.518  14.614  0.00  0.00    +0.000 C 
ATOM     12  O   UNL     1      37.167   1.740  13.523  0.00  0.00    +0.000 OA
ATOM     13  N   UNL     1      38.342   2.589  15.267  0.00  0.00    +0.000 NA
BRANCH  13  14
ATOM     14  C   UNL     1      38.257   4.020  14.667  0.00  0.00    +0.000 C 
ATOM     15  C   UNL     1      37.087   4.543  15.675  0.00  0.00    +0.000 C 
BRANCH  14  16
ATOM     16  C   UNL     1      39.461   4.569  15.665  0.00  0.00    +0.000 C 
BRANCH  16  17
ATOM     17  C   UNL     1      38.703   5.350  16.726  0.00  0.00    +0.000 C 
BRANCH  17  18
ATOM     18  C   UNL     1      39.784   5.825  17.667  0.00  0.00    +0.000 A 
ATOM     19  C   UNL     1      41.033   6.197  17.243  0.00  0.00    +0.000 A 
ATOM     20  C   UNL     1      42.030   6.618  18.094  0.00  0.00    +0.000 A 
ATOM     21  C   UNL     1      41.691   6.642  19.443  0.00  0.00    +0.000 A 
ATOM     22  C   UNL     1      40.440   6.269  19.869  0.00  0.00    +0.000 A 
ATOM     23  C   UNL     1      39.452   5.851  19.003  0.00  0.00    +0.000 A 
ENDBRANCH  17  18
ENDBRANCH  16  17
ENDBRANCH  14  16
ENDBRANCH  13  14
ENDBRANCH   7  11
BRANCH   1  25
ATOM     24  C   UNL     1      42.540  -2.689  12.795  0.00  0.00    +0.000 C 
ATOM     25  O   UNL     1      42.131  -1.694  13.703  0.00  0.00    +0.000 OA
ENDBRANCH   1  25
BRANCH  10  26
ATOM     26  C   UNL     1      36.464  -2.481  17.235  0.00  0.00    +0.000 C 
BRANCH  26  27
ATOM     27  C   UNL     1      35.773  -3.510  16.433  0.00  0.00    +0.000 A 
ATOM     28  C   UNL     1      34.755  -3.256  15.559  0.00  0.00    +0.000 A 
ATOM     29  C   UNL     1      34.362  -4.459  15.001  0.00  0.00    +0.000 A 
ATOM     30  C   UNL     1      35.194  -5.410  15.588  0.00  0.00    +0.000 A 
ATOM     31  O   UNL     1      36.010  -4.776  16.432  0.00  0.00    +0.000 OA
ENDBRANCH  26  27
ENDBRANCH  10  26
TORSDOF 8
ENDMDL
MODEL 2
REMARK VINA RESULT:      -8.0      1.525      2.098
REMARK  Name = 
REMARK  8 active torsions:
REMARK  status: ('A' for Active; 'I' for Inactive)
REMARK    1  A    between atoms: O_2  and  C_3
REMARK    2  A    between atoms: C_9  and  C_10
REMARK    3  A    between atoms: N_12  and  C_13
REMARK    4  A    between atoms: C_13  and  C_15
REMARK    5  A    between atoms: C_15  and  C_16
REMARK    6  A    between atoms: C_16  and  C_17
REMARK    7  A    between atoms: N_25  and  C_26
REMARK    8  A    between atoms: C_26  and  C_27
REMARK                            x       y       z     vdW  Elec       q    Type
REMARK                         _______ _______ _______ _____ _____    ______ ____
ROOT
ATOM      1  C   UNL     1      41.980  -1.145  13.989  0.00  0.00    +0.000 A 
ATOM      2  C   UNL     1      41.563  -2.350  14.510  0.00  0.00    +0.000 A 
ATOM      3  C   UNL     1      40.316  -2.561  15.064  0.00  0.00    +0.000 A 
ATOM      4  C   UNL     1      39.403  -1.525  15.121  0.00  0.00    +0.000 A 
ATOM      5  C   UNL     1      39.812  -0.316  14.602  0.00  0.00    +0.000 A 
ATOM      6  C   UNL     1      41.048  -0.097  14.049  0.00  0.00    +0.000 A 
ATOM      7  C   UNL     1      38.749   0.528  14.775  0.00  0.00    +0.000 A 
ATOM      8  C   UNL     1      37.718  -0.176  15.393  0.00  0.00    +0.000 A 
ATOM      9  C   UNL     1      36.377   0.333  15.776  0.00  0.00    +0.000 C 
ATOM     10  N   UNL     1      38.147  -1.441  15.596  0.00  0.00    +0.000 N 
ENDROOT
BRANCH   7  11
ATOM     11  C   UNL     1      38.647   1.925  14.388  0.00  0.00    +0.000 C 
ATOM     12  O   UNL     1      38.441   2.290  13.200  0.00  0.00    +0.000 OA
ATOM     13  N   UNL     1      38.779   2.904  15.357  0.00  0.00    +0.000 NA
BRANCH  13  14
ATOM     14  C   UNL     1      38.668   4.408  14.978  0.00  0.00    +0.000 C 
ATOM     15  C   UNL     1      37.072   4.531  15.293  0.00  0.00    +0.000 C 
BRANCH  14  16
ATOM     16  C   UNL     1      39.079   4.881  16.512  0.00  0.00    +0.000 C 
BRANCH  16  17
ATOM     17  C   UNL     1      40.165   5.917  16.276  0.00  0.00    +0.000 C 
BRANCH  17  18
ATOM     18  C   UNL     1      40.712   6.189  17.657  0.00  0.00    +0.000 A 
ATOM     19  C   UNL     1      42.034   6.460  17.897  0.00  0.00    +0.000 A 
ATOM     20  C   UNL     1      42.546   6.695  19.153  0.00  0.00    +0.000 A 
ATOM     21  C   UNL     1      41.623   6.638  20.192  0.00  0.00    +0.000 A 
ATOM     22  C   UNL     1      40.297   6.367  19.953  0.00  0.00    +0.000 A 
ATOM     23  C   UNL     1      39.801   6.135  18.689  0.00  0.00    +0.000 A 
ENDBRANCH  17  18
ENDBRANCH  16  17
ENDBRANCH  14  16
ENDBRANCH  13  14
ENDBRANCH   7  11
BRANCH   1  25
ATOM     24  C   UNL     1      43.813  -1.817  12.485  0.00  0.00    +0.000 C 
ATOM     25  O   UNL     1      43.240  -0.947  13.432  0.00  0.00    +0.000 OA
ENDBRANCH   1  25
BRANCH  10  26
ATOM     26  C   UNL     1      37.320  -2.479  16.227  0.00  0.00    +0.000 C 
BRANCH  26  27
ATOM     27  C   UNL     1      37.667  -2.633  17.654  0.00  0.00    +0.000 A 
ATOM     28  C   UNL     1      37.098  -1.920  18.669  0.00  0.00    +0.000 A 
ATOM     29  C   UNL     1      37.675  -2.335  19.857  0.00  0.00    +0.000 A 
ATOM     30  C   UNL     1      38.595  -3.310  19.481  0.00  0.00    +0.000 A 
ATOM     31  O   UNL     1      38.539  -3.437  18.154  0.00  0.00    +0.000 OA
ENDBRANCH  26  27
ENDBRANCH  10  26
TORSDOF 8
ENDMDL
MODEL 3
REMARK VINA RESULT:      -7.9      2.024      7.716
REMARK  Name = 
REMARK  8 active torsions:
REMARK  status: ('A' for Active; 'I' for Inactive)
REMARK    1  A    between atoms: O_2  and  C_3
REMARK    2  A    between atoms: C_9  and  C_10
REMARK    3  A    between atoms: N_12  and  C_13
REMARK    4  A    between atoms: C_13  and  C_15
REMARK    5  A    between atoms: C_15  and  C_16
REMARK    6  A    between atoms: C_16  and  C_17
REMARK    7  A    between atoms: N_25  and  C_26
REMARK    8  A    between atoms: C_26  and  C_27
REMARK                            x       y       z     vdW  Elec       q    Type
REMARK                         _______ _______ _______ _____ _____    ______ ____
ROOT
ATOM      1  C   UNL     1      35.194   0.050  16.560  0.00  0.00    +0.000 A 
ATOM      2  C   UNL     1      34.873   1.336  16.935  0.00  0.00    +0.000 A 
ATOM      3  C   UNL     1      35.587   2.453  16.550  0.00  0.00    +0.000 A 
ATOM      4  C   UNL     1      36.700   2.315  15.741  0.00  0.00    +0.000 A 
ATOM      5  C   UNL     1      37.028   1.032  15.361  0.00  0.00    +0.000 A 
ATOM      6  C   UNL     1      36.323  -0.084  15.738  0.00  0.00    +0.000 A 
ATOM      7  C   UNL     1      38.143   1.162  14.580  0.00  0.00    +0.000 A 
ATOM      8  C   UNL     1      38.474   2.512  14.498  0.00  0.00    +0.000 A 
ATOM      9  C   UNL     1      39.609   3.123  13.760  0.00  0.00    +0.000 C 
ATOM     10  N   UNL     1      37.568   3.203  15.224  0.00  0.00    +0.000 N 
ENDROOT
BRANCH   7  11
ATOM     11  C   UNL     1      38.891   0.111  13.911  0.00  0.00    +0.000 C 
ATOM     12  O   UNL     1      38.803  -0.106  12.672  0.00  0.00    +0.000 OA
ATOM     13  N   UNL     1      39.739  -0.692  14.653  0.00  0.00    +0.000 NA
BRANCH  13  14
ATOM     14  C   UNL     1      40.558  -1.820  13.967  0.00  0.00    +0.000 C 
ATOM     15  C   UNL     1      42.018  -1.243  14.408  0.00  0.00    +0.000 C 
BRANCH  14  16
ATOM     16  C   UNL     1      40.456  -2.786  15.309  0.00  0.00    +0.000 C 
BRANCH  16  17
ATOM     17  C   UNL     1      38.963  -3.024  15.454  0.00  0.00    +0.000 C 
BRANCH  17  18
ATOM     18  C   UNL     1      38.748  -3.080  16.947  0.00  0.00    +0.000 A 
ATOM     19  C   UNL     1      38.920  -4.223  17.685  0.00  0.00    +0.000 A 
ATOM     20  C   UNL     1      38.714  -4.288  19.044  0.00  0.00    +0.000 A 
ATOM     21  C   UNL     1      38.307  -3.100  19.642  0.00  0.00    +0.000 A 
ATOM     22  C   UNL     1      38.134  -1.954  18.905  0.00  0.00    +0.000 A 
ATOM     23  C   UNL     1      38.346  -1.905  17.544  0.00  0.00    +0.000 A 
ENDBRANCH  17  18
ENDBRANCH  16  17
ENDBRANCH  14  16
ENDBRANCH  13  14
ENDBRANCH   7  11
BRANCH   1  25
ATOM     24  C   UNL     1      34.801  -2.383  16.588  0.00  0.00    +0.000 C 
ATOM     25  O   UNL     1      34.463  -1.067  16.956  0.00  0.00    +0.000 OA
ENDBRANCH   1  25
BRANCH  10  26
ATOM     26  C   UNL     1      37.597   4.665  15.366  0.00  0.00    +0.000 C 
BRANCH  26  27
ATOM     27  C   UNL     1      38.512   5.071  16.452  0.00  0.00    +0.000 A 
ATOM     28  C   UNL     1      38.347   4.740  17.766  0.00  0.00    +0.000 A 
ATOM     29  C   UNL     1      39.393   5.298  18.480  0.00  0.00    +0.000 A 
ATOM     30  C   UNL     1      40.160   5.960  17.525  0.00  0.00    +0.000 A 
ATOM     31  O   UNL     1      39.577   5.784  16.338  0.00  0.00    +0.000 OA
ENDBRANCH  26  27
ENDBRANCH  10  26
TORSDOF 8
ENDMDL
MODEL 4
REMARK VINA RESULT:      -7.7      2.068      5.046
REMARK  Name = 
REMARK  8 active torsions:
REMARK  status: ('A' for Active; 'I' for Inactive)
REMARK    1  A    between atoms: O_2  and  C_3
REMARK    2  A    between atoms: C_9  and  C_10
REMARK    3  A    between atoms: N_12  and  C_13
REMARK    4  A    between atoms: C_13  and  C_15
REMARK    5  A    between atoms: C_15  and  C_16
REMARK    6  A    between atoms: C_16  and  C_17
REMARK    7  A    between atoms: N_25  and  C_26
REMARK    8  A    between atoms: C_26  and  C_27
REMARK                            x       y       z     vdW  Elec       q    Type
REMARK                         _______ _______ _______ _____ _____    ______ ____
ROOT
ATOM      1  C   UNL     1      38.551  -2.248  16.218  0.00  0.00    +0.000 A 
ATOM      2  C   UNL     1      39.648  -3.000  15.861  0.00  0.00    +0.000 A 
ATOM      3  C   UNL     1      40.671  -2.540  15.056  0.00  0.00    +0.000 A 
ATOM      4  C   UNL     1      40.628  -1.252  14.557  0.00  0.00    +0.000 A 
ATOM      5  C   UNL     1      39.534  -0.492  14.908  0.00  0.00    +0.000 A 
ATOM      6  C   UNL     1      38.513  -0.941  15.709  0.00  0.00    +0.000 A 
ATOM      7  C   UNL     1      39.725   0.718  14.299  0.00  0.00    +0.000 A 
ATOM      8  C   UNL     1      40.923   0.674  13.590  0.00  0.00    +0.000 A 
ATOM      9  C   UNL     1      41.534   1.757  12.777  0.00  0.00    +0.000 C 
ATOM     10  N   UNL     1      41.461  -0.553  13.765  0.00  0.00    +0.000 N 
ENDROOT
BRANCH   7  11
ATOM     11  C   UNL     1      38.868   1.890  14.356  0.00  0.00    +0.000 C 
ATOM     12  O   UNL     1      38.223   2.312  13.358  0.00  0.00    +0.000 OA
ATOM     13  N   UNL     1      38.747   2.579  15.549  0.00  0.00    +0.000 NA
BRANCH  13  14
ATOM     14  C   UNL     1      37.833   3.833  15.645  0.00  0.00    +0.000 C 
ATOM     15  C   UNL     1      36.619   3.081  16.432  0.00  0.00    +0.000 C 
BRANCH  14  16
ATOM     16  C   UNL     1      38.548   4.313  17.061  0.00  0.00    +0.000 C 
BRANCH  16  17
ATOM     17  C   UNL     1      38.862   5.779  16.812  0.00  0.00    +0.000 C 
BRANCH  17  18
ATOM     18  C   UNL     1      39.938   6.095  17.823  0.00  0.00    +0.000 A 
ATOM     19  C   UNL     1      41.243   6.332  17.476  0.00  0.00    +0.000 A 
ATOM     20  C   UNL     1      42.234   6.607  18.391  0.00  0.00    +0.000 A 
ATOM     21  C   UNL     1      41.828   6.629  19.721  0.00  0.00    +0.000 A 
ATOM     22  C   UNL     1      40.520   6.392  20.070  0.00  0.00    +0.000 A 
ATOM     23  C   UNL     1      39.539   6.119  19.142  0.00  0.00    +0.000 A 
ENDBRANCH  17  18
ENDBRANCH  16  17
ENDBRANCH  14  16
ENDBRANCH  13  14
ENDBRANCH   7  11
BRANCH   1  25
ATOM     24  C   UNL     1      37.666  -2.913  18.420  0.00  0.00    +0.000 C 
ATOM     25  O   UNL     1      37.528  -2.725  17.032  0.00  0.00    +0.000 OA
ENDBRANCH   1  25
BRANCH  10  26
ATOM     26  C   UNL     1      42.737  -0.964  13.164  0.00  0.00    +0.000 C 
BRANCH  26  27
ATOM     27  C   UNL     1      43.779  -1.124  14.197  0.00  0.00    +0.000 A 
ATOM     28  C   UNL     1      44.290  -0.102  14.945  0.00  0.00    +0.000 A 
ATOM     29  C   UNL     1      45.242  -0.633  15.798  0.00  0.00    +0.000 A 
ATOM     30  C   UNL     1      45.254  -1.995  15.511  0.00  0.00    +0.000 A 
ATOM     31  O   UNL     1      44.359  -2.219  14.546  0.00  0.00    +0.000 OA
ENDBRANCH  26  27
ENDBRANCH  10  26
TORSDOF 8
ENDMDL
MODEL 5
REMARK VINA RESULT:      -7.7      1.734      4.572
REMARK  Name = 
REMARK  8 active torsions:
REMARK  status: ('A' for Active; 'I' for Inactive)
REMARK    1  A    between atoms: O_2  and  C_3
REMARK    2  A    between atoms: C_9  and  C_10
REMARK    3  A    between atoms: N_12  and  C_13
REMARK    4  A    between atoms: C_13  and  C_15
REMARK    5  A    between atoms: C_15  and  C_16
REMARK    6  A    between atoms: C_16  and  C_17
REMARK    7  A    between atoms: N_25  and  C_26
REMARK    8  A    between atoms: C_26  and  C_27
REMARK                            x       y       z     vdW  Elec       q    Type
REMARK                         _______ _______ _______ _____ _____    ______ ____
ROOT
ATOM      1  C   UNL     1      37.377  -2.560  16.546  0.00  0.00    +0.000 A 
ATOM      2  C   UNL     1      38.474  -3.388  16.451  0.00  0.00    +0.000 A 
ATOM      3  C   UNL     1      39.663  -3.028  15.848  0.00  0.00    +0.000 A 
ATOM      4  C   UNL     1      39.801  -1.769  15.294  0.00  0.00    +0.000 A 
ATOM      5  C   UNL     1      38.709  -0.935  15.384  0.00  0.00    +0.000 A 
ATOM      6  C   UNL     1      37.523  -1.284  15.982  0.00  0.00    +0.000 A 
ATOM      7  C   UNL     1      39.092   0.228  14.773  0.00  0.00    +0.000 A 
ATOM      8  C   UNL     1      40.401   0.082  14.322  0.00  0.00    +0.000 A 
ATOM      9  C   UNL     1      41.227   1.084  13.601  0.00  0.00    +0.000 C 
ATOM     10  N   UNL     1      40.816  -1.160  14.655  0.00  0.00    +0.000 N 
ENDROOT
BRANCH   7  11
ATOM     11  C   UNL     1      38.316   1.445  14.604  0.00  0.00    +0.000 C 
ATOM     12  O   UNL     1      37.733   1.738  13.525  0.00  0.00    +0.000 OA
ATOM     13  N   UNL     1      38.204   2.326  15.664  0.00  0.00    +0.000 NA
BRANCH  13  14
ATOM     14  C   UNL     1      37.376   3.633  15.519  0.00  0.00    +0.000 C 
ATOM     15  C   UNL     1      36.039   3.053  16.251  0.00  0.00    +0.000 C 
BRANCH  14  16
ATOM     16  C   UNL     1      37.977   4.237  16.941  0.00  0.00    +0.000 C 
BRANCH  16  17
ATOM     17  C   UNL     1      38.227   5.700  16.619  0.00  0.00    +0.000 C 
BRANCH  17  18
ATOM     18  C   UNL     1      38.732   6.276  17.920  0.00  0.00    +0.000 A 
ATOM     19  C   UNL     1      39.791   5.745  18.611  0.00  0.00    +0.000 A 
ATOM     20  C   UNL     1      40.250   6.254  19.805  0.00  0.00    +0.000 A 
ATOM     21  C   UNL     1      39.561   7.363  20.284  0.00  0.00    +0.000 A 
ATOM     22  C   UNL     1      38.500   7.896  19.593  0.00  0.00    +0.000 A 
ATOM     23  C   UNL     1      38.053   7.375  18.398  0.00  0.00    +0.000 A 
ENDBRANCH  17  18
ENDBRANCH  16  17
ENDBRANCH  14  16
ENDBRANCH  13  14
ENDBRANCH   7  11
BRANCH   1  25
ATOM     24  C   UNL     1      35.066  -2.090  17.260  0.00  0.00    +0.000 C 
ATOM     25  O   UNL     1      36.185  -2.937  17.158  0.00  0.00    +0.000 OA
ENDBRANCH   1  25
BRANCH  10  26
ATOM     26  C   UNL     1      42.157  -1.671  14.341  0.00  0.00    +0.000 C 
BRANCH  26  27
ATOM     27  C   UNL     1      42.170  -2.347  13.029  0.00  0.00    +0.000 A 
ATOM     28  C   UNL     1      43.002  -2.018  11.997  0.00  0.00    +0.000 A 
ATOM     29  C   UNL     1      42.721  -2.862  10.937  0.00  0.00    +0.000 A 
ATOM     30  C   UNL     1      41.698  -3.685  11.402  0.00  0.00    +0.000 A 
ATOM     31  O   UNL     1      41.417  -3.323  12.655  0.00  0.00    +0.000 OA
ENDBRANCH  26  27
ENDBRANCH  10  26
TORSDOF 8
ENDMDL
MODEL 6
REMARK VINA RESULT:      -7.5      3.047      5.933
REMARK  Name = 
REMARK  8 active torsions:
REMARK  status: ('A' for Active; 'I' for Inactive)
REMARK    1  A    between atoms: O_2  and  C_3
REMARK    2  A    between atoms: C_9  and  C_10
REMARK    3  A    between atoms: N_12  and  C_13
REMARK    4  A    between atoms: C_13  and  C_15
REMARK    5  A    between atoms: C_15  and  C_16
REMARK    6  A    between atoms: C_16  and  C_17
REMARK    7  A    between atoms: N_25  and  C_26
REMARK    8  A    between atoms: C_26  and  C_27
REMARK                            x       y       z     vdW  Elec       q    Type
REMARK                         _______ _______ _______ _____ _____    ______ ____
ROOT
ATOM      1  C   UNL     1      39.416   2.423  13.238  0.00  0.00    +0.000 A 
ATOM      2  C   UNL     1      40.716   2.105  12.912  0.00  0.00    +0.000 A 
ATOM      3  C   UNL     1      41.342   0.934  13.290  0.00  0.00    +0.000 A 
ATOM      4  C   UNL     1      40.657  -0.001  14.043  0.00  0.00    +0.000 A 
ATOM      5  C   UNL     1      39.356   0.308  14.373  0.00  0.00    +0.000 A 
ATOM      6  C   UNL     1      38.726   1.469  14.001  0.00  0.00    +0.000 A 
ATOM      7  C   UNL     1      38.907  -0.757  15.104  0.00  0.00    +0.000 A 
ATOM      8  C   UNL     1      39.935  -1.690  15.208  0.00  0.00    +0.000 A 
ATOM      9  C   UNL     1      39.903  -2.998  15.911  0.00  0.00    +0.000 C 
ATOM     10  N   UNL     1      41.005  -1.200  14.544  0.00  0.00    +0.000 N 
ENDROOT
BRANCH   7  11
ATOM     11  C   UNL     1      37.589  -0.946  15.687  0.00  0.00    +0.000 C 
ATOM     12  O   UNL     1      36.596  -1.336  15.016  0.00  0.00    +0.000 OA
ATOM     13  N   UNL     1      37.405  -0.693  17.035  0.00  0.00    +0.000 NA
BRANCH  13  14
ATOM     14  C   UNL     1      36.010  -0.893  17.691  0.00  0.00    +0.000 C 
ATOM     15  C   UNL     1      36.583  -1.176  19.192  0.00  0.00    +0.000 C 
BRANCH  14  16
ATOM     16  C   UNL     1      35.853   0.731  17.981  0.00  0.00    +0.000 C 
BRANCH  16  17
ATOM     17  C   UNL     1      34.819   1.169  16.958  0.00  0.00    +0.000 C 
BRANCH  17  18
ATOM     18  C   UNL     1      35.461   2.353  16.278  0.00  0.00    +0.000 A 
ATOM     19  C   UNL     1      36.629   2.924  16.715  0.00  0.00    +0.000 A 
ATOM     20  C   UNL     1      37.215   4.013  16.110  0.00  0.00    +0.000 A 
ATOM     21  C   UNL     1      36.538   4.516  15.004  0.00  0.00    +0.000 A 
ATOM     22  C   UNL     1      35.368   3.945  14.565  0.00  0.00    +0.000 A 
ATOM     23  C   UNL     1      34.794   2.854  15.181  0.00  0.00    +0.000 A 
ENDBRANCH  17  18
ENDBRANCH  16  17
ENDBRANCH  14  16
ENDBRANCH  13  14
ENDBRANCH   7  11
BRANCH   1  25
ATOM     24  C   UNL     1      38.002   3.723  11.693  0.00  0.00    +0.000 C 
ATOM     25  O   UNL     1      38.798   3.608  12.849  0.00  0.00    +0.000 OA
ENDBRANCH   1  25
BRANCH  10  26
ATOM     26  C   UNL     1      42.282  -1.918  14.436  0.00  0.00    +0.000 C 
BRANCH  26  27
ATOM     27  C   UNL     1      42.401  -2.586  13.124  0.00  0.00    +0.000 A 
ATOM     28  C   UNL     1      43.578  -3.001  12.571  0.00  0.00    +0.000 A 
ATOM     29  C   UNL     1      43.294  -3.575  11.344  0.00  0.00    +0.000 A 
ATOM     30  C   UNL     1      41.911  -3.472  11.217  0.00  0.00    +0.000 A 
ATOM     31  O   UNL     1      41.442  -2.871  12.313  0.00  0.00    +0.000 OA
ENDBRANCH  26  27
ENDBRANCH  10  26
TORSDOF 8
ENDMDL
MODEL 7
REMARK VINA RESULT:      -7.4      2.931      6.827
REMARK  Name = 
REMARK  8 active torsions:
REMARK  status: ('A' for Active; 'I' for Inactive)
REMARK    1  A    between atoms: O_2  and  C_3
REMARK    2  A    between atoms: C_9  and  C_10
REMARK    3  A    between atoms: N_12  and  C_13
REMARK    4  A    between atoms: C_13  and  C_15
REMARK    5  A    between atoms: C_15  and  C_16
REMARK    6  A    between atoms: C_16  and  C_17
REMARK    7  A    between atoms: N_25  and  C_26
REMARK    8  A    between atoms: C_26  and  C_27
REMARK                            x       y       z     vdW  Elec       q    Type
REMARK                         _______ _______ _______ _____ _____    ______ ____
ROOT
ATOM      1  C   UNL     1      39.215   2.631  14.057  0.00  0.00    +0.000 A 
ATOM      2  C   UNL     1      40.414   2.580  13.379  0.00  0.00    +0.000 A 
ATOM      3  C   UNL     1      41.203   1.451  13.291  0.00  0.00    +0.000 A 
ATOM      4  C   UNL     1      40.803   0.280  13.907  0.00  0.00    +0.000 A 
ATOM      5  C   UNL     1      39.606   0.322  14.588  0.00  0.00    +0.000 A 
ATOM      6  C   UNL     1      38.814   1.439  14.680  0.00  0.00    +0.000 A 
ATOM      7  C   UNL     1      39.438  -0.936  15.099  0.00  0.00    +0.000 A 
ATOM      8  C   UNL     1      40.528  -1.717  14.725  0.00  0.00    +0.000 A 
ATOM      9  C   UNL     1      40.775  -3.144  15.053  0.00  0.00    +0.000 C 
ATOM     10  N   UNL     1      41.357  -0.943  13.991  0.00  0.00    +0.000 N 
ENDROOT
BRANCH   7  11
ATOM     11  C   UNL     1      38.326  -1.436  15.891  0.00  0.00    +0.000 C 
ATOM     12  O   UNL     1      37.212  -1.742  15.386  0.00  0.00    +0.000 OA
ATOM     13  N   UNL     1      38.486  -1.588  17.256  0.00  0.00    +0.000 NA
BRANCH  13  14
ATOM     14  C   UNL     1      37.320  -2.127  18.131  0.00  0.00    +0.000 C 
ATOM     15  C   UNL     1      38.276  -2.859  19.231  0.00  0.00    +0.000 C 
BRANCH  14  16
ATOM     16  C   UNL     1      37.260  -0.725  19.013  0.00  0.00    +0.000 C 
BRANCH  16  17
ATOM     17  C   UNL     1      35.793  -0.335  18.946  0.00  0.00    +0.000 C 
BRANCH  17  18
ATOM     18  C   UNL     1      35.745   0.708  17.856  0.00  0.00    +0.000 A 
ATOM     19  C   UNL     1      36.461   1.876  17.907  0.00  0.00    +0.000 A 
ATOM     20  C   UNL     1      36.413   2.840  16.926  0.00  0.00    +0.000 A 
ATOM     21  C   UNL     1      35.574   2.556  15.853  0.00  0.00    +0.000 A 
ATOM     22  C   UNL     1      34.856   1.386  15.800  0.00  0.00    +0.000 A 
ATOM     23  C   UNL     1      34.916   0.430  16.791  0.00  0.00    +0.000 A 
ENDBRANCH  17  18
ENDBRANCH  16  17
ENDBRANCH  14  16
ENDBRANCH  13  14
ENDBRANCH   7  11
BRANCH   1  25
ATOM     24  C   UNL     1      38.775   4.900  14.912  0.00  0.00    +0.000 C 
ATOM     25  O   UNL     1      38.430   3.777  14.136  0.00  0.00    +0.000 OA
ENDBRANCH   1  25
BRANCH  10  26
ATOM     26  C   UNL     1      42.618  -1.433  13.418  0.00  0.00    +0.000 C 
BRANCH  26  27
ATOM     27  C   UNL     1      43.725  -1.296  14.386  0.00  0.00    +0.000 A 
ATOM     28  C   UNL     1      44.137  -0.113  14.927  0.00  0.00    +0.000 A 
ATOM     29  C   UNL     1      45.192  -0.379  15.782  0.00  0.00    +0.000 A 
ATOM     30  C   UNL     1      45.367  -1.759  15.709  0.00  0.00    +0.000 A 
ATOM     31  O   UNL     1      44.459  -2.242  14.858  0.00  0.00    +0.000 OA
ENDBRANCH  26  27
ENDBRANCH  10  26
TORSDOF 8
ENDMDL
MODEL 8
REMARK VINA RESULT:      -7.2      2.280      7.340
REMARK  Name = 
REMARK  8 active torsions:
REMARK  status: ('A' for Active; 'I' for Inactive)
REMARK    1  A    between atoms: O_2  and  C_3
REMARK    2  A    between atoms: C_9  and  C_10
REMARK    3  A    between atoms: N_12  and  C_13
REMARK    4  A    between atoms: C_13  and  C_15
REMARK    5  A    between atoms: C_15  and  C_16
REMARK    6  A    between atoms: C_16  and  C_17
REMARK    7  A    between atoms: N_25  and  C_26
REMARK    8  A    between atoms: C_26  and  C_27
REMARK                            x       y       z     vdW  Elec       q    Type
REMARK                         _______ _______ _______ _____ _____    ______ ____
ROOT
ATOM      1  C   UNL     1      41.534   2.396  12.790  0.00  0.00    +0.000 A 
ATOM      2  C   UNL     1      41.285   3.718  13.083  0.00  0.00    +0.000 A 
ATOM      3  C   UNL     1      40.209   4.154  13.830  0.00  0.00    +0.000 A 
ATOM      4  C   UNL     1      39.302   3.239  14.331  0.00  0.00    +0.000 A 
ATOM      5  C   UNL     1      39.543   1.914  14.042  0.00  0.00    +0.000 A 
ATOM      6  C   UNL     1      40.611   1.471  13.302  0.00  0.00    +0.000 A 
ATOM      7  C   UNL     1      38.524   1.224  14.639  0.00  0.00    +0.000 A 
ATOM      8  C   UNL     1      37.684   2.135  15.275  0.00  0.00    +0.000 A 
ATOM      9  C   UNL     1      36.450   1.841  16.049  0.00  0.00    +0.000 C 
ATOM     10  N   UNL     1      38.186   3.372  15.069  0.00  0.00    +0.000 N 
ENDROOT
BRANCH   7  11
ATOM     11  C   UNL     1      38.307  -0.213  14.654  0.00  0.00    +0.000 C 
ATOM     12  O   UNL     1      37.467  -0.784  13.907  0.00  0.00    +0.000 OA
ATOM     13  N   UNL     1      39.049  -0.997  15.519  0.00  0.00    +0.000 NA
BRANCH  13  14
ATOM     14  C   UNL     1      38.847  -2.538  15.555  0.00  0.00    +0.000 C 
ATOM     15  C   UNL     1      40.422  -2.907  15.346  0.00  0.00    +0.000 C 
BRANCH  14  16
ATOM     16  C   UNL     1      38.986  -2.573  17.206  0.00  0.00    +0.000 C 
BRANCH  16  17
ATOM     17  C   UNL     1      37.768  -3.371  17.640  0.00  0.00    +0.000 C 
BRANCH  17  18
ATOM     18  C   UNL     1      36.731  -2.316  17.939  0.00  0.00    +0.000 A 
ATOM     19  C   UNL     1      35.525  -2.249  17.290  0.00  0.00    +0.000 A 
ATOM     20  C   UNL     1      34.578  -1.282  17.544  0.00  0.00    +0.000 A 
ATOM     21  C   UNL     1      34.924  -0.353  18.519  0.00  0.00    +0.000 A 
ATOM     22  C   UNL     1      36.131  -0.419  19.170  0.00  0.00    +0.000 A 
ATOM     23  C   UNL     1      37.068  -1.394  18.905  0.00  0.00    +0.000 A 
ENDBRANCH  17  18
ENDBRANCH  16  17
ENDBRANCH  14  16
ENDBRANCH  13  14
ENDBRANCH   7  11
BRANCH   1  25
ATOM     24  C   UNL     1      42.508   1.440  10.738  0.00  0.00    +0.000 C 
ATOM     25  O   UNL     1      42.625   1.971  12.036  0.00  0.00    +0.000 OA
ENDBRANCH   1  25
BRANCH  10  26
ATOM     26  C   UNL     1      37.562   4.592  15.600  0.00  0.00    +0.000 C 
BRANCH  26  27
ATOM     27  C   UNL     1      38.365   5.157  16.703  0.00  0.00    +0.000 A 
ATOM     28  C   UNL     1      38.456   4.613  17.951  0.00  0.00    +0.000 A 
ATOM     29  C   UNL     1      39.289   5.418  18.708  0.00  0.00    +0.000 A 
ATOM     30  C   UNL     1      39.670   6.442  17.845  0.00  0.00    +0.000 A 
ATOM     31  O   UNL     1      39.082   6.226  16.667  0.00  0.00    +0.000 OA
ENDBRANCH  26  27
ENDBRANCH  10  26
TORSDOF 8
ENDMDL
MODEL 9
REMARK VINA RESULT:      -7.2     27.211     30.363
REMARK  Name = 
REMARK  8 active torsions:
REMARK  status: ('A' for Active; 'I' for Inactive)
REMARK    1  A    between atoms: O_2  and  C_3
REMARK    2  A    between atoms: C_9  and  C_10
REMARK    3  A    between atoms: N_12  and  C_13
REMARK    4  A    between atoms: C_13  and  C_15
REMARK    5  A    between atoms: C_15  and  C_16
REMARK    6  A    between atoms: C_16  and  C_17
REMARK    7  A    between atoms: N_25  and  C_26
REMARK    8  A    between atoms: C_26  and  C_27
REMARK                            x       y       z     vdW  Elec       q    Type
REMARK                         _______ _______ _______ _____ _____    ______ ____
ROOT
ATOM      1  C   UNL     1       8.195   2.330  12.313  0.00  0.00    +0.000 A 
ATOM      2  C   UNL     1       8.044   0.970  12.150  0.00  0.00    +0.000 A 
ATOM      3  C   UNL     1       8.619   0.247  11.124  0.00  0.00    +0.000 A 
ATOM      4  C   UNL     1       9.400   0.890  10.181  0.00  0.00    +0.000 A 
ATOM      5  C   UNL     1       9.556   2.249  10.336  0.00  0.00    +0.000 A 
ATOM      6  C   UNL     1       8.989   2.976  11.353  0.00  0.00    +0.000 A 
ATOM      7  C   UNL     1      10.355   2.641   9.297  0.00  0.00    +0.000 A 
ATOM      8  C   UNL     1      10.668   1.521   8.531  0.00  0.00    +0.000 A 
ATOM      9  C   UNL     1      11.507   1.467   7.307  0.00  0.00    +0.000 C 
ATOM     10  N   UNL     1      10.066   0.453   9.097  0.00  0.00    +0.000 N 
ENDROOT
BRANCH   7  11
ATOM     11  C   UNL     1      10.840   3.978   8.999  0.00  0.00    +0.000 C 
ATOM     12  O   UNL     1      11.881   4.458   9.522  0.00  0.00    +0.000 OA
ATOM     13  N   UNL     1      10.138   4.766   8.104  0.00  0.00    +0.000 NA
BRANCH  13  14
ATOM     14  C   UNL     1      10.633   6.198   7.758  0.00  0.00    +0.000 C 
ATOM     15  C   UNL     1       9.743   6.346   6.399  0.00  0.00    +0.000 C 
BRANCH  14  16
ATOM     16  C   UNL     1       9.452   6.891   8.691  0.00  0.00    +0.000 C 
BRANCH  16  17
ATOM     17  C   UNL     1       8.168   6.468   7.998  0.00  0.00    +0.000 C 
BRANCH  17  18
ATOM     18  C   UNL     1       7.165   6.370   9.123  0.00  0.00    +0.000 A 
ATOM     19  C   UNL     1       5.817   6.543   8.939  0.00  0.00    +0.000 A 
ATOM     20  C   UNL     1       4.896   6.470   9.960  0.00  0.00    +0.000 A 
ATOM     21  C   UNL     1       5.424   6.206  11.220  0.00  0.00    +0.000 A 
ATOM     22  C   UNL     1       6.773   6.033  11.405  0.00  0.00    +0.000 A 
ATOM     23  C   UNL     1       7.683   6.108  10.372  0.00  0.00    +0.000 A 
ENDBRANCH  17  18
ENDBRANCH  16  17
ENDBRANCH  14  16
ENDBRANCH  13  14
ENDBRANCH   7  11
BRANCH   1  25
ATOM     24  C   UNL     1       6.650   2.498  14.225  0.00  0.00    +0.000 C 
ATOM     25  O   UNL     1       7.610   3.045  13.354  0.00  0.00    +0.000 OA
ENDBRANCH   1  25
BRANCH  10  26
ATOM     26  C   UNL     1      10.176  -0.911   8.561  0.00  0.00    +0.000 C 
BRANCH  26  27
ATOM     27  C   UNL     1      11.171  -1.696   9.319  0.00  0.00    +0.000 A 
ATOM     28  C   UNL     1      12.522  -1.523   9.231  0.00  0.00    +0.000 A 
ATOM     29  C   UNL     1      13.125  -2.436  10.079  0.00  0.00    +0.000 A 
ATOM     30  C   UNL     1      12.068  -3.136  10.654  0.00  0.00    +0.000 A 
ATOM     31  O   UNL     1      10.931  -2.645  10.156  0.00  0.00    +0.000 OA
ENDBRANCH  26  27
ENDBRANCH  10  26
TORSDOF 8
ENDMDL
MODEL 10
REMARK VINA RESULT:      -7.1      2.762      7.830
REMARK  Name = 
REMARK  8 active torsions:
REMARK  status: ('A' for Active; 'I' for Inactive)
REMARK    1  A    between atoms: O_2  and  C_3
REMARK    2  A    between atoms: C_9  and  C_10
REMARK    3  A    between atoms: N_12  and  C_13
REMARK    4  A    between atoms: C_13  and  C_15
REMARK    5  A    between atoms: C_15  and  C_16
REMARK    6  A    between atoms: C_16  and  C_17
REMARK    7  A    between atoms: N_25  and  C_26
REMARK    8  A    between atoms: C_26  and  C_27
REMARK                            x       y       z     vdW  Elec       q    Type
REMARK                         _______ _______ _______ _____ _____    ______ ____
ROOT
ATOM      1  C   UNL     1      35.576   0.069  16.132  0.00  0.00    +0.000 A 
ATOM      2  C   UNL     1      35.128   1.262  16.656  0.00  0.00    +0.000 A 
ATOM      3  C   UNL     1      35.748   2.478  16.447  0.00  0.00    +0.000 A 
ATOM      4  C   UNL     1      36.892   2.544  15.673  0.00  0.00    +0.000 A 
ATOM      5  C   UNL     1      37.346   1.355  15.145  0.00  0.00    +0.000 A 
ATOM      6  C   UNL     1      36.736   0.143  15.347  0.00  0.00    +0.000 A 
ATOM      7  C   UNL     1      38.468   1.683  14.433  0.00  0.00    +0.000 A 
ATOM      8  C   UNL     1      38.677   3.056  14.540  0.00  0.00    +0.000 A 
ATOM      9  C   UNL     1      39.772   3.854  13.933  0.00  0.00    +0.000 C 
ATOM     10  N   UNL     1      37.690   3.564  15.311  0.00  0.00    +0.000 N 
ENDROOT
BRANCH   7  11
ATOM     11  C   UNL     1      39.327   0.798  13.665  0.00  0.00    +0.000 C 
ATOM     12  O   UNL     1      39.115   0.523  12.454  0.00  0.00    +0.000 OA
ATOM     13  N   UNL     1      40.428   0.228  14.279  0.00  0.00    +0.000 NA
BRANCH  13  14
ATOM     14  C   UNL     1      41.372  -0.718  13.483  0.00  0.00    +0.000 C 
ATOM     15  C   UNL     1      42.732  -0.278  14.269  0.00  0.00    +0.000 C 
BRANCH  14  16
ATOM     16  C   UNL     1      41.088  -1.971  14.530  0.00  0.00    +0.000 C 
BRANCH  16  17
ATOM     17  C   UNL     1      39.856  -2.640  13.945  0.00  0.00    +0.000 C 
BRANCH  17  18
ATOM     18  C   UNL     1      38.976  -2.892  15.145  0.00  0.00    +0.000 A 
ATOM     19  C   UNL     1      39.327  -2.526  16.419  0.00  0.00    +0.000 A 
ATOM     20  C   UNL     1      38.539  -2.763  17.523  0.00  0.00    +0.000 A 
ATOM     21  C   UNL     1      37.337  -3.414  17.266  0.00  0.00    +0.000 A 
ATOM     22  C   UNL     1      36.984  -3.782  15.991  0.00  0.00    +0.000 A 
ATOM     23  C   UNL     1      37.784  -3.536  14.896  0.00  0.00    +0.000 A 
ENDBRANCH  17  18
ENDBRANCH  16  17
ENDBRANCH  14  16
ENDBRANCH  13  14
ENDBRANCH   7  11
BRANCH   1  25
ATOM     24  C   UNL     1      34.145  -1.415  17.483  0.00  0.00    +0.000 C 
ATOM     25  O   UNL     1      34.938  -1.149  16.351  0.00  0.00    +0.000 OA
ENDBRANCH   1  25
BRANCH  10  26
ATOM     26  C   UNL     1      37.582   4.992  15.641  0.00  0.00    +0.000 C 
BRANCH  26  27
ATOM     27  C   UNL     1      36.694   5.687  14.688  0.00  0.00    +0.000 A 
ATOM     28  C   UNL     1      35.920   5.060  13.753  0.00  0.00    +0.000 A 
ATOM     29  C   UNL     1      35.234   6.033  13.048  0.00  0.00    +0.000 A 
ATOM     30  C   UNL     1      35.644   7.237  13.614  0.00  0.00    +0.000 A 
ATOM     31  O   UNL     1      36.515   6.958  14.585  0.00  0.00    +0.000 OA
ENDBRANCH  26  27
ENDBRANCH  10  26
TORSDOF 8
ENDMDL
