
     RDKit          3D

 30 33  0  0  0  0  0  0  0  0999 V2000
   -4.3531   -0.3341    0.2769 C   0  0  0  0  0  0  0  0  0  0  0  0
   -3.9231   -1.7466    0.1627 C   0  0  0  0  0  0  0  0  0  0  0  0
   -4.8483   -2.7857    0.2086 C   0  0  0  0  0  0  0  0  0  0  0  0
   -4.4606   -4.0962    0.1102 C   0  0  0  0  0  0  0  0  0  0  0  0
   -5.3167   -5.1831    0.1452 O   0  0  0  0  0  0  0  0  0  0  0  0
   -3.1204   -4.3532   -0.0375 C   0  0  0  0  0  0  0  0  0  0  0  0
   -2.1917   -3.3271   -0.0847 C   0  0  0  0  0  0  0  0  0  0  0  0
   -2.5967   -2.0119    0.0164 C   0  0  0  0  0  0  0  0  0  0  0  0
   -1.6003   -0.9333   -0.0284 C   0  0  0  0  0  0  0  0  0  0  0  0
   -2.0008    0.3835   -0.0102 C   0  0  0  0  0  0  0  0  0  0  0  0
   -1.0678    1.3902   -0.0732 C   0  0  0  0  0  0  0  0  0  0  0  0
   -1.4483    2.7809   -0.0636 C   0  0  0  0  0  0  0  0  0  0  0  0
   -0.6638    3.7624    0.4747 C   0  0  0  0  0  0  0  0  0  0  0  0
   -1.1061    5.0929    0.4387 C   0  0  0  0  0  0  0  0  0  0  0  0
   -2.3303    5.4136   -0.1385 C   0  0  0  0  0  0  0  0  0  0  0  0
   -3.1159    4.4216   -0.6790 C   0  0  0  0  0  0  0  0  0  0  0  0
   -2.6648    3.1293   -0.6328 C   0  0  0  0  0  0  0  0  0  0  0  0
    0.2708    1.0049   -0.1527 C   0  0  0  0  0  0  0  0  0  0  0  0
    0.6608   -0.3128   -0.1695 C   0  0  0  0  0  0  0  0  0  0  0  0
    2.0563   -0.6813   -0.2475 N   0  0  0  0  0  0  0  0  0  0  0  0
    2.8494   -0.8755    0.9288 C   0  0  0  0  0  0  0  0  0  0  0  0
    2.5806   -0.8431   -1.5768 C   0  0  0  0  0  0  0  0  0  0  0  0
    3.5840    0.1965   -1.9825 C   0  0  0  0  0  0  0  0  0  0  0  0
    4.7525    0.1907   -1.0903 C   0  0  0  0  0  0  0  0  0  0  0  0
    4.7900    1.0095    0.0106 C   0  0  0  0  0  0  0  0  0  0  0  0
    5.8718    1.0306    0.8786 C   0  0  0  0  0  0  0  0  0  0  0  0
    6.9212    0.1984    0.6049 C   0  0  0  0  0  0  0  0  0  0  0  0
    6.9278   -0.6311   -0.4760 C   0  0  0  0  0  0  0  0  0  0  0  0
    5.8355   -0.6330   -1.3267 C   0  0  0  0  0  0  0  0  0  0  0  0
   -0.2918   -1.2570   -0.1062 N   0  0  0  0  0  0  0  0  0  0  0  0
  1  2  1  0
  2  3  2  0
  3  4  1  0
  4  5  1  0
  4  6  2  0
  6  7  1  0
  7  8  2  0
  8  9  1  0
  9 10  2  0
 10 11  1  0
 11 12  1  0
 12 13  2  0
 13 14  1  0
 14 15  2  0
 15 16  1  0
 16 17  2  0
 11 18  2  0
 18 19  1  0
 19 20  1  0
 20 21  1  0
 20 22  1  0
 22 23  1  0
 23 24  1  0
 24 25  2  0
 25 26  1  0
 26 27  2  0
 27 28  1  0
 28 29  2  0
 19 30  2  0
  8  2  1  0
 30  9  1  0
 17 12  1  0
 29 24  1  0
M  END
>  <zinc_id>  (1) 
ZINC000003815466

>  <smiles>  (1) 
Cc1cc(O)ccc1-c1cc(-c2ccccc2)cc(N(C)CCc2ccccc2)n1

$$$$
