
     RDKit          3D

 34 39  0  0  0  0  0  0  0  0999 V2000
   -3.7623    2.5552    5.4236 O   0  0  0  0  0  0  0  0  0  0  0  0
   -3.1247    2.4142    4.1995 C   0  0  0  0  0  0  0  0  0  0  0  0
   -1.9732    3.1599    4.0234 C   0  0  0  0  0  0  0  0  0  0  0  0
   -1.2542    3.1165    2.8797 C   0  0  0  0  0  0  0  0  0  0  0  0
   -1.7135    2.2802    1.8551 C   0  0  0  0  0  0  0  0  0  0  0  0
   -2.8743    1.5330    2.0395 C   0  0  0  0  0  0  0  0  0  0  0  0
   -3.5855    1.5857    3.1919 C   0  0  0  0  0  0  0  0  0  0  0  0
   -3.3020    0.7098    0.9161 C   0  0  0  0  0  0  0  0  0  0  0  0
   -4.6624   -0.3568    0.8084 S   0  0  0  0  0  0  0  0  0  0  0  0
   -4.3891   -0.9177   -0.8123 C   0  0  0  0  0  0  0  0  0  0  0  0
   -5.0715   -1.8089   -1.6242 C   0  0  0  0  0  0  0  0  0  0  0  0
   -4.6238   -2.0758   -2.9027 C   0  0  0  0  0  0  0  0  0  0  0  0
   -5.2720   -2.9575   -3.7476 O   0  0  0  0  0  0  0  0  0  0  0  0
   -3.4840   -1.4106   -3.2983 C   0  0  0  0  0  0  0  0  0  0  0  0
   -2.8198   -0.5299   -2.4804 C   0  0  0  0  0  0  0  0  0  0  0  0
   -3.2731   -0.2566   -1.1787 C   0  0  0  0  0  0  0  0  0  0  0  0
   -2.6935    0.5977   -0.2867 C   0  0  0  0  0  0  0  0  0  0  0  0
   -1.3979    1.4813   -0.5414 C   0  0  2  0  0  0  0  0  0  0  0  0
   -0.2858    0.3460   -0.6240 C   0  0  0  0  0  0  0  0  0  0  0  0
    0.9658    0.8237   -0.3040 C   0  0  0  0  0  0  0  0  0  0  0  0
    2.0714   -0.0572   -0.3271 C   0  0  0  0  0  0  0  0  0  0  0  0
    1.8794   -1.3763   -0.6684 C   0  0  0  0  0  0  0  0  0  0  0  0
    2.9833   -2.2418   -0.6885 O   0  0  0  0  0  0  0  0  0  0  0  0
    4.2702   -1.8251   -0.3784 C   0  0  0  0  0  0  0  0  0  0  0  0
    4.7866   -0.7337   -1.2849 C   0  0  0  0  0  0  0  0  0  0  0  0
    6.1106   -0.3181   -0.9549 N   0  0  0  0  0  0  0  0  0  0  0  0
    7.1271   -1.3131   -1.2067 C   0  0  0  0  0  0  0  0  0  0  0  0
    7.7701   -1.8342    0.0596 C   0  0  0  0  0  0  0  0  0  0  0  0
    8.5226   -0.7342    0.7769 C   0  0  0  0  0  0  0  0  0  0  0  0
    7.7208    0.5266    0.6300 C   0  0  0  0  0  0  0  0  0  0  0  0
    6.2771    0.2089    0.3640 C   0  0  0  0  0  0  0  0  0  0  0  0
    0.6186   -1.8134   -0.9803 C   0  0  0  0  0  0  0  0  0  0  0  0
   -0.4232   -0.9129   -0.9421 C   0  0  0  0  0  0  0  0  0  0  0  0
   -1.1177    2.1353    0.6959 O   0  0  0  0  0  0  0  0  0  0  0  0
  1  2  1  0
  2  3  2  0
  3  4  1  0
  4  5  2  0
  5  6  1  0
  6  7  2  0
  6  8  1  0
  8  9  1  0
  9 10  1  0
 10 11  2  0
 11 12  1  0
 12 13  1  0
 12 14  2  0
 14 15  1  0
 15 16  2  0
 16 17  1  0
 17 18  1  0
 18 19  1  1
 19 20  2  0
 20 21  1  0
 21 22  2  0
 22 23  1  0
 23 24  1  0
 24 25  1  0
 25 26  1  0
 26 27  1  0
 27 28  1  0
 28 29  1  0
 29 30  1  0
 30 31  1  0
 22 32  1  0
 32 33  2  0
 18 34  1  0
  7  2  1  0
 17  8  2  0
 33 19  1  0
 34  5  1  0
 16 10  1  0
 31 26  1  0
M  END
>  <zinc_id>  (1) 
ZINC000003815461

>  <smiles>  (1) 
Oc1ccc2c(c1)-c1sc3cc(O)ccc3c1[C@H](c1ccc(OCCN3CCCCC3)cc1)O2

$$$$
