
     RDKit          3D

 26 28  0  0  0  0  0  0  0  0999 V2000
    4.5243   -1.4556   -2.2565 C   0  0  0  0  0  0  0  0  0  0  0  0
    5.1189   -1.7442   -0.8805 C   0  0  0  0  0  0  0  0  0  0  0  0
    6.2052   -0.6873   -0.6333 C   0  0  0  0  0  0  0  0  0  0  0  0
    4.0645   -1.6121    0.2036 C   0  0  0  0  0  0  0  0  0  0  0  0
    3.5603   -0.1674    0.1443 C   0  0  0  0  0  0  0  0  0  0  0  0
    2.5448    0.0279    1.1424 N   0  0  0  0  0  0  0  0  0  0  0  0
    2.8986    0.0088    2.5317 C   0  0  0  0  0  0  0  0  0  0  0  0
    1.2074    0.2399    0.7533 C   0  0  0  0  0  0  0  0  0  0  0  0
    0.6740    1.5172    0.5844 C   0  0  0  0  0  0  0  0  0  0  0  0
   -0.6354    1.7313    0.2004 C   0  0  0  0  0  0  0  0  0  0  0  0
   -1.1327    3.0842    0.0461 C   0  0  0  0  0  0  0  0  0  0  0  0
   -0.6737    4.1368    0.8147 C   0  0  0  0  0  0  0  0  0  0  0  0
   -1.1395    5.4291    0.6788 C   0  0  0  0  0  0  0  0  0  0  0  0
   -2.1224    5.7124   -0.2741 C   0  0  0  0  0  0  0  0  0  0  0  0
   -2.5762    4.6591   -1.0365 C   0  0  0  0  0  0  0  0  0  0  0  0
   -2.0989    3.3854   -0.8834 C   0  0  0  0  0  0  0  0  0  0  0  0
   -1.3965    0.5995   -0.0119 C   0  0  0  0  0  0  0  0  0  0  0  0
   -0.8363   -0.6557    0.1649 C   0  0  0  0  0  0  0  0  0  0  0  0
   -1.6494   -1.8492   -0.0711 C   0  0  0  0  0  0  0  0  0  0  0  0
   -2.9712   -1.7796   -0.4858 C   0  0  0  0  0  0  0  0  0  0  0  0
   -3.7417   -2.9047   -0.7045 C   0  0  0  0  0  0  0  0  0  0  0  0
   -3.2156   -4.1537   -0.5144 C   0  0  0  0  0  0  0  0  0  0  0  0
   -3.9883   -5.3131   -0.7298 O   0  0  0  0  0  0  0  0  0  0  0  0
   -1.9053   -4.2522   -0.1016 C   0  0  0  0  0  0  0  0  0  0  0  0
   -1.1554   -3.1231    0.1098 C   0  0  0  0  0  0  0  0  0  0  0  0
    0.4405   -0.8336    0.5404 N   0  0  0  0  0  0  0  0  0  0  0  0
  1  2  1  0
  2  3  1  0
  2  4  1  0
  4  5  1  0
  5  6  1  0
  6  7  1  0
  6  8  1  0
  8  9  2  0
  9 10  1  0
 10 11  1  0
 11 12  2  0
 12 13  1  0
 13 14  2  0
 14 15  1  0
 15 16  2  0
 10 17  2  0
 17 18  1  0
 18 19  1  0
 19 20  2  0
 20 21  1  0
 21 22  2  0
 22 23  1  0
 22 24  1  0
 24 25  2  0
 18 26  2  0
 26  8  1  0
 16 11  1  0
 25 19  1  0
M  END
>  <zinc_id>  (1) 
ZINC000003815471

>  <smiles>  (1) 
CC(C)CCN(C)c1cc(-c2ccccc2)cc(-c2ccc(O)cc2)n1

$$$$
