
     RDKit          3D

 29 31  0  0  0  0  0  0  0  0999 V2000
   -4.5583    0.6170    0.8660 C   0  0  0  0  0  0  0  0  0  0  0  0
   -3.6112    0.8302   -0.3138 C   0  0  0  0  0  0  0  0  0  0  0  0
   -2.4365   -0.1248   -0.1663 C   0  0  0  0  0  0  0  0  0  0  0  0
   -1.2765    0.4520   -0.0716 C   0  0  0  0  0  0  0  0  0  0  0  0
   -0.0466   -0.2715    0.0707 C   0  0  0  0  0  0  0  0  0  0  0  0
    0.9950    0.1225   -0.7783 C   0  0  0  0  0  0  0  0  0  0  0  0
    2.2094   -0.4993   -0.6972 C   0  0  0  0  0  0  0  0  0  0  0  0
    2.3961   -1.5210    0.2342 C   0  0  0  0  0  0  0  0  0  0  0  0
    3.6379   -2.1353    0.2948 O   0  0  0  0  0  0  0  0  0  0  0  0
    4.6552   -1.6894   -0.5936 C   0  0  0  0  0  0  0  0  0  0  0  0
    4.9370   -0.2135   -0.3715 C   0  0  0  0  0  0  0  0  0  0  0  0
    5.3641   -0.0305    0.9859 N   0  0  0  0  0  0  0  0  0  0  0  0
    6.6649   -0.6199    1.2254 C   0  0  0  0  0  0  0  0  0  0  0  0
    5.5124    1.4188    1.2057 C   0  0  0  0  0  0  0  0  0  0  0  0
    1.3862   -1.9262    1.0808 C   0  0  0  0  0  0  0  0  0  0  0  0
    0.1810   -1.2571    0.9471 C   0  0  0  0  0  0  0  0  0  0  0  0
   -1.1477    1.9316   -0.1163 C   0  0  0  0  0  0  0  0  0  0  0  0
   -0.2767    2.5217    0.7823 C   0  0  0  0  0  0  0  0  0  0  0  0
   -0.1030    3.8869    0.7718 C   0  0  0  0  0  0  0  0  0  0  0  0
   -0.8052    4.6767   -0.1445 C   0  0  0  0  0  0  0  0  0  0  0  0
   -1.6556    4.0450   -1.0135 C   0  0  0  0  0  0  0  0  0  0  0  0
   -2.3806    4.8136   -1.9540 O   0  0  0  0  0  0  0  0  0  0  0  0
   -1.8385    2.6693   -1.0108 C   0  0  0  0  0  0  0  0  0  0  0  0
   -2.6673   -1.5356   -0.1213 C   0  0  0  0  0  0  0  0  0  0  0  0
   -3.4388   -2.1607   -1.1161 C   0  0  0  0  0  0  0  0  0  0  0  0
   -3.7208   -3.5075   -1.0970 C   0  0  0  0  0  0  0  0  0  0  0  0
   -3.2483   -4.3349   -0.0742 C   0  0  0  0  0  0  0  0  0  0  0  0
   -2.4994   -3.7436    0.8958 C   0  0  0  0  0  0  0  0  0  0  0  0
   -2.2282   -2.4146    0.8636 C   0  0  0  0  0  0  0  0  0  0  0  0
  1  2  1  0
  2  3  1  0
  3  4  2  0
  4  5  1  0
  5  6  2  0
  6  7  1  0
  7  8  2  0
  8  9  1  0
  9 10  1  0
 10 11  1  0
 11 12  1  0
 12 13  1  0
 12 14  1  0
  8 15  1  0
 15 16  2  0
  4 17  1  0
 17 18  2  0
 18 19  1  0
 19 20  2  0
 20 21  1  0
 21 22  1  0
 21 23  2  0
  3 24  1  0
 24 25  2  0
 25 26  1  0
 26 27  2  0
 27 28  1  0
 28 29  2  0
 16  5  1  0
 23 17  1  0
 29 24  1  0
M  END
>  <zinc_id>  (1) 
ZINC000001585847

>  <smiles>  (1) 
CC/C(=C(/c1ccc(OCCN(C)C)cc1)c1cccc(O)c1)c1ccccc1

$$$$
