
     RDKit          3D

 34 38  0  0  0  0  0  0  0  0999 V2000
   -3.6594   -0.1693   -1.8087 C   0  0  0  0  0  0  0  0  0  0  0  0
   -3.2364    0.3852   -0.4751 C   0  0  0  0  0  0  0  0  0  0  0  0
   -2.7511   -0.3387    0.3896 C   0  0  0  0  0  0  0  0  0  0  0  0
   -2.5372   -1.7877    0.2144 C   0  0  0  0  0  0  0  0  0  0  0  0
   -2.7581   -2.7035    1.2226 C   0  0  0  0  0  0  0  0  0  0  0  0
   -2.5512   -4.0512    1.0704 C   0  0  0  0  0  0  0  0  0  0  0  0
   -2.1023   -4.5491   -0.1339 C   0  0  0  0  0  0  0  0  0  0  0  0
   -1.9056   -5.9177   -0.2492 O   0  0  0  0  0  0  0  0  0  0  0  0
   -1.8762   -3.6493   -1.1532 C   0  0  0  0  0  0  0  0  0  0  0  0
   -2.0848   -2.3060   -0.9915 C   0  0  0  0  0  0  0  0  0  0  0  0
   -2.2533    0.0629    1.8463 C   0  0  1  0  0  0  0  0  0  0  0  0
   -0.6919    0.0344    1.5592 C   0  0  0  0  0  0  0  0  0  0  0  0
    0.1335    0.8889    2.2253 C   0  0  0  0  0  0  0  0  0  0  0  0
    1.5189    0.8594    1.9797 C   0  0  0  0  0  0  0  0  0  0  0  0
    2.0688   -0.0186    1.0760 C   0  0  0  0  0  0  0  0  0  0  0  0
    3.4468   -0.0325    0.8450 O   0  0  0  0  0  0  0  0  0  0  0  0
    3.9779   -0.9362   -0.0742 C   0  0  0  0  0  0  0  0  0  0  0  0
    5.4905   -0.6635   -0.0749 C   0  0  0  0  0  0  0  0  0  0  0  0
    5.6976    0.7358   -0.4898 N   0  0  0  0  0  0  0  0  0  0  0  0
    5.3077    0.7638   -1.8942 C   0  0  0  0  0  0  0  0  0  0  0  0
    5.8423   -0.4901   -2.5368 C   0  0  0  0  0  0  0  0  0  0  0  0
    7.3631   -0.4606   -2.4592 C   0  0  0  0  0  0  0  0  0  0  0  0
    7.8062   -0.2515   -1.0268 C   0  0  0  0  0  0  0  0  0  0  0  0
    7.1229    0.9770   -0.4195 C   0  0  0  0  0  0  0  0  0  0  0  0
    1.2179   -0.8720    0.4150 C   0  0  0  0  0  0  0  0  0  0  0  0
   -0.1700   -0.8375    0.6652 C   0  0  0  0  0  0  0  0  0  0  0  0
   -2.4846    1.5580    1.9224 O   0  0  0  0  0  0  0  0  0  0  0  0
   -3.0023    2.3176    0.9981 C   0  0  0  0  0  0  0  0  0  0  0  0
   -3.1648    3.6715    1.2263 C   0  0  0  0  0  0  0  0  0  0  0  0
   -3.7004    4.5008    0.2885 C   0  0  0  0  0  0  0  0  0  0  0  0
   -4.0965    3.9972   -0.9233 C   0  0  0  0  0  0  0  0  0  0  0  0
   -4.6528    4.8450   -1.9022 O   0  0  0  0  0  0  0  0  0  0  0  0
   -3.9376    2.6515   -1.1560 C   0  0  0  0  0  0  0  0  0  0  0  0
   -3.3777    1.7861   -0.1752 C   0  0  0  0  0  0  0  0  0  0  0  0
  1  2  1  0
  2  3  2  0
  3  4  1  0
  4  5  2  0
  5  6  1  0
  6  7  2  0
  7  8  1  0
  7  9  1  0
  9 10  2  0
  3 11  1  0
 11 12  1  6
 12 13  2  0
 13 14  1  0
 14 15  2  0
 15 16  1  0
 16 17  1  0
 17 18  1  0
 18 19  1  0
 19 20  1  0
 20 21  1  0
 21 22  1  0
 22 23  1  0
 23 24  1  0
 15 25  1  0
 25 26  2  0
 11 27  1  0
 27 28  1  0
 28 29  2  0
 29 30  1  0
 30 31  2  0
 31 32  1  0
 31 33  1  0
 33 34  2  0
 34  2  1  0
 10  4  1  0
 26 12  1  0
 34 28  1  0
 24 19  1  0
M  END
>  <zinc_id>  (1) 
ZINC000003815459

>  <smiles>  (1) 
CC1=C(c2ccc(O)cc2)[C@@H](c2ccc(OCCN3CCCCC3)cc2)Oc2ccc(O)cc21

$$$$
