
     RDKit          3D

 36 40  0  0  0  0  0  0  0  0999 V2000
    1.1597   -0.0139    3.1842 C   0  0  0  0  0  0  0  0  0  0  0  0
    2.5587   -0.5286    3.0768 C   0  0  0  0  0  0  0  0  0  0  0  0
    3.2467   -0.8548    4.2293 C   0  0  0  0  0  0  0  0  0  0  0  0
    4.5442   -1.3399    4.1411 C   0  0  0  0  0  0  0  0  0  0  0  0
    5.2484   -1.6719    5.3090 O   0  0  0  0  0  0  0  0  0  0  0  0
    5.1120   -1.4842    2.9093 C   0  0  0  0  0  0  0  0  0  0  0  0
    4.4131   -1.1550    1.7763 C   0  0  0  0  0  0  0  0  0  0  0  0
    3.1141   -0.6671    1.8387 C   0  0  0  0  0  0  0  0  0  0  0  0
    2.4059   -0.3239    0.6101 C   0  0  0  0  0  0  0  0  0  0  0  0
    2.9231   -0.4767   -0.6561 C   0  0  0  0  0  0  0  0  0  0  0  0
    2.2061   -0.1288   -1.7859 C   0  0  0  0  0  0  0  0  0  0  0  0
    2.6859   -0.2797   -3.1471 C   0  0  0  0  0  0  0  0  0  0  0  0
    1.8378   -0.5320   -4.2090 C   0  0  0  0  0  0  0  0  0  0  0  0
    2.3458   -0.6708   -5.4686 C   0  0  0  0  0  0  0  0  0  0  0  0
    3.6949   -0.5692   -5.7358 C   0  0  0  0  0  0  0  0  0  0  0  0
    4.5494   -0.3181   -4.6879 C   0  0  0  0  0  0  0  0  0  0  0  0
    4.0334   -0.1794   -3.4239 C   0  0  0  0  0  0  0  0  0  0  0  0
    0.9433    0.3811   -1.5826 C   0  0  0  0  0  0  0  0  0  0  0  0
    0.4144    0.5379   -0.3109 C   0  0  0  0  0  0  0  0  0  0  0  0
   -0.9128    1.0793   -0.1362 N   0  0  0  0  0  0  0  0  0  0  0  0
   -1.9870    0.1478   -0.3322 C   0  0  0  0  0  0  0  0  0  0  0  0
   -2.7123   -0.2444    0.9346 C   0  0  0  0  0  0  0  0  0  0  0  0
   -3.7923   -1.2155    0.5346 C   0  0  0  0  0  0  0  0  0  0  0  0
   -5.0571   -0.8327    0.2148 C   0  0  0  0  0  0  0  0  0  0  0  0
   -6.0574   -1.7225   -0.1659 C   0  0  0  0  0  0  0  0  0  0  0  0
   -5.7477   -3.0791   -0.2233 C   0  0  0  0  0  0  0  0  0  0  0  0
   -4.4713   -3.4616    0.0993 C   0  0  0  0  0  0  0  0  0  0  0  0
   -3.4793   -2.5794    0.4773 C   0  0  0  0  0  0  0  0  0  0  0  0
   -1.1251    2.4426    0.2394 C   0  0  0  0  0  0  0  0  0  0  0  0
   -2.5378    2.8478    0.2434 C   0  0  0  0  0  0  0  0  0  0  0  0
   -3.5276    2.1297   -0.3994 C   0  0  0  0  0  0  0  0  0  0  0  0
   -4.8552    2.5163   -0.3977 C   0  0  0  0  0  0  0  0  0  0  0  0
   -5.1907    3.6648    0.2753 C   0  0  0  0  0  0  0  0  0  0  0  0
   -4.2245    4.3999    0.9248 C   0  0  0  0  0  0  0  0  0  0  0  0
   -2.9112    3.9970    0.9102 C   0  0  0  0  0  0  0  0  0  0  0  0
    1.1524    0.1851    0.7340 N   0  0  0  0  0  0  0  0  0  0  0  0
  1  2  1  0
  2  3  2  0
  3  4  1  0
  4  5  1  0
  4  6  2  0
  6  7  1  0
  7  8  2  0
  8  9  1  0
  9 10  2  0
 10 11  1  0
 11 12  1  0
 12 13  2  0
 13 14  1  0
 14 15  2  0
 15 16  1  0
 16 17  2  0
 11 18  2  0
 18 19  1  0
 19 20  1  0
 20 21  1  0
 21 22  1  0
 22 23  1  0
 23 24  2  0
 24 25  1  0
 25 26  2  0
 26 27  1  0
 27 28  2  0
 20 29  1  0
 29 30  1  0
 30 31  2  0
 31 32  1  0
 32 33  2  0
 33 34  1  0
 34 35  2  0
 19 36  2  0
  8  2  1  0
 36  9  1  0
 17 12  1  0
 28 23  1  0
 35 30  1  0
M  END
>  <zinc_id>  (1) 
ZINC000003815465

>  <smiles>  (1) 
Cc1cc(O)ccc1-c1cc(-c2ccccc2)cc(N(CCc2ccccc2)Cc2ccccc2)n1

$$$$
