MODEL 1
REMARK VINA RESULT:      -6.6      0.000      0.000
REMARK  Name = 
REMARK  8 active torsions:
REMARK  status: ('A' for Active; 'I' for Inactive)
REMARK    1  A    between atoms: C_2  and  C_3
REMARK    2  A    between atoms: C_3  and  C_23
REMARK    3  A    between atoms: C_4  and  C_5
REMARK    4  A    between atoms: C_4  and  C_11
REMARK    5  A    between atoms: C_14  and  O_15
REMARK    6  A    between atoms: O_15  and  C_16
REMARK    7  A    between atoms: C_16  and  C_17
REMARK    8  A    between atoms: C_17  and  N_18
REMARK                            x       y       z     vdW  Elec       q    Type
REMARK                         _______ _______ _______ _____ _____    ______ ____
ROOT
ATOM      1  C   UNL     1      36.874  -0.624  16.429  0.00  0.00    +0.000 C 
ATOM      2  C   UNL     1      37.316   0.045  15.401  0.00  0.00    +0.000 C 
ENDROOT
BRANCH   2   3
ATOM      3  C   UNL     1      38.291  -0.520  14.466  0.00  0.00    +0.000 A 
ATOM      4  C   UNL     1      39.644  -0.467  14.816  0.00  0.00    +0.000 A 
ATOM      5  C   UNL     1      40.632  -0.950  13.995  0.00  0.00    +0.000 A 
ATOM      6  C   UNL     1      40.343  -1.513  12.776  0.00  0.00    +0.000 A 
ATOM      7  C   UNL     1      38.988  -1.564  12.428  0.00  0.00    +0.000 A 
ATOM      8  C   UNL     1      38.004  -1.073  13.268  0.00  0.00    +0.000 A 
ENDBRANCH   2   3
BRANCH   2   9
ATOM      9  C   UNL     1      36.822   1.405  15.206  0.00  0.00    +0.000 A 
ATOM     10  C   UNL     1      37.536   2.503  15.590  0.00  0.00    +0.000 A 
ATOM     11  C   UNL     1      37.079   3.794  15.416  0.00  0.00    +0.000 A 
ATOM     12  C   UNL     1      35.864   4.026  14.839  0.00  0.00    +0.000 A 
ATOM     13  C   UNL     1      35.107   2.920  14.433  0.00  0.00    +0.000 A 
ATOM     14  C   UNL     1      35.598   1.623  14.623  0.00  0.00    +0.000 A 
BRANCH  12  15
ATOM     15  O   UNL     1      35.374   5.324  14.648  0.00  0.00    +0.000 OA
BRANCH  15  16
ATOM     16  C   UNL     1      35.106   5.740  13.330  0.00  0.00    +0.000 C 
BRANCH  16  17
ATOM     17  C   UNL     1      33.942   6.737  13.410  0.00  0.00    +0.000 C 
BRANCH  17  18
ATOM     18  N   UNL     1      34.500   7.947  14.042  0.00  0.00    +0.000 NA
ATOM     19  C   UNL     1      33.634   8.452  15.085  0.00  0.00    +0.000 C 
ATOM     20  C   UNL     1      34.664   8.940  12.968  0.00  0.00    +0.000 C 
ENDBRANCH  17  18
ENDBRANCH  16  17
ENDBRANCH  15  16
ENDBRANCH  12  15
ENDBRANCH   2   9
BRANCH   1  21
ATOM     21  C   UNL     1      37.361  -1.955  16.736  0.00  0.00    +0.000 A 
ATOM     22  C   UNL     1      36.950  -3.096  16.058  0.00  0.00    +0.000 A 
ATOM     23  C   UNL     1      37.382  -4.347  16.366  0.00  0.00    +0.000 A 
ATOM     24  C   UNL     1      38.287  -4.550  17.406  0.00  0.00    +0.000 A 
ATOM     25  C   UNL     1      38.705  -3.434  18.087  0.00  0.00    +0.000 A 
ATOM     26  C   UNL     1      38.257  -2.161  17.765  0.00  0.00    +0.000 A 
ENDBRANCH   1  21
BRANCH   1  28
ATOM     27  C   UNL     1      34.632  -0.855  17.280  0.00  0.00    +0.000 C 
ATOM     28  C   UNL     1      35.854   0.043  17.341  0.00  0.00    +0.000 C 
ENDBRANCH   1  28
TORSDOF 8
ENDMDL
MODEL 2
REMARK VINA RESULT:      -6.6      6.301      9.902
REMARK  Name = 
REMARK  8 active torsions:
REMARK  status: ('A' for Active; 'I' for Inactive)
REMARK    1  A    between atoms: C_2  and  C_3
REMARK    2  A    between atoms: C_3  and  C_23
REMARK    3  A    between atoms: C_4  and  C_5
REMARK    4  A    between atoms: C_4  and  C_11
REMARK    5  A    between atoms: C_14  and  O_15
REMARK    6  A    between atoms: O_15  and  C_16
REMARK    7  A    between atoms: C_16  and  C_17
REMARK    8  A    between atoms: C_17  and  N_18
REMARK                            x       y       z     vdW  Elec       q    Type
REMARK                         _______ _______ _______ _____ _____    ______ ____
ROOT
ATOM      1  C   UNL     1      39.697   8.184  18.518  0.00  0.00    +0.000 C 
ATOM      2  C   UNL     1      40.306   7.034  18.460  0.00  0.00    +0.000 C 
ENDROOT
BRANCH   2   3
ATOM      3  C   UNL     1      41.630   6.824  19.050  0.00  0.00    +0.000 A 
ATOM      4  C   UNL     1      41.698   6.376  20.373  0.00  0.00    +0.000 A 
ATOM      5  C   UNL     1      42.893   6.173  21.017  0.00  0.00    +0.000 A 
ATOM      6  C   UNL     1      44.094   6.403  20.392  0.00  0.00    +0.000 A 
ATOM      7  C   UNL     1      44.024   6.851  19.068  0.00  0.00    +0.000 A 
ATOM      8  C   UNL     1      42.811   7.050  18.433  0.00  0.00    +0.000 A 
ENDBRANCH   2   3
BRANCH   2   9
ATOM      9  C   UNL     1      39.637   5.938  17.765  0.00  0.00    +0.000 A 
ATOM     10  C   UNL     1      39.811   5.704  16.432  0.00  0.00    +0.000 A 
ATOM     11  C   UNL     1      39.180   4.676  15.762  0.00  0.00    +0.000 A 
ATOM     12  C   UNL     1      38.336   3.832  16.425  0.00  0.00    +0.000 A 
ATOM     13  C   UNL     1      38.136   4.046  17.795  0.00  0.00    +0.000 A 
ATOM     14  C   UNL     1      38.790   5.098  18.445  0.00  0.00    +0.000 A 
BRANCH  12  15
ATOM     15  O   UNL     1      37.683   2.779  15.773  0.00  0.00    +0.000 OA
BRANCH  15  16
ATOM     16  C   UNL     1      36.390   2.434  16.210  0.00  0.00    +0.000 C 
BRANCH  16  17
ATOM     17  C   UNL     1      36.219   0.932  15.941  0.00  0.00    +0.000 C 
BRANCH  17  18
ATOM     18  N   UNL     1      36.850   0.251  17.086  0.00  0.00    +0.000 NA
ATOM     19  C   UNL     1      36.979  -1.171  16.855  0.00  0.00    +0.000 C 
ATOM     20  C   UNL     1      35.994   0.519  18.253  0.00  0.00    +0.000 C 
ENDBRANCH  17  18
ENDBRANCH  16  17
ENDBRANCH  15  16
ENDBRANCH  12  15
ENDBRANCH   2   9
BRANCH   1  21
ATOM     21  C   UNL     1      40.318   9.344  19.130  0.00  0.00    +0.000 A 
ATOM     22  C   UNL     1      40.289   9.596  20.496  0.00  0.00    +0.000 A 
ATOM     23  C   UNL     1      40.844  10.697  21.067  0.00  0.00    +0.000 A 
ATOM     24  C   UNL     1      41.487  11.654  20.284  0.00  0.00    +0.000 A 
ATOM     25  C   UNL     1      41.526  11.422  18.932  0.00  0.00    +0.000 A 
ATOM     26  C   UNL     1      40.956  10.294  18.359  0.00  0.00    +0.000 A 
ENDBRANCH   1  21
BRANCH   1  28
ATOM     27  C   UNL     1      37.364   8.467  19.053  0.00  0.00    +0.000 C 
ATOM     28  C   UNL     1      38.317   8.305  17.883  0.00  0.00    +0.000 C 
ENDBRANCH   1  28
TORSDOF 8
ENDMDL
MODEL 3
REMARK VINA RESULT:      -6.4      5.114      8.408
REMARK  Name = 
REMARK  8 active torsions:
REMARK  status: ('A' for Active; 'I' for Inactive)
REMARK    1  A    between atoms: C_2  and  C_3
REMARK    2  A    between atoms: C_3  and  C_23
REMARK    3  A    between atoms: C_4  and  C_5
REMARK    4  A    between atoms: C_4  and  C_11
REMARK    5  A    between atoms: C_14  and  O_15
REMARK    6  A    between atoms: O_15  and  C_16
REMARK    7  A    between atoms: C_16  and  C_17
REMARK    8  A    between atoms: C_17  and  N_18
REMARK                            x       y       z     vdW  Elec       q    Type
REMARK                         _______ _______ _______ _____ _____    ______ ____
ROOT
ATOM      1  C   UNL     1      38.180  -1.220  15.490  0.00  0.00    +0.000 C 
ATOM      2  C   UNL     1      38.204  -2.370  14.878  0.00  0.00    +0.000 C 
ENDROOT
BRANCH   2   3
ATOM      3  C   UNL     1      37.220  -3.419  15.154  0.00  0.00    +0.000 A 
ATOM      4  C   UNL     1      37.514  -4.349  16.156  0.00  0.00    +0.000 A 
ATOM      5  C   UNL     1      36.664  -5.380  16.470  0.00  0.00    +0.000 A 
ATOM      6  C   UNL     1      35.472  -5.555  15.811  0.00  0.00    +0.000 A 
ATOM      7  C   UNL     1      35.180  -4.623  14.808  0.00  0.00    +0.000 A 
ATOM      8  C   UNL     1      36.048  -3.589  14.504  0.00  0.00    +0.000 A 
ENDBRANCH   2   3
BRANCH   2   9
ATOM      9  C   UNL     1      39.266  -2.606  13.904  0.00  0.00    +0.000 A 
ATOM     10  C   UNL     1      40.538  -2.932  14.275  0.00  0.00    +0.000 A 
ATOM     11  C   UNL     1      41.552  -3.152  13.365  0.00  0.00    +0.000 A 
ATOM     12  C   UNL     1      41.314  -3.048  12.025  0.00  0.00    +0.000 A 
ATOM     13  C   UNL     1      40.018  -2.715  11.611  0.00  0.00    +0.000 A 
ATOM     14  C   UNL     1      39.012  -2.497  12.559  0.00  0.00    +0.000 A 
BRANCH  12  15
ATOM     15  O   UNL     1      42.322  -3.267  11.077  0.00  0.00    +0.000 OA
BRANCH  15  16
ATOM     16  C   UNL     1      43.256  -2.236  10.859  0.00  0.00    +0.000 C 
BRANCH  16  17
ATOM     17  C   UNL     1      44.617  -2.912  10.646  0.00  0.00    +0.000 C 
BRANCH  17  18
ATOM     18  N   UNL     1      44.582  -4.139  11.463  0.00  0.00    +0.000 NA
ATOM     19  C   UNL     1      45.270  -3.960  12.723  0.00  0.00    +0.000 C 
ATOM     20  C   UNL     1      45.222  -5.194  10.660  0.00  0.00    +0.000 C 
ENDBRANCH  17  18
ENDBRANCH  16  17
ENDBRANCH  15  16
ENDBRANCH  12  15
ENDBRANCH   2   9
BRANCH   1  21
ATOM     21  C   UNL     1      37.201  -0.926  16.520  0.00  0.00    +0.000 A 
ATOM     22  C   UNL     1      37.409  -1.184  17.869  0.00  0.00    +0.000 A 
ATOM     23  C   UNL     1      36.481  -0.938  18.831  0.00  0.00    +0.000 A 
ATOM     24  C   UNL     1      35.240  -0.398  18.497  0.00  0.00    +0.000 A 
ATOM     25  C   UNL     1      35.016  -0.136  17.169  0.00  0.00    +0.000 A 
ATOM     26  C   UNL     1      35.971  -0.392  16.195  0.00  0.00    +0.000 A 
ENDBRANCH   1  21
BRANCH   1  28
ATOM     27  C   UNL     1      38.505   0.854  14.306  0.00  0.00    +0.000 C 
ATOM     28  C   UNL     1      39.240  -0.187  15.130  0.00  0.00    +0.000 C 
ENDBRANCH   1  28
TORSDOF 8
ENDMDL
MODEL 4
REMARK VINA RESULT:      -6.4      5.813      9.333
REMARK  Name = 
REMARK  8 active torsions:
REMARK  status: ('A' for Active; 'I' for Inactive)
REMARK    1  A    between atoms: C_2  and  C_3
REMARK    2  A    between atoms: C_3  and  C_23
REMARK    3  A    between atoms: C_4  and  C_5
REMARK    4  A    between atoms: C_4  and  C_11
REMARK    5  A    between atoms: C_14  and  O_15
REMARK    6  A    between atoms: O_15  and  C_16
REMARK    7  A    between atoms: C_16  and  C_17
REMARK    8  A    between atoms: C_17  and  N_18
REMARK                            x       y       z     vdW  Elec       q    Type
REMARK                         _______ _______ _______ _____ _____    ______ ____
ROOT
ATOM      1  C   UNL     1      39.216   7.959  18.321  0.00  0.00    +0.000 C 
ATOM      2  C   UNL     1      39.951   6.887  18.231  0.00  0.00    +0.000 C 
ENDROOT
BRANCH   2   3
ATOM      3  C   UNL     1      41.205   6.739  18.973  0.00  0.00    +0.000 A 
ATOM      4  C   UNL     1      42.404   6.969  18.291  0.00  0.00    +0.000 A 
ATOM      5  C   UNL     1      43.629   6.832  18.897  0.00  0.00    +0.000 A 
ATOM      6  C   UNL     1      43.742   6.458  20.213  0.00  0.00    +0.000 A 
ATOM      7  C   UNL     1      42.540   6.229  20.894  0.00  0.00    +0.000 A 
ATOM      8  C   UNL     1      41.314   6.371  20.268  0.00  0.00    +0.000 A 
ENDBRANCH   2   3
BRANCH   2   9
ATOM      9  C   UNL     1      39.501   5.821  17.341  0.00  0.00    +0.000 A 
ATOM     10  C   UNL     1      39.966   5.689  16.065  0.00  0.00    +0.000 A 
ATOM     11  C   UNL     1      39.546   4.690  15.212  0.00  0.00    +0.000 A 
ATOM     12  C   UNL     1      38.623   3.771  15.623  0.00  0.00    +0.000 A 
ATOM     13  C   UNL     1      38.126   3.879  16.928  0.00  0.00    +0.000 A 
ATOM     14  C   UNL     1      38.573   4.904  17.769  0.00  0.00    +0.000 A 
BRANCH  12  15
ATOM     15  O   UNL     1      38.178   2.745  14.781  0.00  0.00    +0.000 OA
BRANCH  15  16
ATOM     16  C   UNL     1      37.165   1.892  15.260  0.00  0.00    +0.000 C 
BRANCH  16  17
ATOM     17  C   UNL     1      36.058   1.881  14.197  0.00  0.00    +0.000 C 
BRANCH  17  18
ATOM     18  N   UNL     1      34.903   2.552  14.821  0.00  0.00    +0.000 NA
ATOM     19  C   UNL     1      34.978   3.989  14.674  0.00  0.00    +0.000 C 
ATOM     20  C   UNL     1      34.915   2.167  16.241  0.00  0.00    +0.000 C 
ENDBRANCH  17  18
ENDBRANCH  16  17
ENDBRANCH  15  16
ENDBRANCH  12  15
ENDBRANCH   2   9
BRANCH   1  21
ATOM     21  C   UNL     1      39.621   9.094  19.129  0.00  0.00    +0.000 A 
ATOM     22  C   UNL     1      40.645   9.962  18.771  0.00  0.00    +0.000 A 
ATOM     23  C   UNL     1      41.046  11.007  19.542  0.00  0.00    +0.000 A 
ATOM     24  C   UNL     1      40.429  11.264  20.764  0.00  0.00    +0.000 A 
ATOM     25  C   UNL     1      39.415  10.418  21.135  0.00  0.00    +0.000 A 
ATOM     26  C   UNL     1      39.013   9.353  20.340  0.00  0.00    +0.000 A 
ENDBRANCH   1  21
BRANCH   1  28
ATOM     27  C   UNL     1      38.183   9.057  16.441  0.00  0.00    +0.000 C 
ATOM     28  C   UNL     1      37.923   8.019  17.518  0.00  0.00    +0.000 C 
ENDBRANCH   1  28
TORSDOF 8
ENDMDL
MODEL 5
REMARK VINA RESULT:      -6.3      8.675     12.255
REMARK  Name = 
REMARK  8 active torsions:
REMARK  status: ('A' for Active; 'I' for Inactive)
REMARK    1  A    between atoms: C_2  and  C_3
REMARK    2  A    between atoms: C_3  and  C_23
REMARK    3  A    between atoms: C_4  and  C_5
REMARK    4  A    between atoms: C_4  and  C_11
REMARK    5  A    between atoms: C_14  and  O_15
REMARK    6  A    between atoms: O_15  and  C_16
REMARK    7  A    between atoms: C_16  and  C_17
REMARK    8  A    between atoms: C_17  and  N_18
REMARK                            x       y       z     vdW  Elec       q    Type
REMARK                         _______ _______ _______ _____ _____    ______ ____
ROOT
ATOM      1  C   UNL     1      41.421   8.521  20.061  0.00  0.00    +0.000 C 
ATOM      2  C   UNL     1      41.713   7.311  19.675  0.00  0.00    +0.000 C 
ENDROOT
BRANCH   2   3
ATOM      3  C   UNL     1      40.804   6.520  18.842  0.00  0.00    +0.000 A 
ATOM      4  C   UNL     1      41.064   6.449  17.469  0.00  0.00    +0.000 A 
ATOM      5  C   UNL     1      40.257   5.751  16.606  0.00  0.00    +0.000 A 
ATOM      6  C   UNL     1      39.141   5.082  17.048  0.00  0.00    +0.000 A 
ATOM      7  C   UNL     1      38.883   5.155  18.422  0.00  0.00    +0.000 A 
ATOM      8  C   UNL     1      39.708   5.862  19.278  0.00  0.00    +0.000 A 
ENDBRANCH   2   3
BRANCH   2   9
ATOM      9  C   UNL     1      42.983   6.739  20.113  0.00  0.00    +0.000 A 
ATOM     10  C   UNL     1      43.106   6.044  21.281  0.00  0.00    +0.000 A 
ATOM     11  C   UNL     1      44.300   5.503  21.710  0.00  0.00    +0.000 A 
ATOM     12  C   UNL     1      45.434   5.648  20.963  0.00  0.00    +0.000 A 
ATOM     13  C   UNL     1      45.341   6.356  19.759  0.00  0.00    +0.000 A 
ATOM     14  C   UNL     1      44.114   6.893  19.351  0.00  0.00    +0.000 A 
BRANCH  12  15
ATOM     15  O   UNL     1      46.661   5.109  21.371  0.00  0.00    +0.000 OA
BRANCH  15  16
ATOM     16  C   UNL     1      46.642   3.899  22.090  0.00  0.00    +0.000 C 
BRANCH  16  17
ATOM     17  C   UNL     1      46.612   2.770  21.051  0.00  0.00    +0.000 C 
BRANCH  17  18
ATOM     18  N   UNL     1      47.482   1.710  21.594  0.00  0.00    +0.000 NA
ATOM     19  C   UNL     1      48.870   2.120  21.617  0.00  0.00    +0.000 C 
ATOM     20  C   UNL     1      47.295   0.534  20.730  0.00  0.00    +0.000 C 
ENDBRANCH  17  18
ENDBRANCH  16  17
ENDBRANCH  15  16
ENDBRANCH  12  15
ENDBRANCH   2   9
BRANCH   1  21
ATOM     21  C   UNL     1      40.153   9.141  19.727  0.00  0.00    +0.000 A 
ATOM     22  C   UNL     1      39.884   9.718  18.491  0.00  0.00    +0.000 A 
ATOM     23  C   UNL     1      38.707  10.326  18.189  0.00  0.00    +0.000 A 
ATOM     24  C   UNL     1      37.684  10.400  19.132  0.00  0.00    +0.000 A 
ATOM     25  C   UNL     1      37.930   9.836  20.357  0.00  0.00    +0.000 A 
ATOM     26  C   UNL     1      39.136   9.217  20.657  0.00  0.00    +0.000 A 
ENDBRANCH   1  21
BRANCH   1  28
ATOM     27  C   UNL     1      42.770  10.517  20.122  0.00  0.00    +0.000 C 
ATOM     28  C   UNL     1      42.433   9.270  20.918  0.00  0.00    +0.000 C 
ENDBRANCH   1  28
TORSDOF 8
ENDMDL
MODEL 6
REMARK VINA RESULT:      -6.3      8.389     11.555
REMARK  Name = 
REMARK  8 active torsions:
REMARK  status: ('A' for Active; 'I' for Inactive)
REMARK    1  A    between atoms: C_2  and  C_3
REMARK    2  A    between atoms: C_3  and  C_23
REMARK    3  A    between atoms: C_4  and  C_5
REMARK    4  A    between atoms: C_4  and  C_11
REMARK    5  A    between atoms: C_14  and  O_15
REMARK    6  A    between atoms: O_15  and  C_16
REMARK    7  A    between atoms: C_16  and  C_17
REMARK    8  A    between atoms: C_17  and  N_18
REMARK                            x       y       z     vdW  Elec       q    Type
REMARK                         _______ _______ _______ _____ _____    ______ ____
ROOT
ATOM      1  C   UNL     1      40.404   8.269  19.523  0.00  0.00    +0.000 C 
ATOM      2  C   UNL     1      40.913   7.125  19.164  0.00  0.00    +0.000 C 
ENDROOT
BRANCH   2   3
ATOM      3  C   UNL     1      40.197   6.195  18.288  0.00  0.00    +0.000 A 
ATOM      4  C   UNL     1      40.518   6.194  16.926  0.00  0.00    +0.000 A 
ATOM      5  C   UNL     1      39.886   5.375  16.025  0.00  0.00    +0.000 A 
ATOM      6  C   UNL     1      38.895   4.507  16.415  0.00  0.00    +0.000 A 
ATOM      7  C   UNL     1      38.576   4.509  17.778  0.00  0.00    +0.000 A 
ATOM      8  C   UNL     1      39.223   5.342  18.673  0.00  0.00    +0.000 A 
ENDBRANCH   2   3
BRANCH   2   9
ATOM      9  C   UNL     1      42.233   6.771  19.678  0.00  0.00    +0.000 A 
ATOM     10  C   UNL     1      42.407   6.161  20.886  0.00  0.00    +0.000 A 
ATOM     11  C   UNL     1      43.648   5.826  21.386  0.00  0.00    +0.000 A 
ATOM     12  C   UNL     1      44.779   6.101  20.672  0.00  0.00    +0.000 A 
ATOM     13  C   UNL     1      44.635   6.727  19.428  0.00  0.00    +0.000 A 
ATOM     14  C   UNL     1      43.362   7.054  18.949  0.00  0.00    +0.000 A 
BRANCH  12  15
ATOM     15  O   UNL     1      46.053   5.772  21.153  0.00  0.00    +0.000 OA
BRANCH  15  16
ATOM     16  C   UNL     1      46.565   6.522  22.229  0.00  0.00    +0.000 C 
BRANCH  16  17
ATOM     17  C   UNL     1      46.892   5.522  23.347  0.00  0.00    +0.000 C 
BRANCH  17  18
ATOM     18  N   UNL     1      46.149   5.995  24.530  0.00  0.00    +0.000 NA
ATOM     19  C   UNL     1      44.965   5.199  24.769  0.00  0.00    +0.000 C 
ATOM     20  C   UNL     1      45.794   7.399  24.265  0.00  0.00    +0.000 C 
ENDBRANCH  17  18
ENDBRANCH  16  17
ENDBRANCH  15  16
ENDBRANCH  12  15
ENDBRANCH   2   9
BRANCH   1  21
ATOM     21  C   UNL     1      39.071   8.670  19.113  0.00  0.00    +0.000 A 
ATOM     22  C   UNL     1      38.794   9.275  17.893  0.00  0.00    +0.000 A 
ATOM     23  C   UNL     1      37.552   9.679  17.522  0.00  0.00    +0.000 A 
ATOM     24  C   UNL     1      36.463   9.499  18.373  0.00  0.00    +0.000 A 
ATOM     25  C   UNL     1      36.716   8.903  19.582  0.00  0.00    +0.000 A 
ATOM     26  C   UNL     1      37.990   8.494  19.952  0.00  0.00    +0.000 A 
ENDBRANCH   1  21
BRANCH   1  28
ATOM     27  C   UNL     1      41.641  10.337  19.546  0.00  0.00    +0.000 C 
ATOM     28  C   UNL     1      41.226   9.175  20.430  0.00  0.00    +0.000 C 
ENDBRANCH   1  28
TORSDOF 8
ENDMDL
MODEL 7
REMARK VINA RESULT:      -6.3      4.650      8.265
REMARK  Name = 
REMARK  8 active torsions:
REMARK  status: ('A' for Active; 'I' for Inactive)
REMARK    1  A    between atoms: C_2  and  C_3
REMARK    2  A    between atoms: C_3  and  C_23
REMARK    3  A    between atoms: C_4  and  C_5
REMARK    4  A    between atoms: C_4  and  C_11
REMARK    5  A    between atoms: C_14  and  O_15
REMARK    6  A    between atoms: O_15  and  C_16
REMARK    7  A    between atoms: C_16  and  C_17
REMARK    8  A    between atoms: C_17  and  N_18
REMARK                            x       y       z     vdW  Elec       q    Type
REMARK                         _______ _______ _______ _____ _____    ______ ____
ROOT
ATOM      1  C   UNL     1      38.433  -1.995  16.135  0.00  0.00    +0.000 C 
ATOM      2  C   UNL     1      38.839  -1.355  15.074  0.00  0.00    +0.000 C 
ENDROOT
BRANCH   2   3
ATOM      3  C   UNL     1      38.133  -0.180  14.557  0.00  0.00    +0.000 A 
ATOM      4  C   UNL     1      37.298  -0.350  13.448  0.00  0.00    +0.000 A 
ATOM      5  C   UNL     1      36.614   0.695  12.880  0.00  0.00    +0.000 A 
ATOM      6  C   UNL     1      36.715   1.973  13.372  0.00  0.00    +0.000 A 
ATOM      7  C   UNL     1      37.551   2.140  14.482  0.00  0.00    +0.000 A 
ATOM      8  C   UNL     1      38.234   1.076  15.043  0.00  0.00    +0.000 A 
ENDBRANCH   2   3
BRANCH   2   9
ATOM      9  C   UNL     1      40.025  -1.853  14.385  0.00  0.00    +0.000 A 
ATOM     10  C   UNL     1      41.283  -1.418  14.688  0.00  0.00    +0.000 A 
ATOM     11  C   UNL     1      42.412  -1.876  14.041  0.00  0.00    +0.000 A 
ATOM     12  C   UNL     1      42.311  -2.807  13.047  0.00  0.00    +0.000 A 
ATOM     13  C   UNL     1      41.034  -3.275  12.713  0.00  0.00    +0.000 A 
ATOM     14  C   UNL     1      39.908  -2.790  13.388  0.00  0.00    +0.000 A 
BRANCH  12  15
ATOM     15  O   UNL     1      43.438  -3.293  12.373  0.00  0.00    +0.000 OA
BRANCH  15  16
ATOM     16  C   UNL     1      43.949  -2.527  11.308  0.00  0.00    +0.000 C 
BRANCH  16  17
ATOM     17  C   UNL     1      43.575  -3.267  10.015  0.00  0.00    +0.000 C 
BRANCH  17  18
ATOM     18  N   UNL     1      43.870  -4.688  10.274  0.00  0.00    +0.000 NA
ATOM     19  C   UNL     1      45.183  -5.057   9.791  0.00  0.00    +0.000 C 
ATOM     20  C   UNL     1      42.821  -5.462   9.590  0.00  0.00    +0.000 C 
ENDBRANCH  17  18
ENDBRANCH  16  17
ENDBRANCH  15  16
ENDBRANCH  12  15
ENDBRANCH   2   9
BRANCH   1  21
ATOM     21  C   UNL     1      37.226  -1.609  16.841  0.00  0.00    +0.000 A 
ATOM     22  C   UNL     1      35.949  -1.768  16.317  0.00  0.00    +0.000 A 
ATOM     23  C   UNL     1      34.819  -1.379  16.965  0.00  0.00    +0.000 A 
ATOM     24  C   UNL     1      34.893  -0.785  18.224  0.00  0.00    +0.000 A 
ATOM     25  C   UNL     1      36.146  -0.620  18.757  0.00  0.00    +0.000 A 
ATOM     26  C   UNL     1      37.293  -1.021  18.087  0.00  0.00    +0.000 A 
ENDBRANCH   1  21
BRANCH   1  28
ATOM     27  C   UNL     1      38.238  -4.343  16.639  0.00  0.00    +0.000 C 
ATOM     28  C   UNL     1      39.237  -3.201  16.603  0.00  0.00    +0.000 C 
ENDBRANCH   1  28
TORSDOF 8
ENDMDL
MODEL 8
REMARK VINA RESULT:      -6.2      4.741      8.437
REMARK  Name = 
REMARK  8 active torsions:
REMARK  status: ('A' for Active; 'I' for Inactive)
REMARK    1  A    between atoms: C_2  and  C_3
REMARK    2  A    between atoms: C_3  and  C_23
REMARK    3  A    between atoms: C_4  and  C_5
REMARK    4  A    between atoms: C_4  and  C_11
REMARK    5  A    between atoms: C_14  and  O_15
REMARK    6  A    between atoms: O_15  and  C_16
REMARK    7  A    between atoms: C_16  and  C_17
REMARK    8  A    between atoms: C_17  and  N_18
REMARK                            x       y       z     vdW  Elec       q    Type
REMARK                         _______ _______ _______ _____ _____    ______ ____
ROOT
ATOM      1  C   UNL     1      38.489  -2.008  16.042  0.00  0.00    +0.000 C 
ATOM      2  C   UNL     1      38.908  -1.353  14.996  0.00  0.00    +0.000 C 
ENDROOT
BRANCH   2   3
ATOM      3  C   UNL     1      38.174  -0.210  14.449  0.00  0.00    +0.000 A 
ATOM      4  C   UNL     1      37.425  -0.405  13.284  0.00  0.00    +0.000 A 
ATOM      5  C   UNL     1      36.724   0.611  12.686  0.00  0.00    +0.000 A 
ATOM      6  C   UNL     1      36.722   1.884  13.201  0.00  0.00    +0.000 A 
ATOM      7  C   UNL     1      37.472   2.077  14.368  0.00  0.00    +0.000 A 
ATOM      8  C   UNL     1      38.173   1.041  14.958  0.00  0.00    +0.000 A 
ENDBRANCH   2   3
BRANCH   2   9
ATOM      9  C   UNL     1      40.140  -1.803  14.354  0.00  0.00    +0.000 A 
ATOM     10  C   UNL     1      40.156  -2.800  13.422  0.00  0.00    +0.000 A 
ATOM     11  C   UNL     1      41.313  -3.238  12.812  0.00  0.00    +0.000 A 
ATOM     12  C   UNL     1      42.517  -2.677  13.126  0.00  0.00    +0.000 A 
ATOM     13  C   UNL     1      42.535  -1.651  14.079  0.00  0.00    +0.000 A 
ATOM     14  C   UNL     1      41.343  -1.229  14.680  0.00  0.00    +0.000 A 
BRANCH  12  15
ATOM     15  O   UNL     1      43.708  -3.100  12.523  0.00  0.00    +0.000 OA
BRANCH  15  16
ATOM     16  C   UNL     1      44.922  -2.648  13.074  0.00  0.00    +0.000 C 
BRANCH  16  17
ATOM     17  C   UNL     1      45.757  -3.898  13.385  0.00  0.00    +0.000 C 
BRANCH  17  18
ATOM     18  N   UNL     1      46.634  -3.519  14.508  0.00  0.00    +0.000 NA
ATOM     19  C   UNL     1      46.881  -4.637  15.393  0.00  0.00    +0.000 C 
ATOM     20  C   UNL     1      45.950  -2.427  15.220  0.00  0.00    +0.000 C 
ENDBRANCH  17  18
ENDBRANCH  16  17
ENDBRANCH  15  16
ENDBRANCH  12  15
ENDBRANCH   2   9
BRANCH   1  21
ATOM     21  C   UNL     1      37.241  -1.671  16.701  0.00  0.00    +0.000 A 
ATOM     22  C   UNL     1      35.992  -1.896  16.136  0.00  0.00    +0.000 A 
ATOM     23  C   UNL     1      34.824  -1.553  16.739  0.00  0.00    +0.000 A 
ATOM     24  C   UNL     1      34.825  -0.942  17.992  0.00  0.00    +0.000 A 
ATOM     25  C   UNL     1      36.050  -0.712  18.566  0.00  0.00    +0.000 A 
ATOM     26  C   UNL     1      37.237  -1.066  17.941  0.00  0.00    +0.000 A 
ENDBRANCH   1  21
BRANCH   1  28
ATOM     27  C   UNL     1      38.338  -4.323  16.692  0.00  0.00    +0.000 C 
ATOM     28  C   UNL     1      39.324  -3.179  16.544  0.00  0.00    +0.000 C 
ENDBRANCH   1  28
TORSDOF 8
ENDMDL
MODEL 9
REMARK VINA RESULT:      -6.2      1.826      3.889
REMARK  Name = 
REMARK  8 active torsions:
REMARK  status: ('A' for Active; 'I' for Inactive)
REMARK    1  A    between atoms: C_2  and  C_3
REMARK    2  A    between atoms: C_3  and  C_23
REMARK    3  A    between atoms: C_4  and  C_5
REMARK    4  A    between atoms: C_4  and  C_11
REMARK    5  A    between atoms: C_14  and  O_15
REMARK    6  A    between atoms: O_15  and  C_16
REMARK    7  A    between atoms: C_16  and  C_17
REMARK    8  A    between atoms: C_17  and  N_18
REMARK                            x       y       z     vdW  Elec       q    Type
REMARK                         _______ _______ _______ _____ _____    ______ ____
ROOT
ATOM      1  C   UNL     1      38.540  -1.344  15.786  0.00  0.00    +0.000 C 
ATOM      2  C   UNL     1      37.427  -0.744  15.473  0.00  0.00    +0.000 C 
ENDROOT
BRANCH   2   3
ATOM      3  C   UNL     1      36.159  -1.060  16.136  0.00  0.00    +0.000 A 
ATOM      4  C   UNL     1      35.510  -2.247  15.784  0.00  0.00    +0.000 A 
ATOM      5  C   UNL     1      34.308  -2.615  16.334  0.00  0.00    +0.000 A 
ATOM      6  C   UNL     1      33.674  -1.831  17.267  0.00  0.00    +0.000 A 
ATOM      7  C   UNL     1      34.326  -0.643  17.618  0.00  0.00    +0.000 A 
ATOM      8  C   UNL     1      35.538  -0.287  17.054  0.00  0.00    +0.000 A 
ENDBRANCH   2   3
BRANCH   2   9
ATOM      9  C   UNL     1      37.463   0.257  14.411  0.00  0.00    +0.000 A 
ATOM     10  C   UNL     1      37.055  -0.013  13.138  0.00  0.00    +0.000 A 
ATOM     11  C   UNL     1      37.089   0.923  12.124  0.00  0.00    +0.000 A 
ATOM     12  C   UNL     1      37.546   2.187  12.364  0.00  0.00    +0.000 A 
ATOM     13  C   UNL     1      37.973   2.496  13.661  0.00  0.00    +0.000 A 
ATOM     14  C   UNL     1      37.926   1.525  14.667  0.00  0.00    +0.000 A 
BRANCH  12  15
ATOM     15  O   UNL     1      37.592   3.158  11.356  0.00  0.00    +0.000 OA
BRANCH  15  16
ATOM     16  C   UNL     1      37.787   4.498  11.741  0.00  0.00    +0.000 C 
BRANCH  16  17
ATOM     17  C   UNL     1      36.413   5.179  11.677  0.00  0.00    +0.000 C 
BRANCH  17  18
ATOM     18  N   UNL     1      36.233   5.831  12.988  0.00  0.00    +0.000 NA
ATOM     19  C   UNL     1      35.338   5.078  13.839  0.00  0.00    +0.000 C 
ATOM     20  C   UNL     1      35.696   7.173  12.716  0.00  0.00    +0.000 C 
ENDBRANCH  17  18
ENDBRANCH  16  17
ENDBRANCH  15  16
ENDBRANCH  12  15
ENDBRANCH   2   9
BRANCH   1  21
ATOM     21  C   UNL     1      38.582  -2.399  16.781  0.00  0.00    +0.000 A 
ATOM     22  C   UNL     1      38.555  -3.752  16.465  0.00  0.00    +0.000 A 
ATOM     23  C   UNL     1      38.563  -4.740  17.398  0.00  0.00    +0.000 A 
ATOM     24  C   UNL     1      38.601  -4.432  18.757  0.00  0.00    +0.000 A 
ATOM     25  C   UNL     1      38.628  -3.101  19.089  0.00  0.00    +0.000 A 
ATOM     26  C   UNL     1      38.619  -2.100  18.128  0.00  0.00    +0.000 A 
ENDBRANCH   1  21
BRANCH   1  28
ATOM     27  C   UNL     1      40.076  -2.087  14.084  0.00  0.00    +0.000 C 
ATOM     28  C   UNL     1      39.810  -0.944  15.047  0.00  0.00    +0.000 C 
ENDBRANCH   1  28
TORSDOF 8
ENDMDL
MODEL 10
REMARK VINA RESULT:      -6.1      5.342      9.475
REMARK  Name = 
REMARK  8 active torsions:
REMARK  status: ('A' for Active; 'I' for Inactive)
REMARK    1  A    between atoms: C_2  and  C_3
REMARK    2  A    between atoms: C_3  and  C_23
REMARK    3  A    between atoms: C_4  and  C_5
REMARK    4  A    between atoms: C_4  and  C_11
REMARK    5  A    between atoms: C_14  and  O_15
REMARK    6  A    between atoms: O_15  and  C_16
REMARK    7  A    between atoms: C_16  and  C_17
REMARK    8  A    between atoms: C_17  and  N_18
REMARK                            x       y       z     vdW  Elec       q    Type
REMARK                         _______ _______ _______ _____ _____    ______ ____
ROOT
ATOM      1  C   UNL     1      37.360  -2.040  14.348  0.00  0.00    +0.000 C 
ATOM      2  C   UNL     1      36.543  -2.257  15.340  0.00  0.00    +0.000 C 
ENDROOT
BRANCH   2   3
ATOM      3  C   UNL     1      36.222  -1.221  16.325  0.00  0.00    +0.000 A 
ATOM      4  C   UNL     1      36.856  -1.279  17.570  0.00  0.00    +0.000 A 
ATOM      5  C   UNL     1      36.603  -0.367  18.564  0.00  0.00    +0.000 A 
ATOM      6  C   UNL     1      35.705   0.658  18.387  0.00  0.00    +0.000 A 
ATOM      7  C   UNL     1      35.072   0.713  17.140  0.00  0.00    +0.000 A 
ATOM      8  C   UNL     1      35.339  -0.214  16.149  0.00  0.00    +0.000 A 
ENDBRANCH   2   3
BRANCH   2   9
ATOM      9  C   UNL     1      35.956  -3.588  15.464  0.00  0.00    +0.000 A 
ATOM     10  C   UNL     1      36.559  -4.590  16.167  0.00  0.00    +0.000 A 
ATOM     11  C   UNL     1      36.017  -5.853  16.288  0.00  0.00    +0.000 A 
ATOM     12  C   UNL     1      34.826  -6.155  15.693  0.00  0.00    +0.000 A 
ATOM     13  C   UNL     1      34.181  -5.148  14.964  0.00  0.00    +0.000 A 
ATOM     14  C   UNL     1      34.757  -3.877  14.860  0.00  0.00    +0.000 A 
BRANCH  12  15
ATOM     15  O   UNL     1      34.250  -7.428  15.798  0.00  0.00    +0.000 OA
BRANCH  15  16
ATOM     16  C   UNL     1      34.529  -8.183  16.953  0.00  0.00    +0.000 C 
BRANCH  16  17
ATOM     17  C   UNL     1      35.100  -9.525  16.475  0.00  0.00    +0.000 C 
BRANCH  17  18
ATOM     18  N   UNL     1      36.066  -9.935  17.511  0.00  0.00    +0.000 NA
ATOM     19  C   UNL     1      36.298  -8.878  18.472  0.00  0.00    +0.000 C 
ATOM     20  C   UNL     1      37.309 -10.286  16.806  0.00  0.00    +0.000 C 
ENDBRANCH  17  18
ENDBRANCH  16  17
ENDBRANCH  15  16
ENDBRANCH  12  15
ENDBRANCH   2   9
BRANCH   1  21
ATOM     21  C   UNL     1      38.041  -0.768  14.188  0.00  0.00    +0.000 A 
ATOM     22  C   UNL     1      39.218  -0.441  14.849  0.00  0.00    +0.000 A 
ATOM     23  C   UNL     1      39.839   0.761  14.723  0.00  0.00    +0.000 A 
ATOM     24  C   UNL     1      39.308   1.751  13.897  0.00  0.00    +0.000 A 
ATOM     25  C   UNL     1      38.146   1.446  13.235  0.00  0.00    +0.000 A 
ATOM     26  C   UNL     1      37.519   0.215  13.372  0.00  0.00    +0.000 A 
ENDBRANCH   1  21
BRANCH   1  28
ATOM     27  C   UNL     1      39.037  -2.930  12.865  0.00  0.00    +0.000 C 
ATOM     28  C   UNL     1      37.627  -3.175  13.369  0.00  0.00    +0.000 C 
ENDBRANCH   1  28
TORSDOF 8
ENDMDL
