MODEL 1
REMARK VINA RESULT:      -6.3      0.000      0.000
REMARK  Name = 
REMARK  2 active torsions:
REMARK  status: ('A' for Active; 'I' for Inactive)
REMARK    1  A    between atoms: N_2  and  C_4
REMARK    2  A    between atoms: C_7  and  C_8
REMARK                            x       y       z     vdW  Elec       q    Type
REMARK                         _______ _______ _______ _____ _____    ______ ____
ROOT
ATOM      1  C   UNL     1      19.297   9.457  38.020  0.00  0.00    +0.000 A 
ATOM      2  N   UNL     1      18.763   8.848  39.111  0.00  0.00    +0.000 NA
ATOM      3  C   UNL     1      19.520   8.444  40.151  0.00  0.00    +0.000 A 
ATOM      4  N   UNL     1      18.889   7.815  41.253  0.00  0.00    +0.000 NA
ATOM      5  N   UNL     1      20.863   8.626  40.165  0.00  0.00    +0.000 NA
ATOM      6  C   UNL     1      21.401   9.228  39.091  0.00  0.00    +0.000 A 
ATOM      7  C   UNL     1      20.651   9.650  38.017  0.00  0.00    +0.000 A 
ATOM      8  C   UNL     1      21.298  10.308  36.856  0.00  0.00    +0.000 C 
ATOM      9  C   UNL     1      22.512   9.470  36.517  0.00  0.00    +0.000 C 
ATOM     10  C   UNL     1      23.428   9.242  37.667  0.00  0.00    +0.000 C 
ATOM     11  C   UNL     1      22.863   9.468  39.022  0.00  0.00    +0.000 C 
ENDROOT
BRANCH   1  15
ATOM     12  C   UNL     1      16.924  10.750  34.707  0.00  0.00    +0.000 A 
ATOM     13  C   UNL     1      17.028  11.507  35.856  0.00  0.00    +0.000 A 
ATOM     14  C   UNL     1      17.792  11.096  36.928  0.00  0.00    +0.000 A 
ATOM     15  C   UNL     1      18.489   9.897  36.892  0.00  0.00    +0.000 A 
ATOM     16  C   UNL     1      18.378   9.150  35.740  0.00  0.00    +0.000 A 
ATOM     17  C   UNL     1      17.615   9.557  34.666  0.00  0.00    +0.000 A 
BRANCH  12  19
ATOM     18  C   UNL     1      15.100  12.183  33.841  0.00  0.00    +0.000 C 
ATOM     19  N   UNL     1      16.125  11.190  33.599  0.00  0.00    +0.000 N 
ATOM     20  C   UNL     1      16.307  10.679  32.256  0.00  0.00    +0.000 C 
ENDBRANCH  12  19
ENDBRANCH   1  15
TORSDOF 2
ENDMDL
MODEL 2
REMARK VINA RESULT:      -6.3      2.935      5.926
REMARK  Name = 
REMARK  2 active torsions:
REMARK  status: ('A' for Active; 'I' for Inactive)
REMARK    1  A    between atoms: N_2  and  C_4
REMARK    2  A    between atoms: C_7  and  C_8
REMARK                            x       y       z     vdW  Elec       q    Type
REMARK                         _______ _______ _______ _____ _____    ______ ____
ROOT
ATOM      1  C   UNL     1      18.146  10.722  38.043  0.00  0.00    +0.000 A 
ATOM      2  N   UNL     1      17.213  11.274  37.224  0.00  0.00    +0.000 NA
ATOM      3  C   UNL     1      15.895  11.237  37.507  0.00  0.00    +0.000 A 
ATOM      4  N   UNL     1      14.984  11.835  36.601  0.00  0.00    +0.000 NA
ATOM      5  N   UNL     1      15.427  10.642  38.631  0.00  0.00    +0.000 NA
ATOM      6  C   UNL     1      16.341  10.094  39.449  0.00  0.00    +0.000 A 
ATOM      7  C   UNL     1      17.691  10.119  39.184  0.00  0.00    +0.000 A 
ATOM      8  C   UNL     1      18.656   9.496  40.122  0.00  0.00    +0.000 C 
ATOM      9  C   UNL     1      18.085   8.141  40.478  0.00  0.00    +0.000 C 
ATOM     10  C   UNL     1      16.691   8.190  40.995  0.00  0.00    +0.000 C 
ATOM     11  C   UNL     1      15.917   9.424  40.703  0.00  0.00    +0.000 C 
ENDROOT
BRANCH   1  15
ATOM     12  C   UNL     1      22.330  10.824  37.175  0.00  0.00    +0.000 A 
ATOM     13  C   UNL     1      21.512   9.843  36.655  0.00  0.00    +0.000 A 
ATOM     14  C   UNL     1      20.161   9.804  36.931  0.00  0.00    +0.000 A 
ATOM     15  C   UNL     1      19.570  10.757  37.748  0.00  0.00    +0.000 A 
ATOM     16  C   UNL     1      20.398  11.733  38.261  0.00  0.00    +0.000 A 
ATOM     17  C   UNL     1      21.748  11.775  37.988  0.00  0.00    +0.000 A 
BRANCH  12  19
ATOM     18  C   UNL     1      24.529  11.938  37.411  0.00  0.00    +0.000 C 
ATOM     19  N   UNL     1      23.735  10.852  36.879  0.00  0.00    +0.000 N 
ATOM     20  C   UNL     1      24.380   9.837  36.072  0.00  0.00    +0.000 C 
ENDBRANCH  12  19
ENDBRANCH   1  15
TORSDOF 2
ENDMDL
MODEL 3
REMARK VINA RESULT:      -6.2     19.402     21.615
REMARK  Name = 
REMARK  2 active torsions:
REMARK  status: ('A' for Active; 'I' for Inactive)
REMARK    1  A    between atoms: N_2  and  C_4
REMARK    2  A    between atoms: C_7  and  C_8
REMARK                            x       y       z     vdW  Elec       q    Type
REMARK                         _______ _______ _______ _____ _____    ______ ____
ROOT
ATOM      1  C   UNL     1      28.063  23.490  24.291  0.00  0.00    +0.000 A 
ATOM      2  N   UNL     1      26.861  22.948  23.963  0.00  0.00    +0.000 NA
ATOM      3  C   UNL     1      26.266  23.182  22.776  0.00  0.00    +0.000 A 
ATOM      4  N   UNL     1      25.011  22.580  22.509  0.00  0.00    +0.000 NA
ATOM      5  N   UNL     1      26.840  23.976  21.839  0.00  0.00    +0.000 NA
ATOM      6  C   UNL     1      28.029  24.516  22.152  0.00  0.00    +0.000 A 
ATOM      7  C   UNL     1      28.657  24.293  23.356  0.00  0.00    +0.000 A 
ATOM      8  C   UNL     1      29.970  24.917  23.650  0.00  0.00    +0.000 C 
ATOM      9  C   UNL     1      29.851  26.367  23.233  0.00  0.00    +0.000 C 
ATOM     10  C   UNL     1      29.396  26.557  21.830  0.00  0.00    +0.000 C 
ATOM     11  C   UNL     1      28.729  25.397  21.185  0.00  0.00    +0.000 C 
ENDROOT
BRANCH   1  15
ATOM     12  C   UNL     1      29.974  22.767  28.045  0.00  0.00    +0.000 A 
ATOM     13  C   UNL     1      28.945  23.678  27.926  0.00  0.00    +0.000 A 
ATOM     14  C   UNL     1      28.324  23.916  26.718  0.00  0.00    +0.000 A 
ATOM     15  C   UNL     1      28.714  23.244  25.569  0.00  0.00    +0.000 A 
ATOM     16  C   UNL     1      29.743  22.336  25.700  0.00  0.00    +0.000 A 
ATOM     17  C   UNL     1      30.366  22.096  26.907  0.00  0.00    +0.000 A 
BRANCH  12  19
ATOM     18  C   UNL     1      31.965  22.017  29.314  0.00  0.00    +0.000 C 
ATOM     19  N   UNL     1      30.611  22.530  29.310  0.00  0.00    +0.000 N 
ATOM     20  C   UNL     1      29.951  22.785  30.574  0.00  0.00    +0.000 C 
ENDBRANCH  12  19
ENDBRANCH   1  15
TORSDOF 2
ENDMDL
MODEL 4
REMARK VINA RESULT:      -6.0     20.255     21.583
REMARK  Name = 
REMARK  2 active torsions:
REMARK  status: ('A' for Active; 'I' for Inactive)
REMARK    1  A    between atoms: N_2  and  C_4
REMARK    2  A    between atoms: C_7  and  C_8
REMARK                            x       y       z     vdW  Elec       q    Type
REMARK                         _______ _______ _______ _____ _____    ______ ____
ROOT
ATOM      1  C   UNL     1      18.778  -7.892  27.116  0.00  0.00    +0.000 A 
ATOM      2  N   UNL     1      18.395  -6.588  27.117  0.00  0.00    +0.000 NA
ATOM      3  C   UNL     1      19.012  -5.657  26.360  0.00  0.00    +0.000 A 
ATOM      4  N   UNL     1      18.555  -4.317  26.417  0.00  0.00    +0.000 NA
ATOM      5  N   UNL     1      20.054  -5.975  25.553  0.00  0.00    +0.000 NA
ATOM      6  C   UNL     1      20.440  -7.261  25.545  0.00  0.00    +0.000 A 
ATOM      7  C   UNL     1      19.827  -8.230  26.307  0.00  0.00    +0.000 A 
ATOM      8  C   UNL     1      20.295  -9.637  26.259  0.00  0.00    +0.000 C 
ATOM      9  C   UNL     1      21.805  -9.583  26.360  0.00  0.00    +0.000 C 
ATOM     10  C   UNL     1      22.446  -8.701  25.348  0.00  0.00    +0.000 C 
ATOM     11  C   UNL     1      21.570  -7.698  24.689  0.00  0.00    +0.000 C 
ENDROOT
BRANCH   1  15
ATOM     12  C   UNL     1      16.843 -10.865  29.502  0.00  0.00    +0.000 A 
ATOM     13  C   UNL     1      17.911 -10.137  29.986  0.00  0.00    +0.000 A 
ATOM     14  C   UNL     1      18.539  -9.176  29.222  0.00  0.00    +0.000 A 
ATOM     15  C   UNL     1      18.119  -8.904  27.928  0.00  0.00    +0.000 A 
ATOM     16  C   UNL     1      17.052  -9.636  27.455  0.00  0.00    +0.000 A 
ATOM     17  C   UNL     1      16.421 -10.598  28.217  0.00  0.00    +0.000 A 
BRANCH  12  19
ATOM     18  C   UNL     1      14.806 -11.673  30.655  0.00  0.00    +0.000 C 
ATOM     19  N   UNL     1      16.199 -11.862  30.309  0.00  0.00    +0.000 N 
ATOM     20  C   UNL     1      16.889 -13.042  30.786  0.00  0.00    +0.000 C 
ENDBRANCH  12  19
ENDBRANCH   1  15
TORSDOF 2
ENDMDL
MODEL 5
REMARK VINA RESULT:      -5.9     19.545     21.923
REMARK  Name = 
REMARK  2 active torsions:
REMARK  status: ('A' for Active; 'I' for Inactive)
REMARK    1  A    between atoms: N_2  and  C_4
REMARK    2  A    between atoms: C_7  and  C_8
REMARK                            x       y       z     vdW  Elec       q    Type
REMARK                         _______ _______ _______ _____ _____    ______ ____
ROOT
ATOM      1  C   UNL     1      29.474  23.857  24.395  0.00  0.00    +0.000 A 
ATOM      2  N   UNL     1      29.959  24.036  23.139  0.00  0.00    +0.000 NA
ATOM      3  C   UNL     1      29.152  24.267  22.082  0.00  0.00    +0.000 A 
ATOM      4  N   UNL     1      29.735  24.442  20.802  0.00  0.00    +0.000 NA
ATOM      5  N   UNL     1      27.806  24.334  22.219  0.00  0.00    +0.000 NA
ATOM      6  C   UNL     1      27.316  24.160  23.457  0.00  0.00    +0.000 A 
ATOM      7  C   UNL     1      28.117  23.923  24.552  0.00  0.00    +0.000 A 
ATOM      8  C   UNL     1      27.522  23.736  25.897  0.00  0.00    +0.000 C 
ATOM      9  C   UNL     1      26.362  22.781  25.717  0.00  0.00    +0.000 C 
ATOM     10  C   UNL     1      25.383  23.208  24.681  0.00  0.00    +0.000 C 
ATOM     11  C   UNL     1      25.853  24.219  23.699  0.00  0.00    +0.000 C 
ENDROOT
BRANCH   1  15
ATOM     12  C   UNL     1      32.004  23.123  27.761  0.00  0.00    +0.000 A 
ATOM     13  C   UNL     1      32.078  24.303  27.050  0.00  0.00    +0.000 A 
ATOM     14  C   UNL     1      31.265  24.546  25.964  0.00  0.00    +0.000 A 
ATOM     15  C   UNL     1      30.335  23.607  25.541  0.00  0.00    +0.000 A 
ATOM     16  C   UNL     1      30.270  22.433  26.259  0.00  0.00    +0.000 A 
ATOM     17  C   UNL     1      31.082  22.186  27.346  0.00  0.00    +0.000 A 
BRANCH  12  19
ATOM     18  C   UNL     1      32.912  21.547  29.442  0.00  0.00    +0.000 C 
ATOM     19  N   UNL     1      32.857  22.884  28.891  0.00  0.00    +0.000 N 
ATOM     20  C   UNL     1      33.661  23.928  29.494  0.00  0.00    +0.000 C 
ENDBRANCH  12  19
ENDBRANCH   1  15
TORSDOF 2
ENDMDL
MODEL 6
REMARK VINA RESULT:      -5.9     18.161     19.384
REMARK  Name = 
REMARK  2 active torsions:
REMARK  status: ('A' for Active; 'I' for Inactive)
REMARK    1  A    between atoms: N_2  and  C_4
REMARK    2  A    between atoms: C_7  and  C_8
REMARK                            x       y       z     vdW  Elec       q    Type
REMARK                         _______ _______ _______ _____ _____    ______ ____
ROOT
ATOM      1  C   UNL     1      28.336  23.052  28.107  0.00  0.00    +0.000 A 
ATOM      2  N   UNL     1      27.201  22.710  28.771  0.00  0.00    +0.000 NA
ATOM      3  C   UNL     1      27.216  22.312  30.060  0.00  0.00    +0.000 A 
ATOM      4  N   UNL     1      25.990  21.971  30.684  0.00  0.00    +0.000 NA
ATOM      5  N   UNL     1      28.370  22.232  30.766  0.00  0.00    +0.000 NA
ATOM      6  C   UNL     1      29.497  22.568  30.118  0.00  0.00    +0.000 A 
ATOM      7  C   UNL     1      29.510  22.978  28.803  0.00  0.00    +0.000 A 
ATOM      8  C   UNL     1      30.785  23.337  28.137  0.00  0.00    +0.000 C 
ATOM      9  C   UNL     1      31.769  22.243  28.490  0.00  0.00    +0.000 C 
ATOM     10  C   UNL     1      31.903  21.999  29.951  0.00  0.00    +0.000 C 
ATOM     11  C   UNL     1      30.806  22.511  30.813  0.00  0.00    +0.000 C 
ENDROOT
BRANCH   1  15
ATOM     12  C   UNL     1      28.323  24.318  24.024  0.00  0.00    +0.000 A 
ATOM     13  C   UNL     1      27.992  25.184  25.046  0.00  0.00    +0.000 A 
ATOM     14  C   UNL     1      27.994  24.782  26.365  0.00  0.00    +0.000 A 
ATOM     15  C   UNL     1      28.331  23.483  26.716  0.00  0.00    +0.000 A 
ATOM     16  C   UNL     1      28.660  22.628  25.687  0.00  0.00    +0.000 A 
ATOM     17  C   UNL     1      28.659  23.026  24.367  0.00  0.00    +0.000 A 
BRANCH  12  19
ATOM     18  C   UNL     1      27.210  24.351  21.812  0.00  0.00    +0.000 C 
ATOM     19  N   UNL     1      28.316  24.751  22.655  0.00  0.00    +0.000 N 
ATOM     20  C   UNL     1      29.371  25.568  22.092  0.00  0.00    +0.000 C 
ENDBRANCH  12  19
ENDBRANCH   1  15
TORSDOF 2
ENDMDL
MODEL 7
REMARK VINA RESULT:      -5.8     19.957     22.005
REMARK  Name = 
REMARK  2 active torsions:
REMARK  status: ('A' for Active; 'I' for Inactive)
REMARK    1  A    between atoms: N_2  and  C_4
REMARK    2  A    between atoms: C_7  and  C_8
REMARK                            x       y       z     vdW  Elec       q    Type
REMARK                         _______ _______ _______ _____ _____    ______ ____
ROOT
ATOM      1  C   UNL     1      28.377  24.006  24.789  0.00  0.00    +0.000 A 
ATOM      2  N   UNL     1      27.698  23.632  23.674  0.00  0.00    +0.000 NA
ATOM      3  C   UNL     1      26.380  23.346  23.695  0.00  0.00    +0.000 A 
ATOM      4  N   UNL     1      25.744  22.962  22.489  0.00  0.00    +0.000 NA
ATOM      5  N   UNL     1      25.657  23.418  24.839  0.00  0.00    +0.000 NA
ATOM      6  C   UNL     1      26.318  23.788  25.948  0.00  0.00    +0.000 A 
ATOM      7  C   UNL     1      27.662  24.086  25.953  0.00  0.00    +0.000 A 
ATOM      8  C   UNL     1      28.342  24.488  27.208  0.00  0.00    +0.000 C 
ATOM      9  C   UNL     1      27.886  23.510  28.269  0.00  0.00    +0.000 C 
ATOM     10  C   UNL     1      26.407  23.402  28.394  0.00  0.00    +0.000 C 
ATOM     11  C   UNL     1      25.605  23.895  27.245  0.00  0.00    +0.000 C 
ENDROOT
BRANCH   1  15
ATOM     12  C   UNL     1      32.553  24.918  24.753  0.00  0.00    +0.000 A 
ATOM     13  C   UNL     1      32.101  23.615  24.707  0.00  0.00    +0.000 A 
ATOM     14  C   UNL     1      30.755  23.314  24.718  0.00  0.00    +0.000 A 
ATOM     15  C   UNL     1      29.799  24.317  24.777  0.00  0.00    +0.000 A 
ATOM     16  C   UNL     1      30.262  25.614  24.822  0.00  0.00    +0.000 A 
ATOM     17  C   UNL     1      31.607  25.919  24.811  0.00  0.00    +0.000 A 
BRANCH  12  19
ATOM     18  C   UNL     1      34.885  24.151  24.425  0.00  0.00    +0.000 C 
ATOM     19  N   UNL     1      33.957  25.216  24.741  0.00  0.00    +0.000 N 
ATOM     20  C   UNL     1      34.475  26.537  25.032  0.00  0.00    +0.000 C 
ENDBRANCH  12  19
ENDBRANCH   1  15
TORSDOF 2
ENDMDL
MODEL 8
REMARK VINA RESULT:      -5.7     16.491     18.667
REMARK  Name = 
REMARK  2 active torsions:
REMARK  status: ('A' for Active; 'I' for Inactive)
REMARK    1  A    between atoms: N_2  and  C_4
REMARK    2  A    between atoms: C_7  and  C_8
REMARK                            x       y       z     vdW  Elec       q    Type
REMARK                         _______ _______ _______ _____ _____    ______ ____
ROOT
ATOM      1  C   UNL     1      33.730  -0.015  35.806  0.00  0.00    +0.000 A 
ATOM      2  N   UNL     1      34.142   0.415  37.027  0.00  0.00    +0.000 NA
ATOM      3  C   UNL     1      34.346   1.721  37.298  0.00  0.00    +0.000 A 
ATOM      4  N   UNL     1      34.777   2.090  38.597  0.00  0.00    +0.000 NA
ATOM      5  N   UNL     1      34.148   2.680  36.361  0.00  0.00    +0.000 NA
ATOM      6  C   UNL     1      33.740   2.265  35.150  0.00  0.00    +0.000 A 
ATOM      7  C   UNL     1      33.525   0.939  34.848  0.00  0.00    +0.000 A 
ATOM      8  C   UNL     1      33.075   0.537  33.493  0.00  0.00    +0.000 C 
ATOM      9  C   UNL     1      33.946   1.298  32.516  0.00  0.00    +0.000 C 
ATOM     10  C   UNL     1      33.955   2.769  32.734  0.00  0.00    +0.000 C 
ATOM     11  C   UNL     1      33.498   3.247  34.065  0.00  0.00    +0.000 C 
ENDROOT
BRANCH   1  15
ATOM     12  C   UNL     1      33.076  -4.145  34.915  0.00  0.00    +0.000 A 
ATOM     13  C   UNL     1      32.024  -3.287  35.165  0.00  0.00    +0.000 A 
ATOM     14  C   UNL     1      32.229  -1.955  35.452  0.00  0.00    +0.000 A 
ATOM     15  C   UNL     1      33.508  -1.421  35.502  0.00  0.00    +0.000 A 
ATOM     16  C   UNL     1      34.551  -2.286  35.250  0.00  0.00    +0.000 A 
ATOM     17  C   UNL     1      34.351  -3.620  34.962  0.00  0.00    +0.000 A 
BRANCH  12  19
ATOM     18  C   UNL     1      31.774  -5.872  33.709  0.00  0.00    +0.000 C 
ATOM     19  N   UNL     1      32.849  -5.530  34.616  0.00  0.00    +0.000 N 
ATOM     20  C   UNL     1      33.651  -6.591  35.189  0.00  0.00    +0.000 C 
ENDBRANCH  12  19
ENDBRANCH   1  15
TORSDOF 2
ENDMDL
MODEL 9
REMARK VINA RESULT:      -5.6     21.725     23.351
REMARK  Name = 
REMARK  2 active torsions:
REMARK  status: ('A' for Active; 'I' for Inactive)
REMARK    1  A    between atoms: N_2  and  C_4
REMARK    2  A    between atoms: C_7  and  C_8
REMARK                            x       y       z     vdW  Elec       q    Type
REMARK                         _______ _______ _______ _____ _____    ______ ____
ROOT
ATOM      1  C   UNL     1      28.382  24.679  23.444  0.00  0.00    +0.000 A 
ATOM      2  N   UNL     1      27.118  24.200  23.576  0.00  0.00    +0.000 NA
ATOM      3  C   UNL     1      26.768  23.355  24.567  0.00  0.00    +0.000 A 
ATOM      4  N   UNL     1      25.428  22.899  24.637  0.00  0.00    +0.000 NA
ATOM      5  N   UNL     1      27.666  22.935  25.492  0.00  0.00    +0.000 NA
ATOM      6  C   UNL     1      28.919  23.403  25.371  0.00  0.00    +0.000 A 
ATOM      7  C   UNL     1      29.301  24.267  24.369  0.00  0.00    +0.000 A 
ATOM      8  C   UNL     1      30.700  24.751  24.282  0.00  0.00    +0.000 C 
ATOM      9  C   UNL     1      31.582  23.535  24.468  0.00  0.00    +0.000 C 
ATOM     10  C   UNL     1      31.289  22.761  25.704  0.00  0.00    +0.000 C 
ATOM     11  C   UNL     1      29.967  22.997  26.340  0.00  0.00    +0.000 C 
ENDROOT
BRANCH   1  15
ATOM     12  C   UNL     1      29.520  27.359  20.314  0.00  0.00    +0.000 A 
ATOM     13  C   UNL     1      29.064  27.826  21.530  0.00  0.00    +0.000 A 
ATOM     14  C   UNL     1      28.696  26.967  22.544  0.00  0.00    +0.000 A 
ATOM     15  C   UNL     1      28.769  25.591  22.378  0.00  0.00    +0.000 A 
ATOM     16  C   UNL     1      29.226  25.137  21.160  0.00  0.00    +0.000 A 
ATOM     17  C   UNL     1      29.595  25.993  20.144  0.00  0.00    +0.000 A 
BRANCH  12  19
ATOM     18  C   UNL     1      29.061  29.418  19.017  0.00  0.00    +0.000 C 
ATOM     19  N   UNL     1      29.900  28.266  19.268  0.00  0.00    +0.000 N 
ATOM     20  C   UNL     1      31.085  28.068  18.459  0.00  0.00    +0.000 C 
ENDBRANCH  12  19
ENDBRANCH   1  15
TORSDOF 2
ENDMDL
MODEL 10
REMARK VINA RESULT:      -5.6     21.072     23.147
REMARK  Name = 
REMARK  2 active torsions:
REMARK  status: ('A' for Active; 'I' for Inactive)
REMARK    1  A    between atoms: N_2  and  C_4
REMARK    2  A    between atoms: C_7  and  C_8
REMARK                            x       y       z     vdW  Elec       q    Type
REMARK                         _______ _______ _______ _____ _____    ______ ____
ROOT
ATOM      1  C   UNL     1      30.423  24.054  24.417  0.00  0.00    +0.000 A 
ATOM      2  N   UNL     1      29.864  23.976  23.182  0.00  0.00    +0.000 NA
ATOM      3  C   UNL     1      28.624  23.483  22.984  0.00  0.00    +0.000 A 
ATOM      4  N   UNL     1      28.110  23.433  21.664  0.00  0.00    +0.000 NA
ATOM      5  N   UNL     1      27.865  23.037  24.014  0.00  0.00    +0.000 NA
ATOM      6  C   UNL     1      28.408  23.111  25.240  0.00  0.00    +0.000 A 
ATOM      7  C   UNL     1      29.671  23.610  25.469  0.00  0.00    +0.000 A 
ATOM      8  C   UNL     1      30.222  23.667  26.844  0.00  0.00    +0.000 C 
ATOM      9  C   UNL     1      29.927  22.323  27.475  0.00  0.00    +0.000 C 
ATOM     10  C   UNL     1      28.492  21.932  27.418  0.00  0.00    +0.000 C 
ATOM     11  C   UNL     1      27.647  22.646  26.426  0.00  0.00    +0.000 C 
ENDROOT
BRANCH   1  15
ATOM     12  C   UNL     1      34.350  25.611  25.076  0.00  0.00    +0.000 A 
ATOM     13  C   UNL     1      34.150  24.299  24.699  0.00  0.00    +0.000 A 
ATOM     14  C   UNL     1      32.887  23.790  24.485  0.00  0.00    +0.000 A 
ATOM     15  C   UNL     1      31.760  24.585  24.641  0.00  0.00    +0.000 A 
ATOM     16  C   UNL     1      31.971  25.893  25.017  0.00  0.00    +0.000 A 
ATOM     17  C   UNL     1      33.234  26.405  25.232  0.00  0.00    +0.000 A 
BRANCH  12  19
ATOM     18  C   UNL     1      36.661  25.254  25.891  0.00  0.00    +0.000 C 
ATOM     19  N   UNL     1      35.672  26.126  25.295  0.00  0.00    +0.000 N 
ATOM     20  C   UNL     1      36.047  27.480  24.944  0.00  0.00    +0.000 C 
ENDBRANCH  12  19
ENDBRANCH   1  15
TORSDOF 2
ENDMDL
