MODEL 1
REMARK VINA RESULT:      -5.6      0.000      0.000
REMARK  Name = 
REMARK  4 active torsions:
REMARK  status: ('A' for Active; 'I' for Inactive)
REMARK    1  A    between atoms: C_2  and  C_3
REMARK    2  A    between atoms: C_3  and  C_4
REMARK    3  A    between atoms: C_4  and  C_5
REMARK    4  A    between atoms: S_9  and  C_10
REMARK                            x       y       z     vdW  Elec       q    Type
REMARK                         _______ _______ _______ _____ _____    ______ ____
ROOT
ATOM      1  C   UNL     1      23.585  -8.379  24.508  0.00  0.00    +0.000 C 
ATOM      2  C   UNL     1      22.853  -9.641  23.775  0.00  0.00    +0.000 C 
ATOM      3  C   UNL     1      21.705  -9.200  22.993  0.00  0.00    +0.000 C 
ATOM      4  C   UNL     1      20.478  -9.369  23.916  0.00  0.00    +0.000 C 
ATOM      5  S   UNL     1      21.112  -8.588  25.425  0.00  0.00    +0.000 S 
ATOM      6  C   UNL     1      22.262  -7.429  24.696  0.00  0.00    +0.000 C 
ENDROOT
BRANCH   5   7
ATOM      7  C   UNL     1      19.774  -7.727  26.160  0.00  0.00    +0.000 A 
ATOM      8  C   UNL     1      19.676  -6.371  25.948  0.00  0.00    +0.000 A 
ATOM      9  C   UNL     1      18.623  -5.683  26.525  0.00  0.00    +0.000 A 
ATOM     10  O   UNL     1      18.516  -4.321  26.318  0.00  0.00    +0.000 OA
ATOM     11  C   UNL     1      17.694  -6.334  27.290  0.00  0.00    +0.000 A 
ATOM     12  C   UNL     1      17.808  -7.700  27.494  0.00  0.00    +0.000 A 
ATOM     13  C   UNL     1      18.867  -8.399  26.915  0.00  0.00    +0.000 A 
ATOM     14  O   UNL     1      19.028  -9.762  27.085  0.00  0.00    +0.000 OA
ENDBRANCH   5   7
BRANCH   1  15
ATOM     15  C   UNL     1      23.998  -7.670  23.071  0.00  0.00    +0.000 C 
BRANCH  15  16
ATOM     16  C   UNL     1      25.274  -6.955  23.472  0.00  0.00    +0.000 C 
BRANCH  16  18
ATOM     17  C   UNL     1      25.955  -8.741  21.966  0.00  0.00    +0.000 C 
ATOM     18  C   UNL     1      26.501  -7.690  22.940  0.00  0.00    +0.000 C 
ENDBRANCH  16  18
ENDBRANCH  15  16
ENDBRANCH   1  15
TORSDOF 4
ENDMDL
MODEL 2
REMARK VINA RESULT:      -5.5     31.656     32.565
REMARK  Name = 
REMARK  4 active torsions:
REMARK  status: ('A' for Active; 'I' for Inactive)
REMARK    1  A    between atoms: C_2  and  C_3
REMARK    2  A    between atoms: C_3  and  C_4
REMARK    3  A    between atoms: C_4  and  C_5
REMARK    4  A    between atoms: S_9  and  C_10
REMARK                            x       y       z     vdW  Elec       q    Type
REMARK                         _______ _______ _______ _____ _____    ______ ____
ROOT
ATOM      1  C   UNL     1      29.376  23.023  28.238  0.00  0.00    +0.000 C 
ATOM      2  C   UNL     1      30.749  22.307  27.724  0.00  0.00    +0.000 C 
ATOM      3  C   UNL     1      31.475  23.166  26.798  0.00  0.00    +0.000 C 
ATOM      4  C   UNL     1      31.034  22.727  25.384  0.00  0.00    +0.000 C 
ATOM      5  S   UNL     1      29.237  22.678  25.618  0.00  0.00    +0.000 S 
ATOM      6  C   UNL     1      29.074  23.917  26.897  0.00  0.00    +0.000 C 
ENDROOT
BRANCH   5   7
ATOM      7  C   UNL     1      28.508  23.249  24.130  0.00  0.00    +0.000 A 
ATOM      8  C   UNL     1      29.337  23.667  23.115  0.00  0.00    +0.000 A 
ATOM      9  C   UNL     1      28.771  24.120  21.937  0.00  0.00    +0.000 A 
ATOM     10  O   UNL     1      29.597  24.541  20.912  0.00  0.00    +0.000 OA
ATOM     11  C   UNL     1      27.412  24.153  21.780  0.00  0.00    +0.000 A 
ATOM     12  C   UNL     1      26.590  23.730  22.812  0.00  0.00    +0.000 A 
ATOM     13  C   UNL     1      27.156  23.271  24.002  0.00  0.00    +0.000 A 
ATOM     14  O   UNL     1      26.383  22.837  25.063  0.00  0.00    +0.000 OA
ENDBRANCH   5   7
BRANCH   1  15
ATOM     15  C   UNL     1      30.193  24.256  28.982  0.00  0.00    +0.000 C 
BRANCH  15  16
ATOM     16  C   UNL     1      30.725  23.536  30.206  0.00  0.00    +0.000 C 
BRANCH  16  18
ATOM     17  C   UNL     1      30.044  22.000  31.967  0.00  0.00    +0.000 C 
ATOM     18  C   UNL     1      29.603  23.253  31.201  0.00  0.00    +0.000 C 
ENDBRANCH  16  18
ENDBRANCH  15  16
ENDBRANCH   1  15
TORSDOF 4
ENDMDL
MODEL 3
REMARK VINA RESULT:      -5.3     31.876     33.576
REMARK  Name = 
REMARK  4 active torsions:
REMARK  status: ('A' for Active; 'I' for Inactive)
REMARK    1  A    between atoms: C_2  and  C_3
REMARK    2  A    between atoms: C_3  and  C_4
REMARK    3  A    between atoms: C_4  and  C_5
REMARK    4  A    between atoms: S_9  and  C_10
REMARK                            x       y       z     vdW  Elec       q    Type
REMARK                         _______ _______ _______ _____ _____    ______ ____
ROOT
ATOM      1  C   UNL     1      27.607  24.055  26.867  0.00  0.00    +0.000 C 
ATOM      2  C   UNL     1      26.084  23.629  26.459  0.00  0.00    +0.000 C 
ATOM      3  C   UNL     1      26.066  22.875  25.213  0.00  0.00    +0.000 C 
ATOM      4  C   UNL     1      25.788  23.909  24.099  0.00  0.00    +0.000 C 
ATOM      5  S   UNL     1      26.985  25.192  24.560  0.00  0.00    +0.000 S 
ATOM      6  C   UNL     1      28.221  24.170  25.351  0.00  0.00    +0.000 C 
ENDROOT
BRANCH   5   7
ATOM      7  C   UNL     1      27.621  25.861  23.070  0.00  0.00    +0.000 A 
ATOM      8  C   UNL     1      28.469  25.085  22.315  0.00  0.00    +0.000 A 
ATOM      9  C   UNL     1      28.977  25.605  21.137  0.00  0.00    +0.000 A 
ATOM     10  O   UNL     1      29.829  24.832  20.374  0.00  0.00    +0.000 OA
ATOM     11  C   UNL     1      28.642  26.866  20.727  0.00  0.00    +0.000 A 
ATOM     12  C   UNL     1      27.786  27.636  21.498  0.00  0.00    +0.000 A 
ATOM     13  C   UNL     1      27.271  27.117  22.687  0.00  0.00    +0.000 A 
ATOM     14  O   UNL     1      26.414  27.841  23.494  0.00  0.00    +0.000 OA
ENDBRANCH   5   7
BRANCH   1  15
ATOM     15  C   UNL     1      28.095  22.482  27.038  0.00  0.00    +0.000 C 
BRANCH  15  16
ATOM     16  C   UNL     1      29.402  22.513  26.269  0.00  0.00    +0.000 C 
BRANCH  16  18
ATOM     17  C   UNL     1      31.098  22.942  27.960  0.00  0.00    +0.000 C 
ATOM     18  C   UNL     1      30.518  21.842  27.064  0.00  0.00    +0.000 C 
ENDBRANCH  16  18
ENDBRANCH  15  16
ENDBRANCH   1  15
TORSDOF 4
ENDMDL
MODEL 4
REMARK VINA RESULT:      -5.2      4.667      6.646
REMARK  Name = 
REMARK  4 active torsions:
REMARK  status: ('A' for Active; 'I' for Inactive)
REMARK    1  A    between atoms: C_2  and  C_3
REMARK    2  A    between atoms: C_3  and  C_4
REMARK    3  A    between atoms: C_4  and  C_5
REMARK    4  A    between atoms: S_9  and  C_10
REMARK                            x       y       z     vdW  Elec       q    Type
REMARK                         _______ _______ _______ _____ _____    ______ ____
ROOT
ATOM      1  C   UNL     1      17.306  -8.331  27.363  0.00  0.00    +0.000 C 
ATOM      2  C   UNL     1      17.896  -9.662  26.625  0.00  0.00    +0.000 C 
ATOM      3  C   UNL     1      18.060  -9.441  25.194  0.00  0.00    +0.000 C 
ATOM      4  C   UNL     1      16.769  -9.975  24.536  0.00  0.00    +0.000 C 
ATOM      5  S   UNL     1      15.527  -9.199  25.607  0.00  0.00    +0.000 S 
ATOM      6  C   UNL     1      16.438  -7.742  26.103  0.00  0.00    +0.000 C 
ENDROOT
BRANCH   5   7
ATOM      7  C   UNL     1      14.177  -8.747  24.586  0.00  0.00    +0.000 A 
ATOM      8  C   UNL     1      14.407  -8.565  23.242  0.00  0.00    +0.000 A 
ATOM      9  C   UNL     1      13.347  -8.206  22.428  0.00  0.00    +0.000 A 
ATOM     10  O   UNL     1      13.569  -8.021  21.077  0.00  0.00    +0.000 OA
ATOM     11  C   UNL     1      12.092  -8.037  22.946  0.00  0.00    +0.000 A 
ATOM     12  C   UNL     1      11.876  -8.224  24.301  0.00  0.00    +0.000 A 
ATOM     13  C   UNL     1      12.942  -8.586  25.127  0.00  0.00    +0.000 A 
ATOM     14  O   UNL     1      12.783  -8.785  26.486  0.00  0.00    +0.000 OA
ENDBRANCH   5   7
BRANCH   1  15
ATOM     15  C   UNL     1      18.637  -7.422  26.983  0.00  0.00    +0.000 C 
BRANCH  15  16
ATOM     16  C   UNL     1      18.090  -6.025  27.204  0.00  0.00    +0.000 C 
BRANCH  16  18
ATOM     17  C   UNL     1      20.046  -5.783  25.776  0.00  0.00    +0.000 C 
ATOM     18  C   UNL     1      18.930  -4.988  26.464  0.00  0.00    +0.000 C 
ENDBRANCH  16  18
ENDBRANCH  15  16
ENDBRANCH   1  15
TORSDOF 4
ENDMDL
MODEL 5
REMARK VINA RESULT:      -5.2     31.594     33.031
REMARK  Name = 
REMARK  4 active torsions:
REMARK  status: ('A' for Active; 'I' for Inactive)
REMARK    1  A    between atoms: C_2  and  C_3
REMARK    2  A    between atoms: C_3  and  C_4
REMARK    3  A    between atoms: C_4  and  C_5
REMARK    4  A    between atoms: S_9  and  C_10
REMARK                            x       y       z     vdW  Elec       q    Type
REMARK                         _______ _______ _______ _____ _____    ______ ____
ROOT
ATOM      1  C   UNL     1      28.643  24.845  21.901  0.00  0.00    +0.000 C 
ATOM      2  C   UNL     1      27.253  23.990  21.913  0.00  0.00    +0.000 C 
ATOM      3  C   UNL     1      26.483  24.255  23.121  0.00  0.00    +0.000 C 
ATOM      4  C   UNL     1      26.864  23.139  24.117  0.00  0.00    +0.000 C 
ATOM      5  S   UNL     1      28.671  23.187  23.963  0.00  0.00    +0.000 S 
ATOM      6  C   UNL     1      28.882  24.907  23.522  0.00  0.00    +0.000 C 
ENDROOT
BRANCH   5   7
ATOM      7  C   UNL     1      29.331  22.890  25.559  0.00  0.00    +0.000 A 
ATOM      8  C   UNL     1      28.461  22.813  26.622  0.00  0.00    +0.000 A 
ATOM      9  C   UNL     1      28.974  22.579  27.886  0.00  0.00    +0.000 A 
ATOM     10  O   UNL     1      28.107  22.501  28.959  0.00  0.00    +0.000 OA
ATOM     11  C   UNL     1      30.319  22.425  28.079  0.00  0.00    +0.000 A 
ATOM     12  C   UNL     1      31.183  22.505  26.998  0.00  0.00    +0.000 A 
ATOM     13  C   UNL     1      30.671  22.740  25.722  0.00  0.00    +0.000 A 
ATOM     14  O   UNL     1      31.488  22.830  24.609  0.00  0.00    +0.000 OA
ENDBRANCH   5   7
BRANCH   1  15
ATOM     15  C   UNL     1      27.852  26.299  21.874  0.00  0.00    +0.000 C 
BRANCH  15  16
ATOM     16  C   UNL     1      28.874  27.156  21.151  0.00  0.00    +0.000 C 
BRANCH  16  18
ATOM     17  C   UNL     1      30.115  27.311  19.064  0.00  0.00    +0.000 C 
ATOM     18  C   UNL     1      29.670  26.324  20.149  0.00  0.00    +0.000 C 
ENDBRANCH  16  18
ENDBRANCH  15  16
ENDBRANCH   1  15
TORSDOF 4
ENDMDL
MODEL 6
REMARK VINA RESULT:      -5.2     31.483     33.116
REMARK  Name = 
REMARK  4 active torsions:
REMARK  status: ('A' for Active; 'I' for Inactive)
REMARK    1  A    between atoms: C_2  and  C_3
REMARK    2  A    between atoms: C_3  and  C_4
REMARK    3  A    between atoms: C_4  and  C_5
REMARK    4  A    between atoms: S_9  and  C_10
REMARK                            x       y       z     vdW  Elec       q    Type
REMARK                         _______ _______ _______ _____ _____    ______ ____
ROOT
ATOM      1  C   UNL     1      31.351  24.716  27.534  0.00  0.00    +0.000 C 
ATOM      2  C   UNL     1      30.783  23.321  28.162  0.00  0.00    +0.000 C 
ATOM      3  C   UNL     1      30.949  22.217  27.226  0.00  0.00    +0.000 C 
ATOM      4  C   UNL     1      29.609  22.108  26.465  0.00  0.00    +0.000 C 
ATOM      5  S   UNL     1      29.349  23.850  26.036  0.00  0.00    +0.000 S 
ATOM      6  C   UNL     1      31.053  24.390  25.955  0.00  0.00    +0.000 C 
ENDROOT
BRANCH   5   7
ATOM      7  C   UNL     1      28.632  23.885  24.437  0.00  0.00    +0.000 A 
ATOM      8  C   UNL     1      29.454  24.103  23.357  0.00  0.00    +0.000 A 
ATOM      9  C   UNL     1      28.895  24.133  22.090  0.00  0.00    +0.000 A 
ATOM     10  O   UNL     1      29.715  24.351  21.000  0.00  0.00    +0.000 OA
ATOM     11  C   UNL     1      27.552  23.948  21.913  0.00  0.00    +0.000 A 
ATOM     12  C   UNL     1      26.737  23.730  23.012  0.00  0.00    +0.000 A 
ATOM     13  C   UNL     1      27.294  23.699  24.290  0.00  0.00    +0.000 A 
ATOM     14  O   UNL     1      26.527  23.485  25.421  0.00  0.00    +0.000 OA
ENDBRANCH   5   7
BRANCH   1  15
ATOM     15  C   UNL     1      32.904  24.149  27.448  0.00  0.00    +0.000 C 
BRANCH  15  16
ATOM     16  C   UNL     1      33.504  25.134  26.463  0.00  0.00    +0.000 C 
BRANCH  16  18
ATOM     17  C   UNL     1      34.605  24.402  24.420  0.00  0.00    +0.000 C 
ATOM     18  C   UNL     1      34.834  24.620  25.920  0.00  0.00    +0.000 C 
ENDBRANCH  16  18
ENDBRANCH  15  16
ENDBRANCH   1  15
TORSDOF 4
ENDMDL
MODEL 7
REMARK VINA RESULT:      -5.1     14.337     16.014
REMARK  Name = 
REMARK  4 active torsions:
REMARK  status: ('A' for Active; 'I' for Inactive)
REMARK    1  A    between atoms: C_2  and  C_3
REMARK    2  A    between atoms: C_3  and  C_4
REMARK    3  A    between atoms: C_4  and  C_5
REMARK    4  A    between atoms: S_9  and  C_10
REMARK                            x       y       z     vdW  Elec       q    Type
REMARK                         _______ _______ _______ _____ _____    ______ ____
ROOT
ATOM      1  C   UNL     1      34.185  -5.225  32.671  0.00  0.00    +0.000 C 
ATOM      2  C   UNL     1      33.184  -5.906  33.766  0.00  0.00    +0.000 C 
ATOM      3  C   UNL     1      31.924  -5.180  33.849  0.00  0.00    +0.000 C 
ATOM      4  C   UNL     1      32.089  -4.183  35.018  0.00  0.00    +0.000 C 
ATOM      5  S   UNL     1      33.709  -3.480  34.602  0.00  0.00    +0.000 S 
ATOM      6  C   UNL     1      33.667  -3.678  32.825  0.00  0.00    +0.000 C 
ENDROOT
BRANCH   5   7
ATOM      7  C   UNL     1      33.653  -1.779  35.019  0.00  0.00    +0.000 A 
ATOM      8  C   UNL     1      33.585  -0.858  34.000  0.00  0.00    +0.000 A 
ATOM      9  C   UNL     1      33.542   0.488  34.320  0.00  0.00    +0.000 A 
ATOM     10  O   UNL     1      33.473   1.419  33.302  0.00  0.00    +0.000 OA
ATOM     11  C   UNL     1      33.564   0.899  35.624  0.00  0.00    +0.000 A 
ATOM     12  C   UNL     1      33.632  -0.041  36.640  0.00  0.00    +0.000 A 
ATOM     13  C   UNL     1      33.676  -1.399  36.323  0.00  0.00    +0.000 A 
ATOM     14  O   UNL     1      33.746  -2.378  37.297  0.00  0.00    +0.000 OA
ENDBRANCH   5   7
BRANCH   1  15
ATOM     15  C   UNL     1      33.159  -5.535  31.409  0.00  0.00    +0.000 C 
BRANCH  15  16
ATOM     16  C   UNL     1      34.158  -5.832  30.308  0.00  0.00    +0.000 C 
BRANCH  16  18
ATOM     17  C   UNL     1      34.223  -6.747  28.053  0.00  0.00    +0.000 C 
ATOM     18  C   UNL     1      33.503  -5.718  28.933  0.00  0.00    +0.000 C 
ENDBRANCH  16  18
ENDBRANCH  15  16
ENDBRANCH   1  15
TORSDOF 4
ENDMDL
MODEL 8
REMARK VINA RESULT:      -5.0     13.568     15.875
REMARK  Name = 
REMARK  4 active torsions:
REMARK  status: ('A' for Active; 'I' for Inactive)
REMARK    1  A    between atoms: C_2  and  C_3
REMARK    2  A    between atoms: C_3  and  C_4
REMARK    3  A    between atoms: C_4  and  C_5
REMARK    4  A    between atoms: S_9  and  C_10
REMARK                            x       y       z     vdW  Elec       q    Type
REMARK                         _______ _______ _______ _____ _____    ______ ____
ROOT
ATOM      1  C   UNL     1      22.761   2.846  16.896  0.00  0.00    +0.000 C 
ATOM      2  C   UNL     1      23.511   2.089  15.659  0.00  0.00    +0.000 C 
ATOM      3  C   UNL     1      24.834   1.622  16.053  0.00  0.00    +0.000 C 
ATOM      4  C   UNL     1      25.817   2.731  15.617  0.00  0.00    +0.000 C 
ATOM      5  S   UNL     1      24.954   4.188  16.269  0.00  0.00    +0.000 S 
ATOM      6  C   UNL     1      24.098   3.430  17.644  0.00  0.00    +0.000 C 
ENDROOT
BRANCH   5   7
ATOM      7  C   UNL     1      26.181   5.291  16.858  0.00  0.00    +0.000 A 
ATOM      8  C   UNL     1      26.641   5.131  18.144  0.00  0.00    +0.000 A 
ATOM      9  C   UNL     1      27.609   5.999  18.618  0.00  0.00    +0.000 A 
ATOM     10  O   UNL     1      28.077   5.844  19.909  0.00  0.00    +0.000 OA
ATOM     11  C   UNL     1      28.104   6.997  17.825  0.00  0.00    +0.000 A 
ATOM     12  C   UNL     1      27.630   7.146  16.532  0.00  0.00    +0.000 A 
ATOM     13  C   UNL     1      26.654   6.274  16.049  0.00  0.00    +0.000 A 
ATOM     14  O   UNL     1      26.146   6.378  14.766  0.00  0.00    +0.000 OA
ENDBRANCH   5   7
BRANCH   1  15
ATOM     15  C   UNL     1      22.730   1.479  17.830  0.00  0.00    +0.000 C 
BRANCH  15  16
ATOM     16  C   UNL     1      21.278   1.070  17.671  0.00  0.00    +0.000 C 
BRANCH  16  18
ATOM     17  C   UNL     1      18.975   1.775  17.322  0.00  0.00    +0.000 C 
ATOM     18  C   UNL     1      20.358   2.286  17.742  0.00  0.00    +0.000 C 
ENDBRANCH  16  18
ENDBRANCH  15  16
ENDBRANCH   1  15
TORSDOF 4
ENDMDL
MODEL 9
REMARK VINA RESULT:      -5.0     31.482     32.726
REMARK  Name = 
REMARK  4 active torsions:
REMARK  status: ('A' for Active; 'I' for Inactive)
REMARK    1  A    between atoms: C_2  and  C_3
REMARK    2  A    between atoms: C_3  and  C_4
REMARK    3  A    between atoms: C_4  and  C_5
REMARK    4  A    between atoms: S_9  and  C_10
REMARK                            x       y       z     vdW  Elec       q    Type
REMARK                         _______ _______ _______ _____ _____    ______ ____
ROOT
ATOM      1  C   UNL     1      30.215  24.305  25.054  0.00  0.00    +0.000 C 
ATOM      2  C   UNL     1      31.199  23.321  25.907  0.00  0.00    +0.000 C 
ATOM      3  C   UNL     1      30.478  22.155  26.400  0.00  0.00    +0.000 C 
ATOM      4  C   UNL     1      30.033  22.512  27.835  0.00  0.00    +0.000 C 
ATOM      5  S   UNL     1      29.337  24.161  27.546  0.00  0.00    +0.000 S 
ATOM      6  C   UNL     1      28.819  23.967  25.845  0.00  0.00    +0.000 C 
ENDROOT
BRANCH   5   7
ATOM      7  C   UNL     1      27.936  24.318  28.587  0.00  0.00    +0.000 A 
ATOM      8  C   UNL     1      27.470  23.195  29.229  0.00  0.00    +0.000 A 
ATOM      9  C   UNL     1      26.363  23.309  30.053  0.00  0.00    +0.000 A 
ATOM     10  O   UNL     1      25.889  22.185  30.701  0.00  0.00    +0.000 OA
ATOM     11  C   UNL     1      25.743  24.516  30.229  0.00  0.00    +0.000 A 
ATOM     12  C   UNL     1      26.224  25.638  29.575  0.00  0.00    +0.000 A 
ATOM     13  C   UNL     1      27.339  25.529  28.744  0.00  0.00    +0.000 A 
ATOM     14  O   UNL     1      27.861  26.617  28.067  0.00  0.00    +0.000 OA
ENDBRANCH   5   7
BRANCH   1  15
ATOM     15  C   UNL     1      29.934  23.161  23.890  0.00  0.00    +0.000 C 
BRANCH  15  16
ATOM     16  C   UNL     1      28.572  23.603  23.392  0.00  0.00    +0.000 C 
BRANCH  16  18
ATOM     17  C   UNL     1      29.216  24.924  21.451  0.00  0.00    +0.000 C 
ATOM     18  C   UNL     1      28.528  23.617  21.866  0.00  0.00    +0.000 C 
ENDBRANCH  16  18
ENDBRANCH  15  16
ENDBRANCH   1  15
TORSDOF 4
ENDMDL
MODEL 10
REMARK VINA RESULT:      -5.0     22.187     23.937
REMARK  Name = 
REMARK  4 active torsions:
REMARK  status: ('A' for Active; 'I' for Inactive)
REMARK    1  A    between atoms: C_2  and  C_3
REMARK    2  A    between atoms: C_3  and  C_4
REMARK    3  A    between atoms: C_4  and  C_5
REMARK    4  A    between atoms: S_9  and  C_10
REMARK                            x       y       z     vdW  Elec       q    Type
REMARK                         _______ _______ _______ _____ _____    ______ ____
ROOT
ATOM      1  C   UNL     1      35.684   5.793  35.111  0.00  0.00    +0.000 C 
ATOM      2  C   UNL     1      36.302   5.637  36.614  0.00  0.00    +0.000 C 
ATOM      3  C   UNL     1      35.351   6.084  37.622  0.00  0.00    +0.000 C 
ATOM      4  C   UNL     1      35.711   7.557  37.917  0.00  0.00    +0.000 C 
ATOM      5  S   UNL     1      35.856   8.188  36.223  0.00  0.00    +0.000 S 
ATOM      6  C   UNL     1      34.715   7.084  35.400  0.00  0.00    +0.000 C 
ENDROOT
BRANCH   5   7
ATOM      7  C   UNL     1      35.218   9.820  36.225  0.00  0.00    +0.000 A 
ATOM      8  C   UNL     1      34.229  10.133  37.128  0.00  0.00    +0.000 A 
ATOM      9  C   UNL     1      33.718  11.420  37.137  0.00  0.00    +0.000 A 
ATOM     10  O   UNL     1      32.724  11.742  38.041  0.00  0.00    +0.000 OA
ATOM     11  C   UNL     1      34.186  12.365  36.267  0.00  0.00    +0.000 A 
ATOM     12  C   UNL     1      35.183  12.034  35.363  0.00  0.00    +0.000 A 
ATOM     13  C   UNL     1      35.701  10.739  35.350  0.00  0.00    +0.000 A 
ATOM     14  O   UNL     1      36.696  10.356  34.469  0.00  0.00    +0.000 OA
ENDBRANCH   5   7
BRANCH   1  15
ATOM     15  C   UNL     1      34.469   4.706  35.402  0.00  0.00    +0.000 C 
BRANCH  15  16
ATOM     16  C   UNL     1      33.316   5.385  34.689  0.00  0.00    +0.000 C 
BRANCH  16  18
ATOM     17  C   UNL     1      33.610   3.219  33.620  0.00  0.00    +0.000 C 
ATOM     18  C   UNL     1      32.779   4.506  33.562  0.00  0.00    +0.000 C 
ENDBRANCH  16  18
ENDBRANCH  15  16
ENDBRANCH   1  15
TORSDOF 4
ENDMDL
