MODEL 1
REMARK VINA RESULT:      -8.2      0.000      0.000
REMARK  Name = 
REMARK  6 active torsions:
REMARK  status: ('A' for Active; 'I' for Inactive)
REMARK    1  A    between atoms: C_5  and  C_7
REMARK    2  A    between atoms: C_7  and  O_8
REMARK    3  A    between atoms: O_8  and  C_9
REMARK    4  A    between atoms: C_9  and  C_11
REMARK    5  A    between atoms: C_14  and  N_15
REMARK    6  A    between atoms: N_16  and  C_17
REMARK                            x       y       z     vdW  Elec       q    Type
REMARK                         _______ _______ _______ _____ _____    ______ ____
ROOT
ATOM      1  C   UNL     1      38.724   5.491  14.710  0.00  0.00    +0.000 A 
ATOM      2  C   UNL     1      37.359   5.355  14.668  0.00  0.00    +0.000 A 
ATOM      3  C   UNL     1      36.770   4.087  14.790  0.00  0.00    +0.000 A 
ATOM      4  C   UNL     1      37.559   2.968  14.953  0.00  0.00    +0.000 A 
ATOM      5  C   UNL     1      38.923   3.132  14.992  0.00  0.00    +0.000 A 
ATOM      6  C   UNL     1      39.533   4.391  14.872  0.00  0.00    +0.000 A 
ENDROOT
BRANCH   1   7
ATOM      7  C   UNL     1      39.318   6.804  14.584  0.00  0.00    +0.000 C 
ATOM      8  O   UNL     1      39.554   7.298  13.446  0.00  0.00    +0.000 OA
BRANCH   7   9
ATOM      9  O   UNL     1      39.685   7.641  15.575  0.00  0.00    +0.000 OA
BRANCH   9  10
ATOM     10  C   UNL     1      39.799   7.822  16.817  0.00  0.00    +0.000 C 
BRANCH  10  15
ATOM     11  C   UNL     1      41.433   6.318  20.213  0.00  0.00    +0.000 C 
ATOM     12  C   UNL     1      40.874   6.711  18.734  0.00  0.00    +0.000 C 
ATOM     13  C   UNL     1      39.597   5.719  18.815  0.00  0.00    +0.000 C 
ATOM     14  C   UNL     1      38.472   6.556  18.295  0.00  0.00    +0.000 C 
ATOM     15  C   UNL     1      39.110   7.960  18.019  0.00  0.00    +0.000 C 
ATOM     16  C   UNL     1      37.945   8.901  18.135  0.00  0.00    +0.000 C 
ATOM     17  C   UNL     1      39.993   7.966  19.247  0.00  0.00    +0.000 C 
ATOM     18  C   UNL     1      40.828   9.136  19.472  0.00  0.00    +0.000 C 
ATOM     19  C   UNL     1      39.207   7.490  20.439  0.00  0.00    +0.000 C 
ENDBRANCH  10  15
ENDBRANCH   9  10
ENDBRANCH   7   9
ENDBRANCH   1   7
BRANCH   4  20
ATOM     20  N   UNL     1      36.960   1.671  15.077  0.00  0.00    +0.000 NA
ATOM     21  N   UNL     1      37.004   1.102  16.186  0.00  0.00    +0.000 NA
BRANCH  21  22
ATOM     22  C   UNL     1      36.490  -0.148  16.525  0.00  0.00    +0.000 A 
ATOM     23  C   UNL     1      35.190  -0.253  16.943  0.00  0.00    +0.000 A 
ATOM     24  O   UNL     1      34.363   0.881  17.038  0.00  0.00    +0.000 OA
ATOM     25  C   UNL     1      34.721  -1.510  17.270  0.00  0.00    +0.000 A 
ATOM     26  C   UNL     1      35.528  -2.629  17.180  0.00  0.00    +0.000 A 
ATOM     27  C   UNL     1      36.851  -2.497  16.750  0.00  0.00    +0.000 A 
ATOM     28  C   UNL     1      37.672  -3.609  16.654  0.00  0.00    +0.000 A 
ATOM     29  C   UNL     1      38.973  -3.433  16.225  0.00  0.00    +0.000 A 
ATOM     30  C   UNL     1      39.453  -2.174  15.895  0.00  0.00    +0.000 A 
ATOM     31  C   UNL     1      38.651  -1.075  15.987  0.00  0.00    +0.000 A 
ATOM     32  C   UNL     1      37.339  -1.250  16.420  0.00  0.00    +0.000 A 
ENDBRANCH  21  22
ENDBRANCH   4  20
TORSDOF 6
ENDMDL
MODEL 2
REMARK VINA RESULT:      -8.0      1.512      2.786
REMARK  Name = 
REMARK  6 active torsions:
REMARK  status: ('A' for Active; 'I' for Inactive)
REMARK    1  A    between atoms: C_5  and  C_7
REMARK    2  A    between atoms: C_7  and  O_8
REMARK    3  A    between atoms: O_8  and  C_9
REMARK    4  A    between atoms: C_9  and  C_11
REMARK    5  A    between atoms: C_14  and  N_15
REMARK    6  A    between atoms: N_16  and  C_17
REMARK                            x       y       z     vdW  Elec       q    Type
REMARK                         _______ _______ _______ _____ _____    ______ ____
ROOT
ATOM      1  C   UNL     1      38.163   5.643  14.994  0.00  0.00    +0.000 A 
ATOM      2  C   UNL     1      39.240   4.794  15.035  0.00  0.00    +0.000 A 
ATOM      3  C   UNL     1      39.062   3.415  14.840  0.00  0.00    +0.000 A 
ATOM      4  C   UNL     1      37.804   2.905  14.604  0.00  0.00    +0.000 A 
ATOM      5  C   UNL     1      36.742   3.776  14.567  0.00  0.00    +0.000 A 
ATOM      6  C   UNL     1      36.897   5.158  14.760  0.00  0.00    +0.000 A 
ENDROOT
BRANCH   1   7
ATOM      7  C   UNL     1      38.359   7.062  15.196  0.00  0.00    +0.000 C 
ATOM      8  O   UNL     1      38.090   7.887  14.279  0.00  0.00    +0.000 OA
BRANCH   7   9
ATOM      9  O   UNL     1      38.821   7.679  16.302  0.00  0.00    +0.000 OA
BRANCH   9  10
ATOM     10  C   UNL     1      39.334   7.555  17.446  0.00  0.00    +0.000 C 
BRANCH  10  15
ATOM     11  C   UNL     1      41.908   8.826  20.313  0.00  0.00    +0.000 C 
ATOM     12  C   UNL     1      41.007   8.473  19.003  0.00  0.00    +0.000 C 
ATOM     13  C   UNL     1      42.082   7.429  18.389  0.00  0.00    +0.000 C 
ATOM     14  C   UNL     1      41.238   6.269  17.964  0.00  0.00    +0.000 C 
ATOM     15  C   UNL     1      39.783   6.649  18.403  0.00  0.00    +0.000 C 
ATOM     16  C   UNL     1      39.113   5.316  18.577  0.00  0.00    +0.000 C 
ATOM     17  C   UNL     1      40.184   7.279  19.719  0.00  0.00    +0.000 C 
ATOM     18  C   UNL     1      39.125   7.806  20.565  0.00  0.00    +0.000 C 
ATOM     19  C   UNL     1      41.195   6.405  20.412  0.00  0.00    +0.000 C 
ENDBRANCH  10  15
ENDBRANCH   9  10
ENDBRANCH   7   9
ENDBRANCH   1   7
BRANCH   4  20
ATOM     20  N   UNL     1      37.619   1.495  14.405  0.00  0.00    +0.000 NA
ATOM     21  N   UNL     1      37.914   0.722  15.337  0.00  0.00    +0.000 NA
BRANCH  21  22
ATOM     22  C   UNL     1      37.815  -0.668  15.357  0.00  0.00    +0.000 A 
ATOM     23  C   UNL     1      38.833  -1.426  14.843  0.00  0.00    +0.000 A 
ATOM     24  O   UNL     1      39.981  -0.825  14.293  0.00  0.00    +0.000 OA
ATOM     25  C   UNL     1      38.693  -2.799  14.882  0.00  0.00    +0.000 A 
ATOM     26  C   UNL     1      37.570  -3.396  15.421  0.00  0.00    +0.000 A 
ATOM     27  C   UNL     1      36.544  -2.602  15.940  0.00  0.00    +0.000 A 
ATOM     28  C   UNL     1      35.410  -3.186  16.484  0.00  0.00    +0.000 A 
ATOM     29  C   UNL     1      34.421  -2.364  16.985  0.00  0.00    +0.000 A 
ATOM     30  C   UNL     1      34.552  -0.983  16.950  0.00  0.00    +0.000 A 
ATOM     31  C   UNL     1      35.664  -0.401  16.416  0.00  0.00    +0.000 A 
ATOM     32  C   UNL     1      36.663  -1.228  15.909  0.00  0.00    +0.000 A 
ENDBRANCH  21  22
ENDBRANCH   4  20
TORSDOF 6
ENDMDL
MODEL 3
REMARK VINA RESULT:      -7.9     24.204     27.966
REMARK  Name = 
REMARK  6 active torsions:
REMARK  status: ('A' for Active; 'I' for Inactive)
REMARK    1  A    between atoms: C_5  and  C_7
REMARK    2  A    between atoms: C_7  and  O_8
REMARK    3  A    between atoms: O_8  and  C_9
REMARK    4  A    between atoms: C_9  and  C_11
REMARK    5  A    between atoms: C_14  and  N_15
REMARK    6  A    between atoms: N_16  and  C_17
REMARK                            x       y       z     vdW  Elec       q    Type
REMARK                         _______ _______ _______ _____ _____    ______ ____
ROOT
ATOM      1  C   UNL     1      27.563  14.583  40.726  0.00  0.00    +0.000 A 
ATOM      2  C   UNL     1      28.225  15.131  39.656  0.00  0.00    +0.000 A 
ATOM      3  C   UNL     1      27.568  15.299  38.427  0.00  0.00    +0.000 A 
ATOM      4  C   UNL     1      26.252  14.915  38.287  0.00  0.00    +0.000 A 
ATOM      5  C   UNL     1      25.611  14.370  39.373  0.00  0.00    +0.000 A 
ATOM      6  C   UNL     1      26.249  14.193  40.611  0.00  0.00    +0.000 A 
ENDROOT
BRANCH   1   7
ATOM      7  C   UNL     1      28.251  14.416  41.988  0.00  0.00    +0.000 C 
ATOM      8  O   UNL     1      28.605  15.419  42.666  0.00  0.00    +0.000 OA
BRANCH   7   9
ATOM      9  O   UNL     1      28.594  13.260  42.591  0.00  0.00    +0.000 OA
BRANCH   9  10
ATOM     10  C   UNL     1      28.444  12.010  42.644  0.00  0.00    +0.000 C 
BRANCH  10  15
ATOM     11  C   UNL     1      30.049   8.460  41.509  0.00  0.00    +0.000 C 
ATOM     12  C   UNL     1      29.596   9.993  41.826  0.00  0.00    +0.000 C 
ATOM     13  C   UNL     1      28.851  10.201  40.404  0.00  0.00    +0.000 C 
ATOM     14  C   UNL     1      27.567  10.871  40.778  0.00  0.00    +0.000 C 
ATOM     15  C   UNL     1      27.596  10.949  42.343  0.00  0.00    +0.000 C 
ATOM     16  C   UNL     1      26.142  10.995  42.715  0.00  0.00    +0.000 C 
ATOM     17  C   UNL     1      28.209   9.581  42.548  0.00  0.00    +0.000 C 
ATOM     18  C   UNL     1      28.439   9.144  43.916  0.00  0.00    +0.000 C 
ATOM     19  C   UNL     1      27.530   8.581  41.652  0.00  0.00    +0.000 C 
ENDBRANCH  10  15
ENDBRANCH   9  10
ENDBRANCH   7   9
ENDBRANCH   1   7
BRANCH   4  20
ATOM     20  N   UNL     1      25.578  15.086  37.031  0.00  0.00    +0.000 NA
ATOM     21  N   UNL     1      26.217  15.574  36.078  0.00  0.00    +0.000 NA
BRANCH  21  22
ATOM     22  C   UNL     1      25.762  15.824  34.785  0.00  0.00    +0.000 A 
ATOM     23  C   UNL     1      25.885  14.853  33.826  0.00  0.00    +0.000 A 
ATOM     24  O   UNL     1      26.465  13.606  34.124  0.00  0.00    +0.000 OA
ATOM     25  C   UNL     1      25.422  15.143  32.558  0.00  0.00    +0.000 A 
ATOM     26  C   UNL     1      24.853  16.365  32.257  0.00  0.00    +0.000 A 
ATOM     27  C   UNL     1      24.737  17.340  33.253  0.00  0.00    +0.000 A 
ATOM     28  C   UNL     1      24.167  18.571  32.968  0.00  0.00    +0.000 A 
ATOM     29  C   UNL     1      24.074  19.504  33.980  0.00  0.00    +0.000 A 
ATOM     30  C   UNL     1      24.536  19.223  35.258  0.00  0.00    +0.000 A 
ATOM     31  C   UNL     1      25.098  18.014  35.546  0.00  0.00    +0.000 A 
ATOM     32  C   UNL     1      25.194  17.071  34.526  0.00  0.00    +0.000 A 
ENDBRANCH  21  22
ENDBRANCH   4  20
TORSDOF 6
ENDMDL
MODEL 4
REMARK VINA RESULT:      -7.8      2.356      8.926
REMARK  Name = 
REMARK  6 active torsions:
REMARK  status: ('A' for Active; 'I' for Inactive)
REMARK    1  A    between atoms: C_5  and  C_7
REMARK    2  A    between atoms: C_7  and  O_8
REMARK    3  A    between atoms: O_8  and  C_9
REMARK    4  A    between atoms: C_9  and  C_11
REMARK    5  A    between atoms: C_14  and  N_15
REMARK    6  A    between atoms: N_16  and  C_17
REMARK                            x       y       z     vdW  Elec       q    Type
REMARK                         _______ _______ _______ _____ _____    ______ ____
ROOT
ATOM      1  C   UNL     1      38.090   1.020  13.536  0.00  0.00    +0.000 A 
ATOM      2  C   UNL     1      36.815   1.528  13.499  0.00  0.00    +0.000 A 
ATOM      3  C   UNL     1      36.509   2.721  14.174  0.00  0.00    +0.000 A 
ATOM      4  C   UNL     1      37.487   3.391  14.878  0.00  0.00    +0.000 A 
ATOM      5  C   UNL     1      38.754   2.862  14.898  0.00  0.00    +0.000 A 
ATOM      6  C   UNL     1      39.083   1.671  14.231  0.00  0.00    +0.000 A 
ENDROOT
BRANCH   1   7
ATOM      7  C   UNL     1      38.393  -0.209  12.836  0.00  0.00    +0.000 C 
ATOM      8  O   UNL     1      38.538  -0.217  11.583  0.00  0.00    +0.000 OA
BRANCH   7   9
ATOM      9  O   UNL     1      38.556  -1.438  13.365  0.00  0.00    +0.000 OA
BRANCH   9  10
ATOM     10  C   UNL     1      38.199  -2.266  14.246  0.00  0.00    +0.000 C 
BRANCH  10  15
ATOM     11  C   UNL     1      34.830  -2.432  16.500  0.00  0.00    +0.000 C 
ATOM     12  C   UNL     1      36.073  -2.159  15.482  0.00  0.00    +0.000 C 
ATOM     13  C   UNL     1      36.705  -0.965  16.374  0.00  0.00    +0.000 C 
ATOM     14  C   UNL     1      38.169  -1.274  16.381  0.00  0.00    +0.000 C 
ATOM     15  C   UNL     1      38.300  -2.619  15.588  0.00  0.00    +0.000 C 
ATOM     16  C   UNL     1      39.561  -3.223  16.134  0.00  0.00    +0.000 C 
ATOM     17  C   UNL     1      37.052  -3.252  16.162  0.00  0.00    +0.000 C 
ATOM     18  C   UNL     1      36.717  -4.599  15.727  0.00  0.00    +0.000 C 
ATOM     19  C   UNL     1      37.002  -3.018  17.648  0.00  0.00    +0.000 C 
ENDBRANCH  10  15
ENDBRANCH   9  10
ENDBRANCH   7   9
ENDBRANCH   1   7
BRANCH   4  20
ATOM     20  N   UNL     1      37.176   4.610  15.568  0.00  0.00    +0.000 NA
ATOM     21  N   UNL     1      38.072   5.468  15.686  0.00  0.00    +0.000 NA
BRANCH  21  22
ATOM     22  C   UNL     1      37.987   6.711  16.312  0.00  0.00    +0.000 A 
ATOM     23  C   UNL     1      37.349   7.744  15.679  0.00  0.00    +0.000 A 
ATOM     24  O   UNL     1      36.777   7.574  14.404  0.00  0.00    +0.000 OA
ATOM     25  C   UNL     1      37.288   8.958  16.335  0.00  0.00    +0.000 A 
ATOM     26  C   UNL     1      37.847   9.132  17.586  0.00  0.00    +0.000 A 
ATOM     27  C   UNL     1      38.493   8.062  18.212  0.00  0.00    +0.000 A 
ATOM     28  C   UNL     1      39.058   8.221  19.468  0.00  0.00    +0.000 A 
ATOM     29  C   UNL     1      39.686   7.139  20.050  0.00  0.00    +0.000 A 
ATOM     30  C   UNL     1      39.753   5.915  19.398  0.00  0.00    +0.000 A 
ATOM     31  C   UNL     1      39.199   5.751  18.163  0.00  0.00    +0.000 A 
ATOM     32  C   UNL     1      38.565   6.842  17.574  0.00  0.00    +0.000 A 
ENDBRANCH  21  22
ENDBRANCH   4  20
TORSDOF 6
ENDMDL
MODEL 5
REMARK VINA RESULT:      -7.7      1.867      3.141
REMARK  Name = 
REMARK  6 active torsions:
REMARK  status: ('A' for Active; 'I' for Inactive)
REMARK    1  A    between atoms: C_5  and  C_7
REMARK    2  A    between atoms: C_7  and  O_8
REMARK    3  A    between atoms: O_8  and  C_9
REMARK    4  A    between atoms: C_9  and  C_11
REMARK    5  A    between atoms: C_14  and  N_15
REMARK    6  A    between atoms: N_16  and  C_17
REMARK                            x       y       z     vdW  Elec       q    Type
REMARK                         _______ _______ _______ _____ _____    ______ ____
ROOT
ATOM      1  C   UNL     1      40.082   4.867  14.692  0.00  0.00    +0.000 A 
ATOM      2  C   UNL     1      40.415   4.043  13.646  0.00  0.00    +0.000 A 
ATOM      3  C   UNL     1      39.685   2.867  13.411  0.00  0.00    +0.000 A 
ATOM      4  C   UNL     1      38.628   2.532  14.230  0.00  0.00    +0.000 A 
ATOM      5  C   UNL     1      38.315   3.374  15.269  0.00  0.00    +0.000 A 
ATOM      6  C   UNL     1      39.031   4.555  15.523  0.00  0.00    +0.000 A 
ENDROOT
BRANCH   1   7
ATOM      7  C   UNL     1      40.842   6.076  14.924  0.00  0.00    +0.000 C 
ATOM      8  O   UNL     1      41.073   6.882  13.980  0.00  0.00    +0.000 OA
BRANCH   7   9
ATOM      9  O   UNL     1      41.379   6.502  16.085  0.00  0.00    +0.000 OA
BRANCH   9  10
ATOM     10  C   UNL     1      41.226   7.186  17.132  0.00  0.00    +0.000 C 
BRANCH  10  15
ATOM     11  C   UNL     1      37.599   8.005  18.756  0.00  0.00    +0.000 C 
ATOM     12  C   UNL     1      38.999   7.865  17.934  0.00  0.00    +0.000 C 
ATOM     13  C   UNL     1      39.698   9.131  18.660  0.00  0.00    +0.000 C 
ATOM     14  C   UNL     1      41.072   8.634  18.983  0.00  0.00    +0.000 C 
ATOM     15  C   UNL     1      41.077   7.139  18.515  0.00  0.00    +0.000 C 
ATOM     16  C   UNL     1      42.128   6.507  19.381  0.00  0.00    +0.000 C 
ATOM     17  C   UNL     1      39.671   6.832  18.981  0.00  0.00    +0.000 C 
ATOM     18  C   UNL     1      39.173   5.480  18.777  0.00  0.00    +0.000 C 
ATOM     19  C   UNL     1      39.457   7.403  20.357  0.00  0.00    +0.000 C 
ENDBRANCH  10  15
ENDBRANCH   9  10
ENDBRANCH   7   9
ENDBRANCH   1   7
BRANCH   4  20
ATOM     20  N   UNL     1      37.880   1.331  13.992  0.00  0.00    +0.000 NA
ATOM     21  N   UNL     1      38.077   0.353  14.741  0.00  0.00    +0.000 NA
BRANCH  21  22
ATOM     22  C   UNL     1      37.465  -0.898  14.689  0.00  0.00    +0.000 A 
ATOM     23  C   UNL     1      37.926  -1.840  13.807  0.00  0.00    +0.000 A 
ATOM     24  O   UNL     1      39.008  -1.565  12.950  0.00  0.00    +0.000 OA
ATOM     25  C   UNL     1      37.292  -3.066  13.789  0.00  0.00    +0.000 A 
ATOM     26  C   UNL     1      36.229  -3.342  14.627  0.00  0.00    +0.000 A 
ATOM     27  C   UNL     1      35.777  -2.366  15.519  0.00  0.00    +0.000 A 
ATOM     28  C   UNL     1      34.712  -2.628  16.367  0.00  0.00    +0.000 A 
ATOM     29  C   UNL     1      34.298  -1.635  17.232  0.00  0.00    +0.000 A 
ATOM     30  C   UNL     1      34.929  -0.400  17.257  0.00  0.00    +0.000 A 
ATOM     31  C   UNL     1      35.977  -0.134  16.426  0.00  0.00    +0.000 A 
ATOM     32  C   UNL     1      36.396  -1.134  15.553  0.00  0.00    +0.000 A 
ENDBRANCH  21  22
ENDBRANCH   4  20
TORSDOF 6
ENDMDL
MODEL 6
REMARK VINA RESULT:      -7.6      1.465      2.321
REMARK  Name = 
REMARK  6 active torsions:
REMARK  status: ('A' for Active; 'I' for Inactive)
REMARK    1  A    between atoms: C_5  and  C_7
REMARK    2  A    between atoms: C_7  and  O_8
REMARK    3  A    between atoms: O_8  and  C_9
REMARK    4  A    between atoms: C_9  and  C_11
REMARK    5  A    between atoms: C_14  and  N_15
REMARK    6  A    between atoms: N_16  and  C_17
REMARK                            x       y       z     vdW  Elec       q    Type
REMARK                         _______ _______ _______ _____ _____    ______ ____
ROOT
ATOM      1  C   UNL     1      39.648   5.136  15.609  0.00  0.00    +0.000 A 
ATOM      2  C   UNL     1      39.703   4.255  14.558  0.00  0.00    +0.000 A 
ATOM      3  C   UNL     1      38.793   3.189  14.481  0.00  0.00    +0.000 A 
ATOM      4  C   UNL     1      37.837   3.021  15.460  0.00  0.00    +0.000 A 
ATOM      5  C   UNL     1      37.803   3.917  16.500  0.00  0.00    +0.000 A 
ATOM      6  C   UNL     1      38.704   4.990  16.598  0.00  0.00    +0.000 A 
ENDROOT
BRANCH   1   7
ATOM      7  C   UNL     1      40.592   6.231  15.677  0.00  0.00    +0.000 C 
ATOM      8  O   UNL     1      41.107   6.703  14.626  0.00  0.00    +0.000 OA
BRANCH   7   9
ATOM      9  O   UNL     1      41.034   6.869  16.779  0.00  0.00    +0.000 OA
BRANCH   9  10
ATOM     10  C   UNL     1      40.741   7.578  17.780  0.00  0.00    +0.000 C 
BRANCH  10  15
ATOM     11  C   UNL     1      38.516  10.712  19.080  0.00  0.00    +0.000 C 
ATOM     12  C   UNL     1      39.550   9.632  18.431  0.00  0.00    +0.000 C 
ATOM     13  C   UNL     1      40.718   9.909  19.517  0.00  0.00    +0.000 C 
ATOM     14  C   UNL     1      41.185   8.536  19.885  0.00  0.00    +0.000 C 
ATOM     15  C   UNL     1      40.252   7.567  19.082  0.00  0.00    +0.000 C 
ATOM     16  C   UNL     1      40.271   6.308  19.902  0.00  0.00    +0.000 C 
ATOM     17  C   UNL     1      38.990   8.376  19.282  0.00  0.00    +0.000 C 
ATOM     18  C   UNL     1      37.759   7.859  18.706  0.00  0.00    +0.000 C 
ATOM     19  C   UNL     1      38.897   8.825  20.716  0.00  0.00    +0.000 C 
ENDBRANCH  10  15
ENDBRANCH   9  10
ENDBRANCH   7   9
ENDBRANCH   1   7
BRANCH   4  20
ATOM     20  N   UNL     1      36.905   1.931  15.383  0.00  0.00    +0.000 NA
ATOM     21  N   UNL     1      37.146   0.899  16.039  0.00  0.00    +0.000 NA
BRANCH  21  22
ATOM     22  C   UNL     1      36.384  -0.265  16.109  0.00  0.00    +0.000 A 
ATOM     23  C   UNL     1      35.319  -0.325  16.968  0.00  0.00    +0.000 A 
ATOM     24  O   UNL     1      34.981   0.770  17.785  0.00  0.00    +0.000 OA
ATOM     25  C   UNL     1      34.591  -1.498  17.006  0.00  0.00    +0.000 A 
ATOM     26  C   UNL     1      34.917  -2.577  16.208  0.00  0.00    +0.000 A 
ATOM     27  C   UNL     1      36.007  -2.492  15.338  0.00  0.00    +0.000 A 
ATOM     28  C   UNL     1      36.347  -3.566  14.530  0.00  0.00    +0.000 A 
ATOM     29  C   UNL     1      37.431  -3.439  13.686  0.00  0.00    +0.000 A 
ATOM     30  C   UNL     1      38.170  -2.265  13.641  0.00  0.00    +0.000 A 
ATOM     31  C   UNL     1      37.842  -1.205  14.433  0.00  0.00    +0.000 A 
ATOM     32  C   UNL     1      36.748  -1.330  15.285  0.00  0.00    +0.000 A 
ENDBRANCH  21  22
ENDBRANCH   4  20
TORSDOF 6
ENDMDL
MODEL 7
REMARK VINA RESULT:      -7.6     25.140     27.931
REMARK  Name = 
REMARK  6 active torsions:
REMARK  status: ('A' for Active; 'I' for Inactive)
REMARK    1  A    between atoms: C_5  and  C_7
REMARK    2  A    between atoms: C_7  and  O_8
REMARK    3  A    between atoms: O_8  and  C_9
REMARK    4  A    between atoms: C_9  and  C_11
REMARK    5  A    between atoms: C_14  and  N_15
REMARK    6  A    between atoms: N_16  and  C_17
REMARK                            x       y       z     vdW  Elec       q    Type
REMARK                         _______ _______ _______ _____ _____    ______ ____
ROOT
ATOM      1  C   UNL     1      24.619  15.793  39.903  0.00  0.00    +0.000 A 
ATOM      2  C   UNL     1      24.442  15.662  41.258  0.00  0.00    +0.000 A 
ATOM      3  C   UNL     1      24.970  14.552  41.937  0.00  0.00    +0.000 A 
ATOM      4  C   UNL     1      25.670  13.586  41.247  0.00  0.00    +0.000 A 
ATOM      5  C   UNL     1      25.834  13.741  39.892  0.00  0.00    +0.000 A 
ATOM      6  C   UNL     1      25.315  14.843  39.193  0.00  0.00    +0.000 A 
ENDROOT
BRANCH   1   7
ATOM      7  C   UNL     1      24.071  16.942  39.215  0.00  0.00    +0.000 C 
ATOM      8  O   UNL     1      23.337  17.767  39.825  0.00  0.00    +0.000 OA
BRANCH   7   9
ATOM      9  O   UNL     1      24.243  17.287  37.923  0.00  0.00    +0.000 OA
BRANCH   9  10
ATOM     10  C   UNL     1      24.839  17.055  36.838  0.00  0.00    +0.000 C 
BRANCH  10  15
ATOM     11  C   UNL     1      26.364  14.401  34.174  0.00  0.00    +0.000 C 
ATOM     12  C   UNL     1      25.735  15.264  35.405  0.00  0.00    +0.000 C 
ATOM     13  C   UNL     1      27.143  15.403  36.193  0.00  0.00    +0.000 C 
ATOM     14  C   UNL     1      27.173  16.841  36.603  0.00  0.00    +0.000 C 
ATOM     15  C   UNL     1      25.869  17.459  35.993  0.00  0.00    +0.000 C 
ATOM     16  C   UNL     1      26.212  18.913  35.838  0.00  0.00    +0.000 C 
ATOM     17  C   UNL     1      25.939  16.699  34.687  0.00  0.00    +0.000 C 
ATOM     18  C   UNL     1      24.897  16.947  33.704  0.00  0.00    +0.000 C 
ATOM     19  C   UNL     1      27.349  16.727  34.160  0.00  0.00    +0.000 C 
ENDBRANCH  10  15
ENDBRANCH   9  10
ENDBRANCH   7   9
ENDBRANCH   1   7
BRANCH   4  20
ATOM     20  N   UNL     1      26.210  12.451  41.938  0.00  0.00    +0.000 NA
ATOM     21  N   UNL     1      26.281  11.365  41.329  0.00  0.00    +0.000 NA
BRANCH  21  22
ATOM     22  C   UNL     1      26.767  10.149  41.806  0.00  0.00    +0.000 A 
ATOM     23  C   UNL     1      25.945   9.333  42.537  0.00  0.00    +0.000 A 
ATOM     24  O   UNL     1      24.616   9.702  42.819  0.00  0.00    +0.000 OA
ATOM     25  C   UNL     1      26.467   8.137  42.990  0.00  0.00    +0.000 A 
ATOM     26  C   UNL     1      27.770   7.769  42.719  0.00  0.00    +0.000 A 
ATOM     27  C   UNL     1      28.590   8.617  41.969  0.00  0.00    +0.000 A 
ATOM     28  C   UNL     1      29.899   8.262  41.688  0.00  0.00    +0.000 A 
ATOM     29  C   UNL     1      30.673   9.130  40.945  0.00  0.00    +0.000 A 
ATOM     30  C   UNL     1      30.158  10.334  40.486  0.00  0.00    +0.000 A 
ATOM     31  C   UNL     1      28.871  10.690  40.758  0.00  0.00    +0.000 A 
ATOM     32  C   UNL     1      28.088   9.816  41.508  0.00  0.00    +0.000 A 
ENDBRANCH  21  22
ENDBRANCH   4  20
TORSDOF 6
ENDMDL
MODEL 8
REMARK VINA RESULT:      -7.5      2.269      9.499
REMARK  Name = 
REMARK  6 active torsions:
REMARK  status: ('A' for Active; 'I' for Inactive)
REMARK    1  A    between atoms: C_5  and  C_7
REMARK    2  A    between atoms: C_7  and  O_8
REMARK    3  A    between atoms: O_8  and  C_9
REMARK    4  A    between atoms: C_9  and  C_11
REMARK    5  A    between atoms: C_14  and  N_15
REMARK    6  A    between atoms: N_16  and  C_17
REMARK                            x       y       z     vdW  Elec       q    Type
REMARK                         _______ _______ _______ _____ _____    ______ ____
ROOT
ATOM      1  C   UNL     1      37.506   2.853  15.295  0.00  0.00    +0.000 A 
ATOM      2  C   UNL     1      37.189   3.414  16.507  0.00  0.00    +0.000 A 
ATOM      3  C   UNL     1      37.938   4.492  17.005  0.00  0.00    +0.000 A 
ATOM      4  C   UNL     1      38.997   4.994  16.279  0.00  0.00    +0.000 A 
ATOM      5  C   UNL     1      39.293   4.415  15.070  0.00  0.00    +0.000 A 
ATOM      6  C   UNL     1      38.558   3.336  14.553  0.00  0.00    +0.000 A 
ENDROOT
BRANCH   1   7
ATOM      7  C   UNL     1      36.726   1.743  14.792  0.00  0.00    +0.000 C 
ATOM      8  O   UNL     1      36.883   1.328  13.611  0.00  0.00    +0.000 OA
BRANCH   7   9
ATOM      9  O   UNL     1      35.787   1.033  15.449  0.00  0.00    +0.000 OA
BRANCH   9  10
ATOM     10  C   UNL     1      35.477  -0.061  15.993  0.00  0.00    +0.000 C 
BRANCH  10  15
ATOM     11  C   UNL     1      36.882  -3.658  14.746  0.00  0.00    +0.000 C 
ATOM     12  C   UNL     1      36.154  -2.231  15.045  0.00  0.00    +0.000 C 
ATOM     13  C   UNL     1      34.868  -2.895  15.770  0.00  0.00    +0.000 C 
ATOM     14  C   UNL     1      34.670  -2.041  16.981  0.00  0.00    +0.000 C 
ATOM     15  C   UNL     1      35.848  -1.009  16.942  0.00  0.00    +0.000 C 
ATOM     16  C   UNL     1      36.025  -0.628  18.384  0.00  0.00    +0.000 C 
ATOM     17  C   UNL     1      36.892  -1.994  16.465  0.00  0.00    +0.000 C 
ATOM     18  C   UNL     1      38.248  -1.502  16.276  0.00  0.00    +0.000 C 
ATOM     19  C   UNL     1      36.770  -3.279  17.240  0.00  0.00    +0.000 C 
ENDBRANCH  10  15
ENDBRANCH   9  10
ENDBRANCH   7   9
ENDBRANCH   1   7
BRANCH   4  20
ATOM     20  N   UNL     1      39.765   6.096  16.787  0.00  0.00    +0.000 NA
ATOM     21  N   UNL     1      39.848   6.240  18.022  0.00  0.00    +0.000 NA
BRANCH  21  22
ATOM     22  C   UNL     1      40.535   7.230  18.722  0.00  0.00    +0.000 A 
ATOM     23  C   UNL     1      41.901   7.289  18.643  0.00  0.00    +0.000 A 
ATOM     24  O   UNL     1      42.626   6.364  17.867  0.00  0.00    +0.000 OA
ATOM     25  C   UNL     1      42.542   8.286  19.352  0.00  0.00    +0.000 A 
ATOM     26  C   UNL     1      41.838   9.196  20.116  0.00  0.00    +0.000 A 
ATOM     27  C   UNL     1      40.444   9.117  20.180  0.00  0.00    +0.000 A 
ATOM     28  C   UNL     1      39.723  10.024  20.942  0.00  0.00    +0.000 A 
ATOM     29  C   UNL     1      38.348   9.908  20.978  0.00  0.00    +0.000 A 
ATOM     30  C   UNL     1      37.695   8.910  20.269  0.00  0.00    +0.000 A 
ATOM     31  C   UNL     1      38.397   8.015  19.518  0.00  0.00    +0.000 A 
ATOM     32  C   UNL     1      39.785   8.129  19.480  0.00  0.00    +0.000 A 
ENDBRANCH  21  22
ENDBRANCH   4  20
TORSDOF 6
ENDMDL
MODEL 9
REMARK VINA RESULT:      -7.5     24.827     28.478
REMARK  Name = 
REMARK  6 active torsions:
REMARK  status: ('A' for Active; 'I' for Inactive)
REMARK    1  A    between atoms: C_5  and  C_7
REMARK    2  A    between atoms: C_7  and  O_8
REMARK    3  A    between atoms: O_8  and  C_9
REMARK    4  A    between atoms: C_9  and  C_11
REMARK    5  A    between atoms: C_14  and  N_15
REMARK    6  A    between atoms: N_16  and  C_17
REMARK                            x       y       z     vdW  Elec       q    Type
REMARK                         _______ _______ _______ _____ _____    ______ ____
ROOT
ATOM      1  C   UNL     1      27.523  13.145  40.915  0.00  0.00    +0.000 A 
ATOM      2  C   UNL     1      28.544  13.981  40.536  0.00  0.00    +0.000 A 
ATOM      3  C   UNL     1      28.337  14.940  39.531  0.00  0.00    +0.000 A 
ATOM      4  C   UNL     1      27.107  15.049  38.919  0.00  0.00    +0.000 A 
ATOM      5  C   UNL     1      26.102  14.201  39.317  0.00  0.00    +0.000 A 
ATOM      6  C   UNL     1      26.287  13.235  40.319  0.00  0.00    +0.000 A 
ENDROOT
BRANCH   1   7
ATOM      7  C   UNL     1      27.748  12.162  41.952  0.00  0.00    +0.000 C 
ATOM      8  O   UNL     1      28.754  12.244  42.709  0.00  0.00    +0.000 OA
BRANCH   7   9
ATOM      9  O   UNL     1      26.984  11.092  42.251  0.00  0.00    +0.000 OA
BRANCH   9  10
ATOM     10  C   UNL     1      26.915   9.967  42.815  0.00  0.00    +0.000 C 
BRANCH  10  15
ATOM     11  C   UNL     1      29.329   7.904  45.341  0.00  0.00    +0.000 C 
ATOM     12  C   UNL     1      28.538   8.921  44.343  0.00  0.00    +0.000 C 
ATOM     13  C   UNL     1      29.452   8.567  43.054  0.00  0.00    +0.000 C 
ATOM     14  C   UNL     1      28.453   8.407  41.952  0.00  0.00    +0.000 C 
ATOM     15  C   UNL     1      27.060   8.594  42.643  0.00  0.00    +0.000 C 
ATOM     16  C   UNL     1      26.124   7.826  41.754  0.00  0.00    +0.000 C 
ATOM     17  C   UNL     1      27.417   7.841  43.905  0.00  0.00    +0.000 C 
ATOM     18  C   UNL     1      26.389   7.709  44.926  0.00  0.00    +0.000 C 
ATOM     19  C   UNL     1      28.146   6.573  43.550  0.00  0.00    +0.000 C 
ENDBRANCH  10  15
ENDBRANCH   9  10
ENDBRANCH   7   9
ENDBRANCH   1   7
BRANCH   4  20
ATOM     20  N   UNL     1      26.894  16.028  37.891  0.00  0.00    +0.000 NA
ATOM     21  N   UNL     1      25.851  15.956  37.213  0.00  0.00    +0.000 NA
BRANCH  21  22
ATOM     22  C   UNL     1      25.447  16.796  36.176  0.00  0.00    +0.000 A 
ATOM     23  C   UNL     1      25.142  18.103  36.445  0.00  0.00    +0.000 A 
ATOM     24  O   UNL     1      25.227  18.616  37.753  0.00  0.00    +0.000 OA
ATOM     25  C   UNL     1      24.746  18.900  35.389  0.00  0.00    +0.000 A 
ATOM     26  C   UNL     1      24.660  18.404  34.102  0.00  0.00    +0.000 A 
ATOM     27  C   UNL     1      24.978  17.066  33.852  0.00  0.00    +0.000 A 
ATOM     28  C   UNL     1      24.897  16.554  32.566  0.00  0.00    +0.000 A 
ATOM     29  C   UNL     1      25.220  15.227  32.364  0.00  0.00    +0.000 A 
ATOM     30  C   UNL     1      25.618  14.418  33.419  0.00  0.00    +0.000 A 
ATOM     31  C   UNL     1      25.700  14.915  34.686  0.00  0.00    +0.000 A 
ATOM     32  C   UNL     1      25.374  16.253  34.893  0.00  0.00    +0.000 A 
ENDBRANCH  21  22
ENDBRANCH   4  20
TORSDOF 6
ENDMDL
MODEL 10
REMARK VINA RESULT:      -7.3      7.454     11.386
REMARK  Name = 
REMARK  6 active torsions:
REMARK  status: ('A' for Active; 'I' for Inactive)
REMARK    1  A    between atoms: C_5  and  C_7
REMARK    2  A    between atoms: C_7  and  O_8
REMARK    3  A    between atoms: O_8  and  C_9
REMARK    4  A    between atoms: C_9  and  C_11
REMARK    5  A    between atoms: C_14  and  N_15
REMARK    6  A    between atoms: N_16  and  C_17
REMARK                            x       y       z     vdW  Elec       q    Type
REMARK                         _______ _______ _______ _____ _____    ______ ____
ROOT
ATOM      1  C   UNL     1      44.435   7.140  22.962  0.00  0.00    +0.000 A 
ATOM      2  C   UNL     1      44.238   8.031  23.987  0.00  0.00    +0.000 A 
ATOM      3  C   UNL     1      44.037   7.570  25.298  0.00  0.00    +0.000 A 
ATOM      4  C   UNL     1      44.037   6.217  25.565  0.00  0.00    +0.000 A 
ATOM      5  C   UNL     1      44.237   5.346  24.521  0.00  0.00    +0.000 A 
ATOM      6  C   UNL     1      44.439   5.786  23.203  0.00  0.00    +0.000 A 
ENDROOT
BRANCH   1   7
ATOM      7  C   UNL     1      44.641   7.628  21.616  0.00  0.00    +0.000 C 
ATOM      8  O   UNL     1      45.713   8.215  21.301  0.00  0.00    +0.000 OA
BRANCH   7   9
ATOM      9  O   UNL     1      43.794   7.541  20.571  0.00  0.00    +0.000 OA
BRANCH   9  10
ATOM     10  C   UNL     1      42.601   7.595  20.169  0.00  0.00    +0.000 C 
BRANCH  10  15
ATOM     11  C   UNL     1      39.311   5.628  18.839  0.00  0.00    +0.000 C 
ATOM     12  C   UNL     1      40.755   6.191  19.343  0.00  0.00    +0.000 C 
ATOM     13  C   UNL     1      41.347   6.375  17.848  0.00  0.00    +0.000 C 
ATOM     14  C   UNL     1      42.002   7.718  17.895  0.00  0.00    +0.000 C 
ATOM     15  C   UNL     1      41.706   8.259  19.335  0.00  0.00    +0.000 C 
ATOM     16  C   UNL     1      41.770   9.750  19.167  0.00  0.00    +0.000 C 
ATOM     17  C   UNL     1      40.288   7.738  19.401  0.00  0.00    +0.000 C 
ATOM     18  C   UNL     1      39.524   8.010  20.608  0.00  0.00    +0.000 C 
ATOM     19  C   UNL     1      39.580   8.029  18.105  0.00  0.00    +0.000 C 
ENDBRANCH  10  15
ENDBRANCH   9  10
ENDBRANCH   7   9
ENDBRANCH   1   7
BRANCH   4  20
ATOM     20  N   UNL     1      43.832   5.743  26.904  0.00  0.00    +0.000 NA
ATOM     21  N   UNL     1      42.781   5.123  27.157  0.00  0.00    +0.000 NA
BRANCH  21  22
ATOM     22  C   UNL     1      42.383   4.580  28.378  0.00  0.00    +0.000 A 
ATOM     23  C   UNL     1      43.035   3.481  28.872  0.00  0.00    +0.000 A 
ATOM     24  O   UNL     1      44.100   2.888  28.168  0.00  0.00    +0.000 OA
ATOM     25  C   UNL     1      42.608   2.975  30.084  0.00  0.00    +0.000 A 
ATOM     26  C   UNL     1      41.564   3.551  30.781  0.00  0.00    +0.000 A 
ATOM     27  C   UNL     1      40.915   4.672  30.256  0.00  0.00    +0.000 A 
ATOM     28  C   UNL     1      39.866   5.262  30.943  0.00  0.00    +0.000 A 
ATOM     29  C   UNL     1      39.253   6.368  30.389  0.00  0.00    +0.000 A 
ATOM     30  C   UNL     1      39.673   6.883  29.171  0.00  0.00    +0.000 A 
ATOM     31  C   UNL     1      40.705   6.309  28.490  0.00  0.00    +0.000 A 
ATOM     32  C   UNL     1      41.324   5.193  29.047  0.00  0.00    +0.000 A 
ENDBRANCH  21  22
ENDBRANCH   4  20
TORSDOF 6
ENDMDL
