MODEL 1
REMARK VINA RESULT:      -5.8      0.000      0.000
REMARK  Name = 
REMARK  3 active torsions:
REMARK  status: ('A' for Active; 'I' for Inactive)
REMARK    1  A    between atoms: O_2  and  C_3
REMARK    2  A    between atoms: C_10  and  N_11
REMARK    3  A    between atoms: N_11  and  C_12
REMARK                            x       y       z     vdW  Elec       q    Type
REMARK                         _______ _______ _______ _____ _____    ______ ____
ROOT
ATOM      1  C   UNL     1      29.527  23.646  23.634  0.00  0.00    +0.000 A 
ATOM      2  C   UNL     1      30.283  24.799  23.705  0.00  0.00    +0.000 A 
ATOM      3  C   UNL     1      31.151  24.993  24.761  0.00  0.00    +0.000 A 
ATOM      4  C   UNL     1      31.243  23.986  25.758  0.00  0.00    +0.000 A 
ATOM      5  C   UNL     1      30.521  22.871  25.701  0.00  0.00    +0.000 A 
ATOM      6  C   UNL     1      29.652  22.697  24.627  0.00  0.00    +0.000 A 
ATOM      7  C   UNL     1      30.820  22.034  26.820  0.00  0.00    +0.000 C 
ATOM      8  C   UNL     1      31.245  23.106  27.997  0.00  0.00    +0.000 C 
ATOM      9  C   UNL     1      32.084  24.064  26.903  0.00  0.00    +0.000 C 
ENDROOT
BRANCH   1  11
ATOM     10  C   UNL     1      28.185  24.554  21.785  0.00  0.00    +0.000 C 
ATOM     11  O   UNL     1      28.657  23.469  22.561  0.00  0.00    +0.000 OA
ENDBRANCH   1  11
BRANCH   8  12
ATOM     12  N   UNL     1      29.917  23.958  27.823  0.00  0.00    +0.000 NA
BRANCH  12  13
ATOM     13  C   UNL     1      28.830  23.424  28.555  0.00  0.00    +0.000 A 
ATOM     14  C   UNL     1      29.110  22.837  29.793  0.00  0.00    +0.000 A 
ATOM     15  C   UNL     1      28.095  22.306  30.541  0.00  0.00    +0.000 A 
ATOM     16  C   UNL     1      26.782  22.324  30.122  0.00  0.00    +0.000 A 
ATOM     17  O   UNL     1      25.788  21.771  30.918  0.00  0.00    +0.000 OA
ATOM     18  C   UNL     1      26.500  22.910  28.886  0.00  0.00    +0.000 A 
ATOM     19  C   UNL     1      27.520  23.450  28.122  0.00  0.00    +0.000 A 
ENDBRANCH  12  13
ENDBRANCH   8  12
TORSDOF 3
ENDMDL
MODEL 2
REMARK VINA RESULT:      -5.8     19.943     21.238
REMARK  Name = 
REMARK  3 active torsions:
REMARK  status: ('A' for Active; 'I' for Inactive)
REMARK    1  A    between atoms: O_2  and  C_3
REMARK    2  A    between atoms: C_10  and  N_11
REMARK    3  A    between atoms: N_11  and  C_12
REMARK                            x       y       z     vdW  Elec       q    Type
REMARK                         _______ _______ _______ _____ _____    ______ ____
ROOT
ATOM      1  C   UNL     1      28.837   7.156  14.532  0.00  0.00    +0.000 A 
ATOM      2  C   UNL     1      27.531   7.162  14.083  0.00  0.00    +0.000 A 
ATOM      3  C   UNL     1      26.490   7.066  14.985  0.00  0.00    +0.000 A 
ATOM      4  C   UNL     1      26.797   6.962  16.368  0.00  0.00    +0.000 A 
ATOM      5  C   UNL     1      28.050   6.956  16.812  0.00  0.00    +0.000 A 
ATOM      6  C   UNL     1      29.084   7.054  15.885  0.00  0.00    +0.000 A 
ATOM      7  C   UNL     1      28.065   6.854  18.238  0.00  0.00    +0.000 C 
ATOM      8  C   UNL     1      26.688   6.014  18.576  0.00  0.00    +0.000 C 
ATOM      9  C   UNL     1      25.824   6.843  17.400  0.00  0.00    +0.000 C 
ENDROOT
BRANCH   1  11
ATOM     10  C   UNL     1      29.637   7.471  12.228  0.00  0.00    +0.000 C 
ATOM     11  O   UNL     1      29.874   7.255  13.606  0.00  0.00    +0.000 OA
ENDBRANCH   1  11
BRANCH   8  12
ATOM     12  N   UNL     1      27.053   4.840  17.573  0.00  0.00    +0.000 NA
BRANCH  12  13
ATOM     13  C   UNL     1      26.144   3.758  17.651  0.00  0.00    +0.000 A 
ATOM     14  C   UNL     1      26.297   2.718  16.729  0.00  0.00    +0.000 A 
ATOM     15  C   UNL     1      25.445   1.648  16.761  0.00  0.00    +0.000 A 
ATOM     16  C   UNL     1      24.422   1.546  17.679  0.00  0.00    +0.000 A 
ATOM     17  O   UNL     1      23.584   0.439  17.669  0.00  0.00    +0.000 OA
ATOM     18  C   UNL     1      24.267   2.583  18.601  0.00  0.00    +0.000 A 
ATOM     19  C   UNL     1      25.124   3.670  18.577  0.00  0.00    +0.000 A 
ENDBRANCH  12  13
ENDBRANCH   8  12
TORSDOF 3
ENDMDL
MODEL 3
REMARK VINA RESULT:      -5.7     32.467     33.903
REMARK  Name = 
REMARK  3 active torsions:
REMARK  status: ('A' for Active; 'I' for Inactive)
REMARK    1  A    between atoms: O_2  and  C_3
REMARK    2  A    between atoms: C_10  and  N_11
REMARK    3  A    between atoms: N_11  and  C_12
REMARK                            x       y       z     vdW  Elec       q    Type
REMARK                         _______ _______ _______ _____ _____    ______ ____
ROOT
ATOM      1  C   UNL     1      21.345  -8.291  25.699  0.00  0.00    +0.000 A 
ATOM      2  C   UNL     1      21.331  -6.992  25.230  0.00  0.00    +0.000 A 
ATOM      3  C   UNL     1      20.302  -6.141  25.580  0.00  0.00    +0.000 A 
ATOM      4  C   UNL     1      19.272  -6.634  26.426  0.00  0.00    +0.000 A 
ATOM      5  C   UNL     1      19.275  -7.882  26.885  0.00  0.00    +0.000 A 
ATOM      6  C   UNL     1      20.323  -8.722  26.518  0.00  0.00    +0.000 A 
ATOM      7  C   UNL     1      18.133  -8.102  27.717  0.00  0.00    +0.000 C 
ATOM      8  C   UNL     1      17.004  -7.074  27.097  0.00  0.00    +0.000 C 
ATOM      9  C   UNL     1      18.149  -5.871  26.852  0.00  0.00    +0.000 C 
ENDROOT
BRANCH   1  11
ATOM     10  C   UNL     1      23.499  -8.679  24.579  0.00  0.00    +0.000 C 
ATOM     11  O   UNL     1      22.393  -9.134  25.335  0.00  0.00    +0.000 OA
ENDBRANCH   1  11
BRANCH   8  12
ATOM     12  N   UNL     1      17.179  -7.631  25.622  0.00  0.00    +0.000 NA
BRANCH  12  13
ATOM     13  C   UNL     1      16.167  -8.555  25.267  0.00  0.00    +0.000 A 
ATOM     14  C   UNL     1      14.924  -8.424  25.891  0.00  0.00    +0.000 A 
ATOM     15  C   UNL     1      13.911  -9.291  25.584  0.00  0.00    +0.000 A 
ATOM     16  C   UNL     1      14.064 -10.310  24.668  0.00  0.00    +0.000 A 
ATOM     17  O   UNL     1      13.005 -11.164  24.391  0.00  0.00    +0.000 OA
ATOM     18  C   UNL     1      15.306 -10.443  24.042  0.00  0.00    +0.000 A 
ATOM     19  C   UNL     1      16.336  -9.571  24.347  0.00  0.00    +0.000 A 
ENDBRANCH  12  13
ENDBRANCH   8  12
TORSDOF 3
ENDMDL
MODEL 4
REMARK VINA RESULT:      -5.6      2.221      6.332
REMARK  Name = 
REMARK  3 active torsions:
REMARK  status: ('A' for Active; 'I' for Inactive)
REMARK    1  A    between atoms: O_2  and  C_3
REMARK    2  A    between atoms: C_10  and  N_11
REMARK    3  A    between atoms: N_11  and  C_12
REMARK                            x       y       z     vdW  Elec       q    Type
REMARK                         _______ _______ _______ _____ _____    ______ ____
ROOT
ATOM      1  C   UNL     1      29.738  22.876  28.499  0.00  0.00    +0.000 A 
ATOM      2  C   UNL     1      29.046  23.743  29.321  0.00  0.00    +0.000 A 
ATOM      3  C   UNL     1      27.764  24.134  28.992  0.00  0.00    +0.000 A 
ATOM      4  C   UNL     1      27.185  23.624  27.799  0.00  0.00    +0.000 A 
ATOM      5  C   UNL     1      27.840  22.787  27.000  0.00  0.00    +0.000 A 
ATOM      6  C   UNL     1      29.132  22.407  27.352  0.00  0.00    +0.000 A 
ATOM      7  C   UNL     1      27.020  22.428  25.885  0.00  0.00    +0.000 C 
ATOM      8  C   UNL     1      26.057  23.749  25.677  0.00  0.00    +0.000 C 
ATOM      9  C   UNL     1      25.881  23.954  27.334  0.00  0.00    +0.000 C 
ENDROOT
BRANCH   1  11
ATOM     10  C   UNL     1      32.177  23.121  28.306  0.00  0.00    +0.000 C 
ATOM     11  O   UNL     1      31.032  22.493  28.849  0.00  0.00    +0.000 OA
ENDBRANCH   1  11
BRANCH   8  12
ATOM     12  N   UNL     1      27.289  24.747  25.619  0.00  0.00    +0.000 NA
BRANCH  12  13
ATOM     13  C   UNL     1      27.955  24.714  24.372  0.00  0.00    +0.000 A 
ATOM     14  C   UNL     1      27.170  24.785  23.217  0.00  0.00    +0.000 A 
ATOM     15  C   UNL     1      27.765  24.758  21.985  0.00  0.00    +0.000 A 
ATOM     16  C   UNL     1      29.131  24.662  21.826  0.00  0.00    +0.000 A 
ATOM     17  O   UNL     1      29.686  24.637  20.554  0.00  0.00    +0.000 OA
ATOM     18  C   UNL     1      29.917  24.591  22.979  0.00  0.00    +0.000 A 
ATOM     19  C   UNL     1      29.325  24.618  24.229  0.00  0.00    +0.000 A 
ENDBRANCH  12  13
ENDBRANCH   8  12
TORSDOF 3
ENDMDL
MODEL 5
REMARK VINA RESULT:      -5.5     26.809     28.248
REMARK  Name = 
REMARK  3 active torsions:
REMARK  status: ('A' for Active; 'I' for Inactive)
REMARK    1  A    between atoms: O_2  and  C_3
REMARK    2  A    between atoms: C_10  and  N_11
REMARK    3  A    between atoms: N_11  and  C_12
REMARK                            x       y       z     vdW  Elec       q    Type
REMARK                         _______ _______ _______ _____ _____    ______ ____
ROOT
ATOM      1  C   UNL     1      33.733  -5.632  30.265  0.00  0.00    +0.000 A 
ATOM      2  C   UNL     1      35.057  -5.842  30.599  0.00  0.00    +0.000 A 
ATOM      3  C   UNL     1      35.447  -5.818  31.923  0.00  0.00    +0.000 A 
ATOM      4  C   UNL     1      34.462  -5.574  32.917  0.00  0.00    +0.000 A 
ATOM      5  C   UNL     1      33.185  -5.371  32.608  0.00  0.00    +0.000 A 
ATOM      6  C   UNL     1      32.814  -5.400  31.266  0.00  0.00    +0.000 A 
ATOM      7  C   UNL     1      32.418  -5.163  33.796  0.00  0.00    +0.000 C 
ATOM      8  C   UNL     1      33.503  -4.489  34.838  0.00  0.00    +0.000 C 
ATOM      9  C   UNL     1      34.729  -5.508  34.313  0.00  0.00    +0.000 C 
ENDROOT
BRANCH   1  11
ATOM     10  C   UNL     1      33.930  -6.569  28.000  0.00  0.00    +0.000 C 
ATOM     11  O   UNL     1      33.359  -5.661  28.923  0.00  0.00    +0.000 OA
ENDBRANCH   1  11
BRANCH   8  12
ATOM     12  N   UNL     1      33.917  -3.354  33.810  0.00  0.00    +0.000 NA
BRANCH  12  13
ATOM     13  C   UNL     1      33.880  -2.061  34.385  0.00  0.00    +0.000 A 
ATOM     14  C   UNL     1      34.600  -1.858  35.566  0.00  0.00    +0.000 A 
ATOM     15  C   UNL     1      34.597  -0.626  36.162  0.00  0.00    +0.000 A 
ATOM     16  C   UNL     1      33.903   0.445  35.642  0.00  0.00    +0.000 A 
ATOM     17  O   UNL     1      33.932   1.675  36.286  0.00  0.00    +0.000 OA
ATOM     18  C   UNL     1      33.183   0.244  34.462  0.00  0.00    +0.000 A 
ATOM     19  C   UNL     1      33.180  -0.998  33.851  0.00  0.00    +0.000 A 
ENDBRANCH  12  13
ENDBRANCH   8  12
TORSDOF 3
ENDMDL
MODEL 6
REMARK VINA RESULT:      -5.5     19.804     23.042
REMARK  Name = 
REMARK  3 active torsions:
REMARK  status: ('A' for Active; 'I' for Inactive)
REMARK    1  A    between atoms: O_2  and  C_3
REMARK    2  A    between atoms: C_10  and  N_11
REMARK    3  A    between atoms: N_11  and  C_12
REMARK                            x       y       z     vdW  Elec       q    Type
REMARK                         _______ _______ _______ _____ _____    ______ ____
ROOT
ATOM      1  C   UNL     1      16.565   9.172  42.966  0.00  0.00    +0.000 A 
ATOM      2  C   UNL     1      15.999   8.049  42.395  0.00  0.00    +0.000 A 
ATOM      3  C   UNL     1      16.604   7.445  41.312  0.00  0.00    +0.000 A 
ATOM      4  C   UNL     1      17.809   8.005  40.808  0.00  0.00    +0.000 A 
ATOM      5  C   UNL     1      18.365   9.084  41.350  0.00  0.00    +0.000 A 
ATOM      6  C   UNL     1      17.736   9.677  42.442  0.00  0.00    +0.000 A 
ATOM      7  C   UNL     1      19.568   9.420  40.656  0.00  0.00    +0.000 C 
ATOM      8  C   UNL     1      19.291   8.876  39.125  0.00  0.00    +0.000 C 
ATOM      9  C   UNL     1      18.528   7.492  39.692  0.00  0.00    +0.000 C 
ENDROOT
BRANCH   1  11
ATOM     10  C   UNL     1      16.294  11.056  44.523  0.00  0.00    +0.000 C 
ATOM     11  O   UNL     1      15.938   9.767  44.060  0.00  0.00    +0.000 OA
ENDBRANCH   1  11
BRANCH   8  12
ATOM     12  N   UNL     1      17.918   9.661  39.001  0.00  0.00    +0.000 NA
BRANCH  12  13
ATOM     13  C   UNL     1      17.590   9.973  37.660  0.00  0.00    +0.000 A 
ATOM     14  C   UNL     1      18.398   9.433  36.655  0.00  0.00    +0.000 A 
ATOM     15  C   UNL     1      18.125   9.704  35.342  0.00  0.00    +0.000 A 
ATOM     16  C   UNL     1      17.067  10.500  34.956  0.00  0.00    +0.000 A 
ATOM     17  O   UNL     1      16.832  10.745  33.610  0.00  0.00    +0.000 OA
ATOM     18  C   UNL     1      16.259  11.040  35.959  0.00  0.00    +0.000 A 
ATOM     19  C   UNL     1      16.527  10.772  37.290  0.00  0.00    +0.000 A 
ENDBRANCH  12  13
ENDBRANCH   8  12
TORSDOF 3
ENDMDL
MODEL 7
REMARK VINA RESULT:      -5.4      2.111      3.297
REMARK  Name = 
REMARK  3 active torsions:
REMARK  status: ('A' for Active; 'I' for Inactive)
REMARK    1  A    between atoms: O_2  and  C_3
REMARK    2  A    between atoms: C_10  and  N_11
REMARK    3  A    between atoms: N_11  and  C_12
REMARK                            x       y       z     vdW  Elec       q    Type
REMARK                         _______ _______ _______ _____ _____    ______ ____
ROOT
ATOM      1  C   UNL     1      32.628  25.617  24.970  0.00  0.00    +0.000 A 
ATOM      2  C   UNL     1      33.043  24.311  24.805  0.00  0.00    +0.000 A 
ATOM      3  C   UNL     1      32.122  23.324  24.516  0.00  0.00    +0.000 A 
ATOM      4  C   UNL     1      30.753  23.687  24.397  0.00  0.00    +0.000 A 
ATOM      5  C   UNL     1      30.341  24.942  24.553  0.00  0.00    +0.000 A 
ATOM      6  C   UNL     1      31.289  25.920  24.844  0.00  0.00    +0.000 A 
ATOM      7  C   UNL     1      28.927  25.022  24.368  0.00  0.00    +0.000 C 
ATOM      8  C   UNL     1      28.394  23.536  24.842  0.00  0.00    +0.000 C 
ATOM      9  C   UNL     1      29.701  22.771  24.117  0.00  0.00    +0.000 C 
ENDROOT
BRANCH   1  11
ATOM     10  C   UNL     1      33.224  27.825  25.875  0.00  0.00    +0.000 C 
ATOM     11  O   UNL     1      33.574  26.599  25.261  0.00  0.00    +0.000 OA
ENDBRANCH   1  11
BRANCH   8  12
ATOM     12  N   UNL     1      29.137  23.620  26.242  0.00  0.00    +0.000 NA
BRANCH  12  13
ATOM     13  C   UNL     1      28.260  23.418  27.334  0.00  0.00    +0.000 A 
ATOM     14  C   UNL     1      28.774  22.777  28.465  0.00  0.00    +0.000 A 
ATOM     15  C   UNL     1      27.968  22.557  29.549  0.00  0.00    +0.000 A 
ATOM     16  C   UNL     1      26.646  22.947  29.578  0.00  0.00    +0.000 A 
ATOM     17  O   UNL     1      25.871  22.700  30.703  0.00  0.00    +0.000 OA
ATOM     18  C   UNL     1      26.131  23.588  28.450  0.00  0.00    +0.000 A 
ATOM     19  C   UNL     1      26.938  23.815  27.348  0.00  0.00    +0.000 A 
ENDBRANCH  12  13
ENDBRANCH   8  12
TORSDOF 3
ENDMDL
MODEL 8
REMARK VINA RESULT:      -5.4     21.935     23.124
REMARK  Name = 
REMARK  3 active torsions:
REMARK  status: ('A' for Active; 'I' for Inactive)
REMARK    1  A    between atoms: O_2  and  C_3
REMARK    2  A    between atoms: C_10  and  N_11
REMARK    3  A    between atoms: N_11  and  C_12
REMARK                            x       y       z     vdW  Elec       q    Type
REMARK                         _______ _______ _______ _____ _____    ______ ____
ROOT
ATOM      1  C   UNL     1      26.597   5.491  15.688  0.00  0.00    +0.000 A 
ATOM      2  C   UNL     1      26.026   6.277  16.669  0.00  0.00    +0.000 A 
ATOM      3  C   UNL     1      25.413   5.689  17.757  0.00  0.00    +0.000 A 
ATOM      4  C   UNL     1      25.386   4.271  17.837  0.00  0.00    +0.000 A 
ATOM      5  C   UNL     1      25.933   3.503  16.899  0.00  0.00    +0.000 A 
ATOM      6  C   UNL     1      26.546   4.118  15.811  0.00  0.00    +0.000 A 
ATOM      7  C   UNL     1      25.771   2.124  17.238  0.00  0.00    +0.000 C 
ATOM      8  C   UNL     1      24.375   2.106  18.113  0.00  0.00    +0.000 C 
ATOM      9  C   UNL     1      24.777   3.537  18.892  0.00  0.00    +0.000 C 
ENDROOT
BRANCH   1  11
ATOM     10  C   UNL     1      27.661   7.444  14.641  0.00  0.00    +0.000 C 
ATOM     11  O   UNL     1      27.211   6.103  14.598  0.00  0.00    +0.000 OA
ENDBRANCH   1  11
BRANCH   8  12
ATOM     12  N   UNL     1      23.557   2.871  16.990  0.00  0.00    +0.000 NA
BRANCH  12  13
ATOM     13  C   UNL     1      22.231   2.393  16.863  0.00  0.00    +0.000 A 
ATOM     14  C   UNL     1      21.319   2.745  17.862  0.00  0.00    +0.000 A 
ATOM     15  C   UNL     1      20.024   2.309  17.787  0.00  0.00    +0.000 A 
ATOM     16  C   UNL     1      19.568   1.523  16.750  0.00  0.00    +0.000 A 
ATOM     17  O   UNL     1      18.244   1.107  16.721  0.00  0.00    +0.000 OA
ATOM     18  C   UNL     1      20.478   1.171  15.751  0.00  0.00    +0.000 A 
ATOM     19  C   UNL     1      21.790   1.606  15.818  0.00  0.00    +0.000 A 
ENDBRANCH  12  13
ENDBRANCH   8  12
TORSDOF 3
ENDMDL
MODEL 9
REMARK VINA RESULT:      -5.4      2.491      4.077
REMARK  Name = 
REMARK  3 active torsions:
REMARK  status: ('A' for Active; 'I' for Inactive)
REMARK    1  A    between atoms: O_2  and  C_3
REMARK    2  A    between atoms: C_10  and  N_11
REMARK    3  A    between atoms: N_11  and  C_12
REMARK                            x       y       z     vdW  Elec       q    Type
REMARK                         _______ _______ _______ _____ _____    ______ ____
ROOT
ATOM      1  C   UNL     1      28.476  24.555  22.261  0.00  0.00    +0.000 A 
ATOM      2  C   UNL     1      27.409  23.765  21.883  0.00  0.00    +0.000 A 
ATOM      3  C   UNL     1      26.396  23.495  22.780  0.00  0.00    +0.000 A 
ATOM      4  C   UNL     1      26.482  24.046  24.087  0.00  0.00    +0.000 A 
ATOM      5  C   UNL     1      27.503  24.809  24.463  0.00  0.00    +0.000 A 
ATOM      6  C   UNL     1      28.514  25.068  23.541  0.00  0.00    +0.000 A 
ATOM      7  C   UNL     1      27.327  25.234  25.816  0.00  0.00    +0.000 C 
ATOM      8  C   UNL     1      26.457  24.008  26.492  0.00  0.00    +0.000 C 
ATOM      9  C   UNL     1      25.517  23.837  25.112  0.00  0.00    +0.000 C 
ENDROOT
BRANCH   1  11
ATOM     10  C   UNL     1      29.477  25.963  20.512  0.00  0.00    +0.000 C 
ATOM     11  O   UNL     1      29.489  24.816  21.340  0.00  0.00    +0.000 OA
ENDBRANCH   1  11
BRANCH   8  12
ATOM     12  N   UNL     1      27.482  22.898  26.011  0.00  0.00    +0.000 NA
BRANCH  12  13
ATOM     13  C   UNL     1      28.582  22.757  26.890  0.00  0.00    +0.000 A 
ATOM     14  C   UNL     1      29.810  22.384  26.335  0.00  0.00    +0.000 A 
ATOM     15  C   UNL     1      30.905  22.235  27.142  0.00  0.00    +0.000 A 
ATOM     16  C   UNL     1      30.853  22.439  28.504  0.00  0.00    +0.000 A 
ATOM     17  O   UNL     1      31.993  22.274  29.279  0.00  0.00    +0.000 OA
ATOM     18  C   UNL     1      29.628  22.812  29.060  0.00  0.00    +0.000 A 
ATOM     19  C   UNL     1      28.514  22.966  28.253  0.00  0.00    +0.000 A 
ENDBRANCH  12  13
ENDBRANCH   8  12
TORSDOF 3
ENDMDL
MODEL 10
REMARK VINA RESULT:      -5.3     19.039     20.946
REMARK  Name = 
REMARK  3 active torsions:
REMARK  status: ('A' for Active; 'I' for Inactive)
REMARK    1  A    between atoms: O_2  and  C_3
REMARK    2  A    between atoms: C_10  and  N_11
REMARK    3  A    between atoms: N_11  and  C_12
REMARK                            x       y       z     vdW  Elec       q    Type
REMARK                         _______ _______ _______ _____ _____    ______ ____
ROOT
ATOM      1  C   UNL     1      35.189   9.235  35.823  0.00  0.00    +0.000 A 
ATOM      2  C   UNL     1      34.331   9.240  36.905  0.00  0.00    +0.000 A 
ATOM      3  C   UNL     1      34.296   8.159  37.764  0.00  0.00    +0.000 A 
ATOM      4  C   UNL     1      35.156   7.058  37.505  0.00  0.00    +0.000 A 
ATOM      5  C   UNL     1      35.987   7.043  36.467  0.00  0.00    +0.000 A 
ATOM      6  C   UNL     1      36.005   8.144  35.615  0.00  0.00    +0.000 A 
ATOM      7  C   UNL     1      36.736   5.826  36.456  0.00  0.00    +0.000 C 
ATOM      8  C   UNL     1      35.720   4.743  37.171  0.00  0.00    +0.000 C 
ATOM      9  C   UNL     1      35.211   5.878  38.298  0.00  0.00    +0.000 C 
ENDROOT
BRANCH   1  11
ATOM     10  C   UNL     1      36.072  11.438  35.179  0.00  0.00    +0.000 C 
ATOM     11  O   UNL     1      35.210  10.336  34.969  0.00  0.00    +0.000 OA
ENDBRANCH   1  11
BRANCH   8  12
ATOM     12  N   UNL     1      34.522   5.086  36.189  0.00  0.00    +0.000 NA
BRANCH  12  13
ATOM     13  C   UNL     1      34.148   3.984  35.385  0.00  0.00    +0.000 A 
ATOM     14  C   UNL     1      34.107   2.725  35.991  0.00  0.00    +0.000 A 
ATOM     15  C   UNL     1      33.751   1.626  35.258  0.00  0.00    +0.000 A 
ATOM     16  C   UNL     1      33.423   1.704  33.921  0.00  0.00    +0.000 A 
ATOM     17  O   UNL     1      33.069   0.559  33.221  0.00  0.00    +0.000 OA
ATOM     18  C   UNL     1      33.463   2.961  33.313  0.00  0.00    +0.000 A 
ATOM     19  C   UNL     1      33.822   4.079  34.046  0.00  0.00    +0.000 A 
ENDBRANCH  12  13
ENDBRANCH   8  12
TORSDOF 3
ENDMDL
