MODEL 1
REMARK VINA RESULT:      -6.8      0.000      0.000
REMARK  Name = 
REMARK  3 active torsions:
REMARK  status: ('A' for Active; 'I' for Inactive)
REMARK    1  A    between atoms: C_2  and  C_13
REMARK    2  A    between atoms: N_3  and  N_4
REMARK    3  A    between atoms: C_5  and  C_7
REMARK                            x       y       z     vdW  Elec       q    Type
REMARK                         _______ _______ _______ _____ _____    ______ ____
ROOT
ATOM      1  C   UNL     1      19.089   9.587  36.189  0.00  0.00    +0.000 C 
ATOM      2  C   UNL     1      17.947   9.794  37.089  0.00  0.00    +0.000 C 
ATOM      3  N   UNL     1      16.854  10.251  36.620  0.00  0.00    +0.000 NA
ENDROOT
BRANCH   2   4
ATOM      4  C   UNL     1      18.031   9.488  38.529  0.00  0.00    +0.000 A 
ATOM      5  C   UNL     1      19.160   8.906  39.066  0.00  0.00    +0.000 A 
ATOM      6  C   UNL     1      19.248   8.614  40.419  0.00  0.00    +0.000 A 
ATOM      7  C   UNL     1      18.205   8.898  41.275  0.00  0.00    +0.000 A 
ATOM      8  O   UNL     1      18.295   8.603  42.641  0.00  0.00    +0.000 OA
ATOM      9  C   UNL     1      17.078   9.480  40.732  0.00  0.00    +0.000 A 
ATOM     10  C   UNL     1      16.986   9.771  39.386  0.00  0.00    +0.000 A 
ENDBRANCH   2   4
BRANCH   3  11
ATOM     11  N   UNL     1      16.709  10.565  35.247  0.00  0.00    +0.000 NA
ATOM     12  C   UNL     1      15.631  11.391  34.802  0.00  0.00    +0.000 C 
ATOM     13  O   UNL     1      14.836  11.816  35.678  0.00  0.00    +0.000 OA
BRANCH  12  14
ATOM     14  C   UNL     1      15.461  11.728  33.397  0.00  0.00    +0.000 A 
ATOM     15  C   UNL     1      16.156  11.142  32.371  0.00  0.00    +0.000 A 
ATOM     16  C   UNL     1      15.695  11.745  31.197  0.00  0.00    +0.000 A 
ATOM     17  C   UNL     1      14.737  12.668  31.599  0.00  0.00    +0.000 A 
ATOM     18  C   UNL     1      13.932  13.582  30.747  0.00  0.00    +0.000 C 
ATOM     19  O   UNL     1      14.645  12.608  32.923  0.00  0.00    +0.000 OA
ENDBRANCH  12  14
ENDBRANCH   3  11
TORSDOF 3
ENDMDL
MODEL 2
REMARK VINA RESULT:      -6.8      1.622      8.097
REMARK  Name = 
REMARK  3 active torsions:
REMARK  status: ('A' for Active; 'I' for Inactive)
REMARK    1  A    between atoms: C_2  and  C_13
REMARK    2  A    between atoms: N_3  and  N_4
REMARK    3  A    between atoms: C_5  and  C_7
REMARK                            x       y       z     vdW  Elec       q    Type
REMARK                         _______ _______ _______ _____ _____    ______ ____
ROOT
ATOM      1  C   UNL     1      17.733   9.545  34.643  0.00  0.00    +0.000 C 
ATOM      2  C   UNL     1      16.671  10.555  34.740  0.00  0.00    +0.000 C 
ATOM      3  N   UNL     1      16.267  10.932  35.888  0.00  0.00    +0.000 NA
ENDROOT
BRANCH   2   4
ATOM      4  C   UNL     1      16.054  11.147  33.539  0.00  0.00    +0.000 A 
ATOM      5  C   UNL     1      16.384  10.698  32.277  0.00  0.00    +0.000 A 
ATOM      6  C   UNL     1      15.809  11.248  31.142  0.00  0.00    +0.000 A 
ATOM      7  C   UNL     1      14.887  12.269  31.237  0.00  0.00    +0.000 A 
ATOM      8  O   UNL     1      14.307  12.824  30.090  0.00  0.00    +0.000 OA
ATOM      9  C   UNL     1      14.562  12.715  32.501  0.00  0.00    +0.000 A 
ATOM     10  C   UNL     1      15.132  12.169  33.634  0.00  0.00    +0.000 A 
ENDBRANCH   2   4
BRANCH   3  11
ATOM     11  N   UNL     1      16.818  10.401  37.080  0.00  0.00    +0.000 NA
ATOM     12  C   UNL     1      16.117  10.524  38.320  0.00  0.00    +0.000 C 
ATOM     13  O   UNL     1      15.009  11.116  38.295  0.00  0.00    +0.000 OA
BRANCH  12  14
ATOM     14  C   UNL     1      16.662   9.988  39.558  0.00  0.00    +0.000 A 
ATOM     15  C   UNL     1      17.986   9.699  39.759  0.00  0.00    +0.000 A 
ATOM     16  C   UNL     1      18.083   9.212  41.065  0.00  0.00    +0.000 A 
ATOM     17  C   UNL     1      16.789   9.241  41.574  0.00  0.00    +0.000 A 
ATOM     18  C   UNL     1      16.328   8.828  42.925  0.00  0.00    +0.000 C 
ATOM     19  O   UNL     1      15.990   9.714  40.624  0.00  0.00    +0.000 OA
ENDBRANCH  12  14
ENDBRANCH   3  11
TORSDOF 3
ENDMDL
MODEL 3
REMARK VINA RESULT:      -6.3     18.400     20.830
REMARK  Name = 
REMARK  3 active torsions:
REMARK  status: ('A' for Active; 'I' for Inactive)
REMARK    1  A    between atoms: C_2  and  C_13
REMARK    2  A    between atoms: N_3  and  N_4
REMARK    3  A    between atoms: C_5  and  C_7
REMARK                            x       y       z     vdW  Elec       q    Type
REMARK                         _______ _______ _______ _____ _____    ______ ____
ROOT
ATOM      1  C   UNL     1      33.953   1.439  32.405  0.00  0.00    +0.000 C 
ATOM      2  C   UNL     1      33.555   1.699  33.794  0.00  0.00    +0.000 C 
ATOM      3  N   UNL     1      33.127   0.738  34.514  0.00  0.00    +0.000 NA
ENDROOT
BRANCH   2   4
ATOM      4  C   UNL     1      33.635   3.049  34.383  0.00  0.00    +0.000 A 
ATOM      5  C   UNL     1      33.155   4.149  33.703  0.00  0.00    +0.000 A 
ATOM      6  C   UNL     1      33.225   5.421  34.248  0.00  0.00    +0.000 A 
ATOM      7  C   UNL     1      33.781   5.631  35.492  0.00  0.00    +0.000 A 
ATOM      8  O   UNL     1      33.851   6.916  36.042  0.00  0.00    +0.000 OA
ATOM      9  C   UNL     1      34.260   4.527  36.167  0.00  0.00    +0.000 A 
ATOM     10  C   UNL     1      34.192   3.258  35.628  0.00  0.00    +0.000 A 
ENDBRANCH   2   4
BRANCH   3  11
ATOM     11  N   UNL     1      33.027  -0.580  34.008  0.00  0.00    +0.000 NA
ATOM     12  C   UNL     1      33.941  -1.592  34.437  0.00  0.00    +0.000 C 
ATOM     13  O   UNL     1      34.819  -1.254  35.271  0.00  0.00    +0.000 OA
BRANCH  12  14
ATOM     14  C   UNL     1      33.859  -2.954  33.932  0.00  0.00    +0.000 A 
ATOM     15  C   UNL     1      34.103  -4.074  34.683  0.00  0.00    +0.000 A 
ATOM     16  C   UNL     1      33.917  -5.163  33.827  0.00  0.00    +0.000 A 
ATOM     17  C   UNL     1      33.567  -4.619  32.597  0.00  0.00    +0.000 A 
ATOM     18  C   UNL     1      33.259  -5.337  31.333  0.00  0.00    +0.000 C 
ATOM     19  O   UNL     1      33.551  -3.297  32.727  0.00  0.00    +0.000 OA
ENDBRANCH  12  14
ENDBRANCH   3  11
TORSDOF 3
ENDMDL
MODEL 4
REMARK VINA RESULT:      -6.3     17.699     19.514
REMARK  Name = 
REMARK  3 active torsions:
REMARK  status: ('A' for Active; 'I' for Inactive)
REMARK    1  A    between atoms: C_2  and  C_13
REMARK    2  A    between atoms: N_3  and  N_4
REMARK    3  A    between atoms: C_5  and  C_7
REMARK                            x       y       z     vdW  Elec       q    Type
REMARK                         _______ _______ _______ _____ _____    ______ ____
ROOT
ATOM      1  C   UNL     1      32.543   4.880  33.512  0.00  0.00    +0.000 C 
ATOM      2  C   UNL     1      33.575   4.054  34.151  0.00  0.00    +0.000 C 
ATOM      3  N   UNL     1      34.395   4.594  34.964  0.00  0.00    +0.000 NA
ENDROOT
BRANCH   2   4
ATOM      4  C   UNL     1      33.691   2.610  33.877  0.00  0.00    +0.000 A 
ATOM      5  C   UNL     1      33.508   1.681  34.879  0.00  0.00    +0.000 A 
ATOM      6  C   UNL     1      33.615   0.321  34.631  0.00  0.00    +0.000 A 
ATOM      7  C   UNL     1      33.909  -0.149  33.369  0.00  0.00    +0.000 A 
ATOM      8  O   UNL     1      34.016  -1.522  33.119  0.00  0.00    +0.000 OA
ATOM      9  C   UNL     1      34.091   0.785  32.370  0.00  0.00    +0.000 A 
ATOM     10  C   UNL     1      33.986   2.140  32.613  0.00  0.00    +0.000 A 
ENDBRANCH   2   4
BRANCH   3  11
ATOM     11  N   UNL     1      34.336   5.975  35.269  0.00  0.00    +0.000 NA
ATOM     12  C   UNL     1      35.521   6.687  35.636  0.00  0.00    +0.000 C 
ATOM     13  O   UNL     1      36.593   6.033  35.672  0.00  0.00    +0.000 OA
BRANCH  12  14
ATOM     14  C   UNL     1      35.487   8.106  35.956  0.00  0.00    +0.000 A 
ATOM     15  C   UNL     1      36.562   8.822  36.413  0.00  0.00    +0.000 A 
ATOM     16  C   UNL     1      36.108  10.132  36.592  0.00  0.00    +0.000 A 
ATOM     17  C   UNL     1      34.767  10.118  36.224  0.00  0.00    +0.000 A 
ATOM     18  C   UNL     1      33.807  11.252  36.225  0.00  0.00    +0.000 C 
ATOM     19  O   UNL     1      34.460   8.880  35.854  0.00  0.00    +0.000 OA
ENDBRANCH  12  14
ENDBRANCH   3  11
TORSDOF 3
ENDMDL
MODEL 5
REMARK VINA RESULT:      -6.1     21.985     23.257
REMARK  Name = 
REMARK  3 active torsions:
REMARK  status: ('A' for Active; 'I' for Inactive)
REMARK    1  A    between atoms: C_2  and  C_13
REMARK    2  A    between atoms: N_3  and  N_4
REMARK    3  A    between atoms: C_5  and  C_7
REMARK                            x       y       z     vdW  Elec       q    Type
REMARK                         _______ _______ _______ _____ _____    ______ ____
ROOT
ATOM      1  C   UNL     1      22.405  -9.484  25.618  0.00  0.00    +0.000 C 
ATOM      2  C   UNL     1      21.832  -8.229  25.118  0.00  0.00    +0.000 C 
ATOM      3  N   UNL     1      22.411  -7.610  24.167  0.00  0.00    +0.000 NA
ENDROOT
BRANCH   2   4
ATOM      4  C   UNL     1      20.597  -7.660  25.690  0.00  0.00    +0.000 A 
ATOM      5  C   UNL     1      19.678  -8.462  26.332  0.00  0.00    +0.000 A 
ATOM      6  C   UNL     1      18.515  -7.936  26.874  0.00  0.00    +0.000 A 
ATOM      7  C   UNL     1      18.237  -6.588  26.786  0.00  0.00    +0.000 A 
ATOM      8  O   UNL     1      17.063  -6.058  27.333  0.00  0.00    +0.000 OA
ATOM      9  C   UNL     1      19.161  -5.791  26.142  0.00  0.00    +0.000 A 
ATOM     10  C   UNL     1      20.320  -6.310  25.602  0.00  0.00    +0.000 A 
ENDBRANCH   2   4
BRANCH   3  11
ATOM     11  N   UNL     1      23.599  -8.104  23.575  0.00  0.00    +0.000 NA
ATOM     12  C   UNL     1      24.795  -7.320  23.587  0.00  0.00    +0.000 C 
ATOM     13  O   UNL     1      24.735  -6.194  24.141  0.00  0.00    +0.000 OA
BRANCH  12  14
ATOM     14  C   UNL     1      26.028  -7.805  22.986  0.00  0.00    +0.000 A 
ATOM     15  C   UNL     1      26.298  -9.124  22.731  0.00  0.00    +0.000 A 
ATOM     16  C   UNL     1      27.572  -9.155  22.157  0.00  0.00    +0.000 A 
ATOM     17  C   UNL     1      27.991  -7.830  22.102  0.00  0.00    +0.000 A 
ATOM     18  C   UNL     1      29.277  -7.299  21.579  0.00  0.00    +0.000 C 
ATOM     19  O   UNL     1      27.024  -7.076  22.612  0.00  0.00    +0.000 OA
ENDBRANCH  12  14
ENDBRANCH   3  11
TORSDOF 3
ENDMDL
MODEL 6
REMARK VINA RESULT:      -6.0     19.273     21.370
REMARK  Name = 
REMARK  3 active torsions:
REMARK  status: ('A' for Active; 'I' for Inactive)
REMARK    1  A    between atoms: C_2  and  C_13
REMARK    2  A    between atoms: N_3  and  N_4
REMARK    3  A    between atoms: C_5  and  C_7
REMARK                            x       y       z     vdW  Elec       q    Type
REMARK                         _______ _______ _______ _____ _____    ______ ____
ROOT
ATOM      1  C   UNL     1      34.600  -1.957  35.685  0.00  0.00    +0.000 C 
ATOM      2  C   UNL     1      33.853  -2.319  34.474  0.00  0.00    +0.000 C 
ATOM      3  N   UNL     1      33.192  -1.423  33.854  0.00  0.00    +0.000 NA
ENDROOT
BRANCH   2   4
ATOM      4  C   UNL     1      33.845  -3.698  33.953  0.00  0.00    +0.000 A 
ATOM      5  C   UNL     1      34.146  -4.767  34.771  0.00  0.00    +0.000 A 
ATOM      6  C   UNL     1      34.140  -6.068  34.290  0.00  0.00    +0.000 A 
ATOM      7  C   UNL     1      33.833  -6.336  32.972  0.00  0.00    +0.000 A 
ATOM      8  O   UNL     1      33.827  -7.649  32.488  0.00  0.00    +0.000 OA
ATOM      9  C   UNL     1      33.533  -5.262  32.159  0.00  0.00    +0.000 A 
ATOM     10  C   UNL     1      33.538  -3.966  32.634  0.00  0.00    +0.000 A 
ENDBRANCH   2   4
BRANCH   3  11
ATOM     11  N   UNL     1      33.160  -0.080  34.303  0.00  0.00    +0.000 NA
ATOM     12  C   UNL     1      33.676   0.971  33.483  0.00  0.00    +0.000 C 
ATOM     13  O   UNL     1      34.148   0.645  32.364  0.00  0.00    +0.000 OA
BRANCH  12  14
ATOM     14  C   UNL     1      33.655   2.358  33.921  0.00  0.00    +0.000 A 
ATOM     15  C   UNL     1      33.374   3.423  33.107  0.00  0.00    +0.000 A 
ATOM     16  C   UNL     1      33.460   4.561  33.913  0.00  0.00    +0.000 A 
ATOM     17  C   UNL     1      33.792   4.099  35.182  0.00  0.00    +0.000 A 
ATOM     18  C   UNL     1      34.007   4.895  36.418  0.00  0.00    +0.000 C 
ATOM     19  O   UNL     1      33.894   2.776  35.118  0.00  0.00    +0.000 OA
ENDBRANCH  12  14
ENDBRANCH   3  11
TORSDOF 3
ENDMDL
MODEL 7
REMARK VINA RESULT:      -5.9     18.519     20.055
REMARK  Name = 
REMARK  3 active torsions:
REMARK  status: ('A' for Active; 'I' for Inactive)
REMARK    1  A    between atoms: C_2  and  C_13
REMARK    2  A    between atoms: N_3  and  N_4
REMARK    3  A    between atoms: C_5  and  C_7
REMARK                            x       y       z     vdW  Elec       q    Type
REMARK                         _______ _______ _______ _____ _____    ______ ____
ROOT
ATOM      1  C   UNL     1      34.263   3.170  37.580  0.00  0.00    +0.000 C 
ATOM      2  C   UNL     1      34.354   3.785  36.250  0.00  0.00    +0.000 C 
ATOM      3  N   UNL     1      34.118   3.080  35.215  0.00  0.00    +0.000 NA
ENDROOT
BRANCH   2   4
ATOM      4  C   UNL     1      34.714   5.205  36.076  0.00  0.00    +0.000 A 
ATOM      5  C   UNL     1      33.951   6.204  36.644  0.00  0.00    +0.000 A 
ATOM      6  C   UNL     1      34.281   7.542  36.487  0.00  0.00    +0.000 A 
ATOM      7  C   UNL     1      35.387   7.918  35.753  0.00  0.00    +0.000 A 
ATOM      8  O   UNL     1      35.720   9.268  35.595  0.00  0.00    +0.000 OA
ATOM      9  C   UNL     1      36.145   6.914  35.187  0.00  0.00    +0.000 A 
ATOM     10  C   UNL     1      35.820   5.581  35.342  0.00  0.00    +0.000 A 
ENDBRANCH   2   4
BRANCH   3  11
ATOM     11  N   UNL     1      33.768   1.711  35.314  0.00  0.00    +0.000 NA
ATOM     12  C   UNL     1      33.553   0.931  34.136  0.00  0.00    +0.000 C 
ATOM     13  O   UNL     1      33.689   1.514  33.031  0.00  0.00    +0.000 OA
BRANCH  12  14
ATOM     14  C   UNL     1      33.191  -0.476  34.211  0.00  0.00    +0.000 A 
ATOM     15  C   UNL     1      32.224  -0.983  35.038  0.00  0.00    +0.000 A 
ATOM     16  C   UNL     1      32.195  -2.361  34.802  0.00  0.00    +0.000 A 
ATOM     17  C   UNL     1      33.161  -2.596  33.831  0.00  0.00    +0.000 A 
ATOM     18  C   UNL     1      33.544  -3.893  33.216  0.00  0.00    +0.000 C 
ATOM     19  O   UNL     1      33.719  -1.431  33.522  0.00  0.00    +0.000 OA
ENDBRANCH  12  14
ENDBRANCH   3  11
TORSDOF 3
ENDMDL
MODEL 8
REMARK VINA RESULT:      -5.8     21.113     22.430
REMARK  Name = 
REMARK  3 active torsions:
REMARK  status: ('A' for Active; 'I' for Inactive)
REMARK    1  A    between atoms: C_2  and  C_13
REMARK    2  A    between atoms: N_3  and  N_4
REMARK    3  A    between atoms: C_5  and  C_7
REMARK                            x       y       z     vdW  Elec       q    Type
REMARK                         _______ _______ _______ _____ _____    ______ ____
ROOT
ATOM      1  C   UNL     1      14.904 -10.280  24.931  0.00  0.00    +0.000 C 
ATOM      2  C   UNL     1      14.239  -9.133  25.562  0.00  0.00    +0.000 C 
ATOM      3  N   UNL     1      14.918  -8.090  25.841  0.00  0.00    +0.000 NA
ENDROOT
BRANCH   2   4
ATOM      4  C   UNL     1      12.801  -9.153  25.886  0.00  0.00    +0.000 A 
ATOM      5  C   UNL     1      12.370  -9.260  27.192  0.00  0.00    +0.000 A 
ATOM      6  C   UNL     1      11.020  -9.280  27.507  0.00  0.00    +0.000 A 
ATOM      7  C   UNL     1      10.060  -9.194  26.521  0.00  0.00    +0.000 A 
ATOM      8  O   UNL     1       8.697  -9.214  26.839  0.00  0.00    +0.000 OA
ATOM      9  C   UNL     1      10.497  -9.088  25.216  0.00  0.00    +0.000 A 
ATOM     10  C   UNL     1      11.841  -9.068  24.899  0.00  0.00    +0.000 A 
ENDBRANCH   2   4
BRANCH   3  11
ATOM     11  N   UNL     1      16.302  -8.008  25.554  0.00  0.00    +0.000 NA
ATOM     12  C   UNL     1      17.155  -7.171  26.339  0.00  0.00    +0.000 C 
ATOM     13  O   UNL     1      16.621  -6.526  27.276  0.00  0.00    +0.000 OA
BRANCH  12  14
ATOM     14  C   UNL     1      18.581  -7.068  26.065  0.00  0.00    +0.000 A 
ATOM     15  C   UNL     1      19.272  -5.887  25.999  0.00  0.00    +0.000 A 
ATOM     16  C   UNL     1      20.599  -6.230  25.719  0.00  0.00    +0.000 A 
ATOM     17  C   UNL     1      20.618  -7.618  25.634  0.00  0.00    +0.000 A 
ATOM     18  C   UNL     1      21.780  -8.501  25.355  0.00  0.00    +0.000 C 
ATOM     19  O   UNL     1      19.383  -8.055  25.851  0.00  0.00    +0.000 OA
ENDBRANCH  12  14
ENDBRANCH   3  11
TORSDOF 3
ENDMDL
MODEL 9
REMARK VINA RESULT:      -5.7     19.093     20.201
REMARK  Name = 
REMARK  3 active torsions:
REMARK  status: ('A' for Active; 'I' for Inactive)
REMARK    1  A    between atoms: C_2  and  C_13
REMARK    2  A    between atoms: N_3  and  N_4
REMARK    3  A    between atoms: C_5  and  C_7
REMARK                            x       y       z     vdW  Elec       q    Type
REMARK                         _______ _______ _______ _____ _____    ______ ____
ROOT
ATOM      1  C   UNL     1      31.768  24.061  27.424  0.00  0.00    +0.000 C 
ATOM      2  C   UNL     1      31.542  22.732  28.006  0.00  0.00    +0.000 C 
ATOM      3  N   UNL     1      30.660  21.966  27.496  0.00  0.00    +0.000 NA
ENDROOT
BRANCH   2   4
ATOM      4  C   UNL     1      32.310  22.257  29.171  0.00  0.00    +0.000 A 
ATOM      5  C   UNL     1      31.697  21.547  30.183  0.00  0.00    +0.000 A 
ATOM      6  C   UNL     1      32.410  21.095  31.282  0.00  0.00    +0.000 A 
ATOM      7  C   UNL     1      33.762  21.342  31.402  0.00  0.00    +0.000 A 
ATOM      8  O   UNL     1      34.481  20.886  32.512  0.00  0.00    +0.000 OA
ATOM      9  C   UNL     1      34.369  22.053  30.387  0.00  0.00    +0.000 A 
ATOM     10  C   UNL     1      33.662  22.505  29.291  0.00  0.00    +0.000 A 
ENDBRANCH   2   4
BRANCH   3  11
ATOM     11  N   UNL     1      29.890  22.364  26.377  0.00  0.00    +0.000 NA
ATOM     12  C   UNL     1      28.466  22.453  26.472  0.00  0.00    +0.000 C 
ATOM     13  O   UNL     1      27.947  22.165  27.580  0.00  0.00    +0.000 OA
BRANCH  12  14
ATOM     14  C   UNL     1      27.652  22.859  25.336  0.00  0.00    +0.000 A 
ATOM     15  C   UNL     1      26.282  22.889  25.338  0.00  0.00    +0.000 A 
ATOM     16  C   UNL     1      25.902  23.331  24.068  0.00  0.00    +0.000 A 
ATOM     17  C   UNL     1      27.088  23.543  23.373  0.00  0.00    +0.000 A 
ATOM     18  C   UNL     1      27.258  24.016  21.975  0.00  0.00    +0.000 C 
ATOM     19  O   UNL     1      28.094  23.242  24.187  0.00  0.00    +0.000 OA
ENDBRANCH  12  14
ENDBRANCH   3  11
TORSDOF 3
ENDMDL
MODEL 10
REMARK VINA RESULT:      -5.6     21.076     22.110
REMARK  Name = 
REMARK  3 active torsions:
REMARK  status: ('A' for Active; 'I' for Inactive)
REMARK    1  A    between atoms: C_2  and  C_13
REMARK    2  A    between atoms: N_3  and  N_4
REMARK    3  A    between atoms: C_5  and  C_7
REMARK                            x       y       z     vdW  Elec       q    Type
REMARK                         _______ _______ _______ _____ _____    ______ ____
ROOT
ATOM      1  C   UNL     1      17.501  -9.416  27.418  0.00  0.00    +0.000 C 
ATOM      2  C   UNL     1      17.729  -8.280  26.516  0.00  0.00    +0.000 C 
ATOM      3  N   UNL     1      16.731  -7.634  26.057  0.00  0.00    +0.000 NA
ENDROOT
BRANCH   2   4
ATOM      4  C   UNL     1      19.088  -7.865  26.122  0.00  0.00    +0.000 A 
ATOM      5  C   UNL     1      19.381  -6.540  25.875  0.00  0.00    +0.000 A 
ATOM      6  C   UNL     1      20.656  -6.140  25.504  0.00  0.00    +0.000 A 
ATOM      7  C   UNL     1      21.676  -7.057  25.369  0.00  0.00    +0.000 A 
ATOM      8  O   UNL     1      22.963  -6.653  24.995  0.00  0.00    +0.000 OA
ATOM      9  C   UNL     1      21.377  -8.382  25.617  0.00  0.00    +0.000 A 
ATOM     10  C   UNL     1      20.109  -8.784  25.986  0.00  0.00    +0.000 A 
ENDBRANCH   2   4
BRANCH   3  11
ATOM     11  N   UNL     1      15.401  -7.982  26.397  0.00  0.00    +0.000 NA
ATOM     12  C   UNL     1      14.465  -8.345  25.380  0.00  0.00    +0.000 C 
ATOM     13  O   UNL     1      14.877  -8.338  24.193  0.00  0.00    +0.000 OA
BRANCH  12  14
ATOM     14  C   UNL     1      13.093  -8.706  25.703  0.00  0.00    +0.000 A 
ATOM     15  C   UNL     1      12.044  -8.626  24.825  0.00  0.00    +0.000 A 
ATOM     16  C   UNL     1      10.916  -9.062  25.527  0.00  0.00    +0.000 A 
ATOM     17  C   UNL     1      11.368  -9.382  26.802  0.00  0.00    +0.000 A 
ATOM     18  C   UNL     1      10.577  -9.896  27.950  0.00  0.00    +0.000 C 
ATOM     19  O   UNL     1      12.675  -9.147  26.841  0.00  0.00    +0.000 OA
ENDBRANCH  12  14
ENDBRANCH   3  11
TORSDOF 3
ENDMDL
