MODEL 1
REMARK VINA RESULT:      -6.6      0.000      0.000
REMARK  Name = 
REMARK  3 active torsions:
REMARK  status: ('A' for Active; 'I' for Inactive)
REMARK    1  A    between atoms: C_2  and  C_3
REMARK    2  A    between atoms: C_3  and  N_5
REMARK    3  A    between atoms: C_7  and  C_8
REMARK                            x       y       z     vdW  Elec       q    Type
REMARK                         _______ _______ _______ _____ _____    ______ ____
ROOT
ATOM      1  N   UNL     1      27.936  23.091  28.929  0.00  0.00    +0.000 N 
ATOM      2  C   UNL     1      27.501  23.083  27.703  0.00  0.00    +0.000 A 
ATOM      3  C   UNL     1      28.533  22.793  26.846  0.00  0.00    +0.000 A 
ATOM      4  C   UNL     1      29.642  22.623  27.655  0.00  0.00    +0.000 A 
ATOM      5  C   UNL     1      31.003  22.319  27.460  0.00  0.00    +0.000 A 
ATOM      6  C   UNL     1      31.946  22.197  28.440  0.00  0.00    +0.000 A 
ATOM      7  C   UNL     1      31.498  22.396  29.722  0.00  0.00    +0.000 A 
ATOM      8  C   UNL     1      30.183  22.699  30.005  0.00  0.00    +0.000 A 
ATOM      9  C   UNL     1      29.256  22.814  28.993  0.00  0.00    +0.000 A 
ENDROOT
BRANCH   3  10
ATOM     10  C   UNL     1      28.786  22.629  25.472  0.00  0.00    +0.000 C 
ATOM     11  C   UNL     1      29.003  23.392  24.499  0.00  0.00    +0.000 C 
ATOM     12  N   UNL     1      29.245  23.044  23.140  0.00  0.00    +0.000 NA
ATOM     13  C   UNL     1      29.429  24.273  22.449  0.00  0.00    +0.000 C 
ATOM     14  O   UNL     1      29.668  24.366  21.207  0.00  0.00    +0.000 OA
ATOM     15  N   UNL     1      29.296  25.336  23.391  0.00  0.00    +0.000 NA
ATOM     16  C   UNL     1      29.023  24.808  24.712  0.00  0.00    +0.000 C 
ATOM     17  O   UNL     1      28.845  25.415  25.790  0.00  0.00    +0.000 OA
ENDBRANCH   3  10
BRANCH   1  18
ATOM     18  C   UNL     1      27.139  23.387  30.223  0.00  0.00    +0.000 C 
ATOM     19  C   UNL     1      26.453  21.899  30.302  0.00  0.00    +0.000 C 
BRANCH  18  21
ATOM     20  C   UNL     1      25.563  25.215  30.391  0.00  0.00    +0.000 C 
ATOM     21  C   UNL     1      25.838  24.044  29.474  0.00  0.00    +0.000 C 
ENDBRANCH  18  21
ENDBRANCH   1  18
TORSDOF 3
ENDMDL
MODEL 2
REMARK VINA RESULT:      -6.5      2.779      4.244
REMARK  Name = 
REMARK  3 active torsions:
REMARK  status: ('A' for Active; 'I' for Inactive)
REMARK    1  A    between atoms: C_2  and  C_3
REMARK    2  A    between atoms: C_3  and  N_5
REMARK    3  A    between atoms: C_7  and  C_8
REMARK                            x       y       z     vdW  Elec       q    Type
REMARK                         _______ _______ _______ _____ _____    ______ ____
ROOT
ATOM      1  N   UNL     1      27.244  23.279  24.364  0.00  0.00    +0.000 N 
ATOM      2  C   UNL     1      27.154  23.763  23.160  0.00  0.00    +0.000 A 
ATOM      3  C   UNL     1      28.410  23.974  22.649  0.00  0.00    +0.000 A 
ATOM      4  C   UNL     1      29.281  23.576  23.647  0.00  0.00    +0.000 A 
ATOM      5  C   UNL     1      30.678  23.516  23.811  0.00  0.00    +0.000 A 
ATOM      6  C   UNL     1      31.338  23.071  24.920  0.00  0.00    +0.000 A 
ATOM      7  C   UNL     1      30.541  22.651  25.955  0.00  0.00    +0.000 A 
ATOM      8  C   UNL     1      29.164  22.674  25.882  0.00  0.00    +0.000 A 
ATOM      9  C   UNL     1      28.529  23.129  24.748  0.00  0.00    +0.000 A 
ENDROOT
BRANCH   3  10
ATOM     10  C   UNL     1      29.040  24.447  21.484  0.00  0.00    +0.000 C 
ATOM     11  C   UNL     1      29.281  25.574  20.985  0.00  0.00    +0.000 C 
ATOM     12  N   UNL     1      29.947  25.875  19.763  0.00  0.00    +0.000 NA
ATOM     13  C   UNL     1      29.957  27.294  19.664  0.00  0.00    +0.000 C 
ATOM     14  O   UNL     1      30.471  27.939  18.700  0.00  0.00    +0.000 OA
ATOM     15  N   UNL     1      29.303  27.825  20.815  0.00  0.00    +0.000 NA
ATOM     16  C   UNL     1      28.857  26.752  21.681  0.00  0.00    +0.000 C 
ATOM     17  O   UNL     1      28.251  26.811  22.773  0.00  0.00    +0.000 OA
ENDBRANCH   3  10
BRANCH   1  18
ATOM     18  C   UNL     1      26.094  22.907  25.332  0.00  0.00    +0.000 C 
ATOM     19  C   UNL     1      24.907  23.115  24.217  0.00  0.00    +0.000 C 
BRANCH  18  21
ATOM     20  C   UNL     1      25.742  24.083  27.418  0.00  0.00    +0.000 C 
ATOM     21  C   UNL     1      25.898  24.412  25.949  0.00  0.00    +0.000 C 
ENDBRANCH  18  21
ENDBRANCH   1  18
TORSDOF 3
ENDMDL
MODEL 3
REMARK VINA RESULT:      -6.3     17.881     21.067
REMARK  Name = 
REMARK  3 active torsions:
REMARK  status: ('A' for Active; 'I' for Inactive)
REMARK    1  A    between atoms: C_2  and  C_3
REMARK    2  A    between atoms: C_3  and  N_5
REMARK    3  A    between atoms: C_7  and  C_8
REMARK                            x       y       z     vdW  Elec       q    Type
REMARK                         _______ _______ _______ _____ _____    ______ ____
ROOT
ATOM      1  N   UNL     1      16.545   9.617  40.027  0.00  0.00    +0.000 N 
ATOM      2  C   UNL     1      17.752   9.186  39.809  0.00  0.00    +0.000 A 
ATOM      3  C   UNL     1      18.153   9.547  38.547  0.00  0.00    +0.000 A 
ATOM      4  C   UNL     1      17.083  10.238  38.008  0.00  0.00    +0.000 A 
ATOM      5  C   UNL     1      16.799  10.876  36.786  0.00  0.00    +0.000 A 
ATOM      6  C   UNL     1      15.635  11.517  36.466  0.00  0.00    +0.000 A 
ATOM      7  C   UNL     1      14.673  11.520  37.444  0.00  0.00    +0.000 A 
ATOM      8  C   UNL     1      14.865  10.918  38.670  0.00  0.00    +0.000 A 
ATOM      9  C   UNL     1      16.050  10.282  38.961  0.00  0.00    +0.000 A 
ENDROOT
BRANCH   3  10
ATOM     10  C   UNL     1      19.261   9.430  37.687  0.00  0.00    +0.000 C 
ATOM     11  C   UNL     1      20.365  10.013  37.557  0.00  0.00    +0.000 C 
ATOM     12  N   UNL     1      21.392   9.757  36.606  0.00  0.00    +0.000 NA
ATOM     13  C   UNL     1      22.427  10.692  36.888  0.00  0.00    +0.000 C 
ATOM     14  O   UNL     1      23.516  10.768  36.243  0.00  0.00    +0.000 OA
ATOM     15  N   UNL     1      22.013  11.492  37.995  0.00  0.00    +0.000 NA
ATOM     16  C   UNL     1      20.698  11.084  38.447  0.00  0.00    +0.000 C 
ATOM     17  O   UNL     1      20.004  11.538  39.382  0.00  0.00    +0.000 OA
ENDBRANCH   3  10
BRANCH   1  18
ATOM     18  C   UNL     1      15.680   9.429  41.297  0.00  0.00    +0.000 C 
ATOM     19  C   UNL     1      16.923   9.662  42.343  0.00  0.00    +0.000 C 
BRANCH  18  21
ATOM     20  C   UNL     1      15.889   7.589  42.855  0.00  0.00    +0.000 C 
ATOM     21  C   UNL     1      15.818   7.798  41.358  0.00  0.00    +0.000 C 
ENDBRANCH  18  21
ENDBRANCH   1  18
TORSDOF 3
ENDMDL
MODEL 4
REMARK VINA RESULT:      -6.1     32.433     34.179
REMARK  Name = 
REMARK  3 active torsions:
REMARK  status: ('A' for Active; 'I' for Inactive)
REMARK    1  A    between atoms: C_2  and  C_3
REMARK    2  A    between atoms: C_3  and  N_5
REMARK    3  A    between atoms: C_7  and  C_8
REMARK                            x       y       z     vdW  Elec       q    Type
REMARK                         _______ _______ _______ _____ _____    ______ ____
ROOT
ATOM      1  N   UNL     1      20.668  -8.630  26.042  0.00  0.00    +0.000 N 
ATOM      2  C   UNL     1      20.112  -9.565  26.754  0.00  0.00    +0.000 A 
ATOM      3  C   UNL     1      19.044  -9.050  27.446  0.00  0.00    +0.000 A 
ATOM      4  C   UNL     1      18.995  -7.713  27.095  0.00  0.00    +0.000 A 
ATOM      5  C   UNL     1      18.182  -6.609  27.416  0.00  0.00    +0.000 A 
ATOM      6  C   UNL     1      18.324  -5.339  26.932  0.00  0.00    +0.000 A 
ATOM      7  C   UNL     1      19.363  -5.152  26.056  0.00  0.00    +0.000 A 
ATOM      8  C   UNL     1      20.210  -6.176  25.687  0.00  0.00    +0.000 A 
ATOM      9  C   UNL     1      20.039  -7.445  26.192  0.00  0.00    +0.000 A 
ENDROOT
BRANCH   3  10
ATOM     10  C   UNL     1      18.046  -9.450  28.352  0.00  0.00    +0.000 C 
ATOM     11  C   UNL     1      18.011  -9.801  29.557  0.00  0.00    +0.000 C 
ATOM     12  N   UNL     1      16.882 -10.182  30.334  0.00  0.00    +0.000 NA
ATOM     13  C   UNL     1      17.384 -10.486  31.630  0.00  0.00    +0.000 C 
ATOM     14  O   UNL     1      16.666 -10.865  32.604  0.00  0.00    +0.000 OA
ATOM     15  N   UNL     1      18.797 -10.286  31.617  0.00  0.00    +0.000 NA
ATOM     16  C   UNL     1      19.232  -9.849  30.306  0.00  0.00    +0.000 C 
ATOM     17  O   UNL     1      20.381  -9.573  29.901  0.00  0.00    +0.000 OA
ENDBRANCH   3  10
BRANCH   1  18
ATOM     18  C   UNL     1      21.909  -8.742  25.123  0.00  0.00    +0.000 C 
ATOM     19  C   UNL     1      21.219  -9.818  24.094  0.00  0.00    +0.000 C 
BRANCH  18  21
ATOM     20  C   UNL     1      23.966 -10.013  25.235  0.00  0.00    +0.000 C 
ATOM     21  C   UNL     1      22.657  -9.914  25.988  0.00  0.00    +0.000 C 
ENDBRANCH  18  21
ENDBRANCH   1  18
TORSDOF 3
ENDMDL
MODEL 5
REMARK VINA RESULT:      -6.1      2.259      3.316
REMARK  Name = 
REMARK  3 active torsions:
REMARK  status: ('A' for Active; 'I' for Inactive)
REMARK    1  A    between atoms: C_2  and  C_3
REMARK    2  A    between atoms: C_3  and  N_5
REMARK    3  A    between atoms: C_7  and  C_8
REMARK                            x       y       z     vdW  Elec       q    Type
REMARK                         _______ _______ _______ _____ _____    ______ ____
ROOT
ATOM      1  N   UNL     1      25.021  25.033  27.221  0.00  0.00    +0.000 N 
ATOM      2  C   UNL     1      25.096  25.115  25.925  0.00  0.00    +0.000 A 
ATOM      3  C   UNL     1      26.039  24.235  25.457  0.00  0.00    +0.000 A 
ATOM      4  C   UNL     1      26.538  23.604  26.582  0.00  0.00    +0.000 A 
ATOM      5  C   UNL     1      27.504  22.614  26.846  0.00  0.00    +0.000 A 
ATOM      6  C   UNL     1      27.841  22.129  28.078  0.00  0.00    +0.000 A 
ATOM      7  C   UNL     1      27.161  22.676  29.136  0.00  0.00    +0.000 A 
ATOM      8  C   UNL     1      26.199  23.651  28.971  0.00  0.00    +0.000 A 
ATOM      9  C   UNL     1      25.882  24.117  27.715  0.00  0.00    +0.000 A 
ENDROOT
BRANCH   3  10
ATOM     10  C   UNL     1      26.617  23.809  24.248  0.00  0.00    +0.000 C 
ATOM     11  C   UNL     1      27.545  24.210  23.503  0.00  0.00    +0.000 C 
ATOM     12  N   UNL     1      28.008  23.640  22.284  0.00  0.00    +0.000 NA
ATOM     13  C   UNL     1      29.071  24.474  21.842  0.00  0.00    +0.000 C 
ATOM     14  O   UNL     1      29.737  24.282  20.779  0.00  0.00    +0.000 OA
ATOM     15  N   UNL     1      29.234  25.527  22.791  0.00  0.00    +0.000 NA
ATOM     16  C   UNL     1      28.273  25.388  23.867  0.00  0.00    +0.000 C 
ATOM     17  O   UNL     1      28.101  26.105  24.876  0.00  0.00    +0.000 OA
ENDBRANCH   3  10
BRANCH   1  18
ATOM     18  C   UNL     1      24.116  25.846  28.178  0.00  0.00    +0.000 C 
ATOM     19  C   UNL     1      22.941  26.108  27.062  0.00  0.00    +0.000 C 
BRANCH  18  21
ATOM     20  C   UNL     1      25.539  27.505  29.217  0.00  0.00    +0.000 C 
ATOM     21  C   UNL     1      24.828  27.294  27.898  0.00  0.00    +0.000 C 
ENDBRANCH  18  21
ENDBRANCH   1  18
TORSDOF 3
ENDMDL
MODEL 6
REMARK VINA RESULT:      -6.0      3.280      5.090
REMARK  Name = 
REMARK  3 active torsions:
REMARK  status: ('A' for Active; 'I' for Inactive)
REMARK    1  A    between atoms: C_2  and  C_3
REMARK    2  A    between atoms: C_3  and  N_5
REMARK    3  A    between atoms: C_7  and  C_8
REMARK                            x       y       z     vdW  Elec       q    Type
REMARK                         _______ _______ _______ _____ _____    ______ ____
ROOT
ATOM      1  N   UNL     1      32.435  25.182  25.712  0.00  0.00    +0.000 N 
ATOM      2  C   UNL     1      31.801  25.168  24.577  0.00  0.00    +0.000 A 
ATOM      3  C   UNL     1      30.928  24.109  24.545  0.00  0.00    +0.000 A 
ATOM      4  C   UNL     1      31.083  23.473  25.764  0.00  0.00    +0.000 A 
ATOM      5  C   UNL     1      30.524  22.348  26.400  0.00  0.00    +0.000 A 
ATOM      6  C   UNL     1      30.838  21.892  27.649  0.00  0.00    +0.000 A 
ATOM      7  C   UNL     1      31.791  22.616  28.320  0.00  0.00    +0.000 A 
ATOM      8  C   UNL     1      32.392  23.731  27.774  0.00  0.00    +0.000 A 
ATOM      9  C   UNL     1      32.051  24.165  26.513  0.00  0.00    +0.000 A 
ENDROOT
BRANCH   3  10
ATOM     10  C   UNL     1      29.981  23.511  23.695  0.00  0.00    +0.000 C 
ATOM     11  C   UNL     1      28.762  23.679  23.445  0.00  0.00    +0.000 C 
ATOM     12  N   UNL     1      27.940  22.964  22.530  0.00  0.00    +0.000 NA
ATOM     13  C   UNL     1      26.647  23.546  22.629  0.00  0.00    +0.000 C 
ATOM     14  O   UNL     1      25.640  23.168  21.956  0.00  0.00    +0.000 OA
ATOM     15  N   UNL     1      26.704  24.595  23.594  0.00  0.00    +0.000 NA
ATOM     16  C   UNL     1      28.043  24.707  24.137  0.00  0.00    +0.000 C 
ATOM     17  O   UNL     1      28.488  25.498  24.996  0.00  0.00    +0.000 OA
ENDBRANCH   3  10
BRANCH   1  18
ATOM     18  C   UNL     1      33.525  26.175  26.184  0.00  0.00    +0.000 C 
ATOM     19  C   UNL     1      32.720  27.511  25.674  0.00  0.00    +0.000 C 
BRANCH  18  21
ATOM     20  C   UNL     1      35.426  25.026  25.224  0.00  0.00    +0.000 C 
ATOM     21  C   UNL     1      34.431  26.093  24.822  0.00  0.00    +0.000 C 
ENDBRANCH  18  21
ENDBRANCH   1  18
TORSDOF 3
ENDMDL
MODEL 7
REMARK VINA RESULT:      -6.0      2.652      3.772
REMARK  Name = 
REMARK  3 active torsions:
REMARK  status: ('A' for Active; 'I' for Inactive)
REMARK    1  A    between atoms: C_2  and  C_3
REMARK    2  A    between atoms: C_3  and  N_5
REMARK    3  A    between atoms: C_7  and  C_8
REMARK                            x       y       z     vdW  Elec       q    Type
REMARK                         _______ _______ _______ _____ _____    ______ ____
ROOT
ATOM      1  N   UNL     1      31.748  23.111  27.918  0.00  0.00    +0.000 N 
ATOM      2  C   UNL     1      30.768  22.542  27.280  0.00  0.00    +0.000 A 
ATOM      3  C   UNL     1      30.803  22.903  25.956  0.00  0.00    +0.000 A 
ATOM      4  C   UNL     1      31.893  23.746  25.838  0.00  0.00    +0.000 A 
ATOM      5  C   UNL     1      32.508  24.469  24.798  0.00  0.00    +0.000 A 
ATOM      6  C   UNL     1      33.614  25.262  24.916  0.00  0.00    +0.000 A 
ATOM      7  C   UNL     1      34.152  25.344  26.176  0.00  0.00    +0.000 A 
ATOM      8  C   UNL     1      33.614  24.671  27.253  0.00  0.00    +0.000 A 
ATOM      9  C   UNL     1      32.499  23.878  27.099  0.00  0.00    +0.000 A 
ENDROOT
BRANCH   3  10
ATOM     10  C   UNL     1      30.103  22.686  24.756  0.00  0.00    +0.000 C 
ATOM     11  C   UNL     1      29.072  23.158  24.217  0.00  0.00    +0.000 C 
ATOM     12  N   UNL     1      28.493  22.812  22.964  0.00  0.00    +0.000 NA
ATOM     13  C   UNL     1      27.342  23.637  22.825  0.00  0.00    +0.000 C 
ATOM     14  O   UNL     1      26.563  23.613  21.824  0.00  0.00    +0.000 OA
ATOM     15  N   UNL     1      27.244  24.461  23.985  0.00  0.00    +0.000 NA
ATOM     16  C   UNL     1      28.334  24.181  24.896  0.00  0.00    +0.000 C 
ATOM     17  O   UNL     1      28.592  24.691  26.008  0.00  0.00    +0.000 OA
ENDBRANCH   3  10
BRANCH   1  18
ATOM     18  C   UNL     1      32.091  23.013  29.425  0.00  0.00    +0.000 C 
ATOM     19  C   UNL     1      32.476  21.419  29.371  0.00  0.00    +0.000 C 
BRANCH  18  21
ATOM     20  C   UNL     1      30.840  22.026  31.246  0.00  0.00    +0.000 C 
ATOM     21  C   UNL     1      30.561  22.716  29.929  0.00  0.00    +0.000 C 
ENDBRANCH  18  21
ENDBRANCH   1  18
TORSDOF 3
ENDMDL
MODEL 8
REMARK VINA RESULT:      -5.9     22.099     23.656
REMARK  Name = 
REMARK  3 active torsions:
REMARK  status: ('A' for Active; 'I' for Inactive)
REMARK    1  A    between atoms: C_2  and  C_3
REMARK    2  A    between atoms: C_3  and  N_5
REMARK    3  A    between atoms: C_7  and  C_8
REMARK                            x       y       z     vdW  Elec       q    Type
REMARK                         _______ _______ _______ _____ _____    ______ ____
ROOT
ATOM      1  N   UNL     1      25.962   4.274  17.299  0.00  0.00    +0.000 N 
ATOM      2  C   UNL     1      24.732   4.492  17.661  0.00  0.00    +0.000 A 
ATOM      3  C   UNL     1      24.061   3.300  17.771  0.00  0.00    +0.000 A 
ATOM      4  C   UNL     1      24.990   2.328  17.445  0.00  0.00    +0.000 A 
ATOM      5  C   UNL     1      24.998   0.923  17.348  0.00  0.00    +0.000 A 
ATOM      6  C   UNL     1      26.066   0.149  16.997  0.00  0.00    +0.000 A 
ATOM      7  C   UNL     1      27.224   0.829  16.716  0.00  0.00    +0.000 A 
ATOM      8  C   UNL     1      27.307   2.204  16.784  0.00  0.00    +0.000 A 
ATOM      9  C   UNL     1      26.211   2.956  17.143  0.00  0.00    +0.000 A 
ENDROOT
BRANCH   3  10
ATOM     10  C   UNL     1      22.787   2.800  18.096  0.00  0.00    +0.000 C 
ATOM     11  C   UNL     1      21.747   2.503  17.459  0.00  0.00    +0.000 C 
ATOM     12  N   UNL     1      20.516   1.996  17.963  0.00  0.00    +0.000 NA
ATOM     13  C   UNL     1      19.670   1.830  16.832  0.00  0.00    +0.000 C 
ATOM     14  O   UNL     1      18.480   1.393  16.887  0.00  0.00    +0.000 OA
ATOM     15  N   UNL     1      20.394   2.236  15.671  0.00  0.00    +0.000 NA
ATOM     16  C   UNL     1      21.727   2.673  16.036  0.00  0.00    +0.000 C 
ATOM     17  O   UNL     1      22.651   3.097  15.310  0.00  0.00    +0.000 OA
ENDBRANCH   3  10
BRANCH   1  18
ATOM     18  C   UNL     1      27.077   5.314  17.032  0.00  0.00    +0.000 C 
ATOM     19  C   UNL     1      27.309   5.673  18.616  0.00  0.00    +0.000 C 
BRANCH  18  21
ATOM     20  C   UNL     1      26.361   6.898  15.349  0.00  0.00    +0.000 C 
ATOM     21  C   UNL     1      26.071   6.586  16.801  0.00  0.00    +0.000 C 
ENDBRANCH  18  21
ENDBRANCH   1  18
TORSDOF 3
ENDMDL
MODEL 9
REMARK VINA RESULT:      -5.9      1.233      3.694
REMARK  Name = 
REMARK  3 active torsions:
REMARK  status: ('A' for Active; 'I' for Inactive)
REMARK    1  A    between atoms: C_2  and  C_3
REMARK    2  A    between atoms: C_3  and  N_5
REMARK    3  A    between atoms: C_7  and  C_8
REMARK                            x       y       z     vdW  Elec       q    Type
REMARK                         _______ _______ _______ _____ _____    ______ ____
ROOT
ATOM      1  N   UNL     1      30.601  22.488  29.076  0.00  0.00    +0.000 N 
ATOM      2  C   UNL     1      30.977  22.296  27.846  0.00  0.00    +0.000 A 
ATOM      3  C   UNL     1      29.903  22.440  27.004  0.00  0.00    +0.000 A 
ATOM      4  C   UNL     1      28.832  22.739  27.828  0.00  0.00    +0.000 A 
ATOM      5  C   UNL     1      27.461  23.006  27.653  0.00  0.00    +0.000 A 
ATOM      6  C   UNL     1      26.564  23.285  28.644  0.00  0.00    +0.000 A 
ATOM      7  C   UNL     1      27.074  23.298  29.918  0.00  0.00    +0.000 A 
ATOM      8  C   UNL     1      28.405  23.047  30.182  0.00  0.00    +0.000 A 
ATOM      9  C   UNL     1      29.283  22.770  29.159  0.00  0.00    +0.000 A 
ENDROOT
BRANCH   3  10
ATOM     10  C   UNL     1      29.583  22.378  25.636  0.00  0.00    +0.000 C 
ATOM     11  C   UNL     1      29.671  23.156  24.655  0.00  0.00    +0.000 C 
ATOM     12  N   UNL     1      29.289  22.921  23.304  0.00  0.00    +0.000 NA
ATOM     13  C   UNL     1      29.598  24.116  22.597  0.00  0.00    +0.000 C 
ATOM     14  O   UNL     1      29.396  24.285  21.356  0.00  0.00    +0.000 OA
ATOM     15  N   UNL     1      30.157  25.047  23.522  0.00  0.00    +0.000 NA
ATOM     16  C   UNL     1      30.218  24.466  24.848  0.00  0.00    +0.000 C 
ATOM     17  O   UNL     1      30.640  24.962  25.915  0.00  0.00    +0.000 OA
ENDBRANCH   3  10
BRANCH   1  18
ATOM     18  C   UNL     1      31.462  22.408  30.361  0.00  0.00    +0.000 C 
ATOM     19  C   UNL     1      32.249  23.821  30.084  0.00  0.00    +0.000 C 
BRANCH  18  21
ATOM     20  C   UNL     1      33.531  21.286  30.924  0.00  0.00    +0.000 C 
ATOM     21  C   UNL     1      32.663  21.508  29.705  0.00  0.00    +0.000 C 
ENDBRANCH  18  21
ENDBRANCH   1  18
TORSDOF 3
ENDMDL
MODEL 10
REMARK VINA RESULT:      -5.8     31.973     33.335
REMARK  Name = 
REMARK  3 active torsions:
REMARK  status: ('A' for Active; 'I' for Inactive)
REMARK    1  A    between atoms: C_2  and  C_3
REMARK    2  A    between atoms: C_3  and  N_5
REMARK    3  A    between atoms: C_7  and  C_8
REMARK                            x       y       z     vdW  Elec       q    Type
REMARK                         _______ _______ _______ _____ _____    ______ ____
ROOT
ATOM      1  N   UNL     1      18.813  -8.986  27.269  0.00  0.00    +0.000 N 
ATOM      2  C   UNL     1      19.832  -9.588  26.730  0.00  0.00    +0.000 A 
ATOM      3  C   UNL     1      20.597  -8.679  26.042  0.00  0.00    +0.000 A 
ATOM      4  C   UNL     1      19.956  -7.465  26.207  0.00  0.00    +0.000 A 
ATOM      5  C   UNL     1      20.174  -6.138  25.788  0.00  0.00    +0.000 A 
ATOM      6  C   UNL     1      19.383  -5.064  26.082  0.00  0.00    +0.000 A 
ATOM      7  C   UNL     1      18.282  -5.333  26.856  0.00  0.00    +0.000 A 
ATOM      8  C   UNL     1      17.991  -6.602  27.310  0.00  0.00    +0.000 A 
ATOM      9  C   UNL     1      18.810  -7.664  26.996  0.00  0.00    +0.000 A 
ENDROOT
BRANCH   3  10
ATOM     10  C   UNL     1      21.768  -8.618  25.265  0.00  0.00    +0.000 C 
ATOM     11  C   UNL     1      22.061  -8.823  24.062  0.00  0.00    +0.000 C 
ATOM     12  N   UNL     1      23.332  -8.709  23.430  0.00  0.00    +0.000 NA
ATOM     13  C   UNL     1      23.122  -9.051  22.065  0.00  0.00    +0.000 C 
ATOM     14  O   UNL     1      24.033  -9.062  21.183  0.00  0.00    +0.000 OA
ATOM     15  N   UNL     1      21.740  -9.363  21.893  0.00  0.00    +0.000 NA
ATOM     16  C   UNL     1      21.033  -9.228  23.151  0.00  0.00    +0.000 C 
ATOM     17  O   UNL     1      19.823  -9.413  23.406  0.00  0.00    +0.000 OA
ENDBRANCH   3  10
BRANCH   1  18
ATOM     18  C   UNL     1      17.675  -9.608  28.114  0.00  0.00    +0.000 C 
ATOM     19  C   UNL     1      18.494  -9.513  29.533  0.00  0.00    +0.000 C 
BRANCH  18  21
ATOM     20  C   UNL     1      18.185 -11.658  29.296  0.00  0.00    +0.000 C 
ATOM     21  C   UNL     1      18.112 -11.168  27.866  0.00  0.00    +0.000 C 
ENDBRANCH  18  21
ENDBRANCH   1  18
TORSDOF 3
ENDMDL
