MODEL 1
REMARK VINA RESULT:      -6.0      0.000      0.000
REMARK  Name = 
REMARK  3 active torsions:
REMARK  status: ('A' for Active; 'I' for Inactive)
REMARK    1  A    between atoms: C_5  and  N_6
REMARK    2  A    between atoms: C_10  and  N_11
REMARK    3  A    between atoms: C_12  and  C_14
REMARK                            x       y       z     vdW  Elec       q    Type
REMARK                         _______ _______ _______ _____ _____    ______ ____
ROOT
ATOM      1  C   UNL     1      30.906  22.778  27.111  0.00  0.00    +0.000 C 
ATOM      2  C   UNL     1      29.710  22.785  27.955  0.00  0.00    +0.000 A 
ATOM      3  C   UNL     1      29.879  22.618  29.327  0.00  0.00    +0.000 A 
ATOM      4  C   UNL     1      28.783  22.619  30.148  0.00  0.00    +0.000 A 
ATOM      5  C   UNL     1      27.521  22.785  29.618  0.00  0.00    +0.000 A 
ATOM      6  C   UNL     1      27.379  22.952  28.233  0.00  0.00    +0.000 A 
ATOM      7  C   UNL     1      28.468  22.953  27.394  0.00  0.00    +0.000 A 
ENDROOT
BRANCH   5   8
ATOM      8  N   UNL     1      26.396  22.784  30.474  0.00  0.00    +0.000 N 
ATOM      9  O   UNL     1      25.875  23.825  30.907  0.00  0.00    +0.000 OA
ATOM     10  O   UNL     1      25.843  21.595  30.857  0.00  0.00    +0.000 OA
ENDBRANCH   5   8
BRANCH   7  11
ATOM     11  N   UNL     1      28.251  23.126  26.002  0.00  0.00    +0.000 NA
ATOM     12  C   UNL     1      28.256  24.368  25.348  0.00  0.00    +0.000 C 
ATOM     13  O   UNL     1      28.464  25.392  26.043  0.00  0.00    +0.000 OA
BRANCH  12  14
ATOM     14  C   UNL     1      28.015  24.395  23.886  0.00  0.00    +0.000 C 
ATOM     15  C   UNL     1      26.610  24.371  23.356  0.00  0.00    +0.000 C 
ATOM     16  C   UNL     1      26.418  23.442  22.174  0.00  0.00    +0.000 C 
ATOM     17  C   UNL     1      25.524  24.361  24.411  0.00  0.00    +0.000 C 
ATOM     18  C   UNL     1      27.460  25.584  23.214  0.00  0.00    +0.000 C 
ATOM     19  C   UNL     1      26.991  26.785  24.004  0.00  0.00    +0.000 C 
ATOM     20  C   UNL     1      28.061  25.950  21.872  0.00  0.00    +0.000 C 
ENDBRANCH  12  14
ENDBRANCH   7  11
TORSDOF 3
ENDMDL
MODEL 2
REMARK VINA RESULT:      -6.0     15.032     18.048
REMARK  Name = 
REMARK  3 active torsions:
REMARK  status: ('A' for Active; 'I' for Inactive)
REMARK    1  A    between atoms: C_5  and  N_6
REMARK    2  A    between atoms: C_10  and  N_11
REMARK    3  A    between atoms: C_12  and  C_14
REMARK                            x       y       z     vdW  Elec       q    Type
REMARK                         _______ _______ _______ _____ _____    ______ ____
ROOT
ATOM      1  C   UNL     1      33.346  20.285  10.620  0.00  0.00    +0.000 C 
ATOM      2  C   UNL     1      32.207  21.027  11.162  0.00  0.00    +0.000 A 
ATOM      3  C   UNL     1      32.013  21.008  12.541  0.00  0.00    +0.000 A 
ATOM      4  C   UNL     1      30.958  21.691  13.085  0.00  0.00    +0.000 A 
ATOM      5  C   UNL     1      30.093  22.390  12.271  0.00  0.00    +0.000 A 
ATOM      6  C   UNL     1      30.310  22.393  10.886  0.00  0.00    +0.000 A 
ATOM      7  C   UNL     1      31.364  21.714  10.323  0.00  0.00    +0.000 A 
ENDROOT
BRANCH   5   8
ATOM      8  N   UNL     1      29.006  23.091  12.843  0.00  0.00    +0.000 N 
ATOM      9  O   UNL     1      28.831  23.181  14.069  0.00  0.00    +0.000 OA
ATOM     10  O   UNL     1      28.095  23.701  12.028  0.00  0.00    +0.000 OA
ENDBRANCH   5   8
BRANCH   7  11
ATOM     11  N   UNL     1      31.524  21.758   8.913  0.00  0.00    +0.000 NA
ATOM     12  C   UNL     1      30.836  20.931   8.012  0.00  0.00    +0.000 C 
ATOM     13  O   UNL     1      30.028  20.096   8.487  0.00  0.00    +0.000 OA
BRANCH  12  14
ATOM     14  C   UNL     1      31.105  21.090   6.563  0.00  0.00    +0.000 C 
ATOM     15  C   UNL     1      31.990  20.109   5.851  0.00  0.00    +0.000 C 
ATOM     16  C   UNL     1      32.976  20.753   4.898  0.00  0.00    +0.000 C 
ATOM     17  C   UNL     1      32.514  18.975   6.707  0.00  0.00    +0.000 C 
ATOM     18  C   UNL     1      30.531  20.173   5.562  0.00  0.00    +0.000 C 
ATOM     19  C   UNL     1      29.746  18.950   5.978  0.00  0.00    +0.000 C 
ATOM     20  C   UNL     1      30.028  20.797   4.276  0.00  0.00    +0.000 C 
ENDBRANCH  12  14
ENDBRANCH   7  11
TORSDOF 3
ENDMDL
MODEL 3
REMARK VINA RESULT:      -6.0     31.683     32.731
REMARK  Name = 
REMARK  3 active torsions:
REMARK  status: ('A' for Active; 'I' for Inactive)
REMARK    1  A    between atoms: C_5  and  N_6
REMARK    2  A    between atoms: C_10  and  N_11
REMARK    3  A    between atoms: C_12  and  C_14
REMARK                            x       y       z     vdW  Elec       q    Type
REMARK                         _______ _______ _______ _____ _____    ______ ____
ROOT
ATOM      1  C   UNL     1      21.345 -10.686  27.269  0.00  0.00    +0.000 C 
ATOM      2  C   UNL     1      20.475  -9.517  27.131  0.00  0.00    +0.000 A 
ATOM      3  C   UNL     1      19.284  -9.502  27.852  0.00  0.00    +0.000 A 
ATOM      4  C   UNL     1      18.444  -8.424  27.748  0.00  0.00    +0.000 A 
ATOM      5  C   UNL     1      18.778  -7.363  26.934  0.00  0.00    +0.000 A 
ATOM      6  C   UNL     1      19.983  -7.403  26.219  0.00  0.00    +0.000 A 
ATOM      7  C   UNL     1      20.838  -8.476  26.311  0.00  0.00    +0.000 A 
ENDROOT
BRANCH   5   8
ATOM      8  N   UNL     1      17.904  -6.256  26.834  0.00  0.00    +0.000 N 
ATOM      9  O   UNL     1      16.708  -6.308  27.165  0.00  0.00    +0.000 OA
ATOM     10  O   UNL     1      18.374  -5.069  26.351  0.00  0.00    +0.000 OA
ENDBRANCH   5   8
BRANCH   7  11
ATOM     11  N   UNL     1      22.041  -8.451  25.558  0.00  0.00    +0.000 NA
ATOM     12  C   UNL     1      22.169  -8.954  24.254  0.00  0.00    +0.000 C 
ATOM     13  O   UNL     1      21.151  -9.459  23.721  0.00  0.00    +0.000 OA
BRANCH  12  14
ATOM     14  C   UNL     1      23.490  -8.859  23.590  0.00  0.00    +0.000 C 
ATOM     15  C   UNL     1      23.594  -8.298  22.201  0.00  0.00    +0.000 C 
ATOM     16  C   UNL     1      24.515  -9.085  21.290  0.00  0.00    +0.000 C 
ATOM     17  C   UNL     1      22.288  -7.823  21.599  0.00  0.00    +0.000 C 
ATOM     18  C   UNL     1      24.155  -7.563  23.367  0.00  0.00    +0.000 C 
ATOM     19  C   UNL     1      23.461  -6.259  23.689  0.00  0.00    +0.000 C 
ATOM     20  C   UNL     1      25.652  -7.516  23.599  0.00  0.00    +0.000 C 
ENDBRANCH  12  14
ENDBRANCH   7  11
TORSDOF 3
ENDMDL
MODEL 4
REMARK VINA RESULT:      -5.9     31.676     32.728
REMARK  Name = 
REMARK  3 active torsions:
REMARK  status: ('A' for Active; 'I' for Inactive)
REMARK    1  A    between atoms: C_5  and  N_6
REMARK    2  A    between atoms: C_10  and  N_11
REMARK    3  A    between atoms: C_12  and  C_14
REMARK                            x       y       z     vdW  Elec       q    Type
REMARK                         _______ _______ _______ _____ _____    ______ ____
ROOT
ATOM      1  C   UNL     1      21.492 -10.410  26.508  0.00  0.00    +0.000 C 
ATOM      2  C   UNL     1      20.549  -9.292  26.579  0.00  0.00    +0.000 A 
ATOM      3  C   UNL     1      19.659  -9.257  27.649  0.00  0.00    +0.000 A 
ATOM      4  C   UNL     1      18.763  -8.226  27.750  0.00  0.00    +0.000 A 
ATOM      5  C   UNL     1      18.744  -7.230  26.797  0.00  0.00    +0.000 A 
ATOM      6  C   UNL     1      19.651  -7.289  25.729  0.00  0.00    +0.000 A 
ATOM      7  C   UNL     1      20.557  -8.316  25.612  0.00  0.00    +0.000 A 
ENDROOT
BRANCH   5   8
ATOM      8  N   UNL     1      17.814  -6.171  26.910  0.00  0.00    +0.000 N 
ATOM      9  O   UNL     1      16.639  -6.340  27.275  0.00  0.00    +0.000 OA
ATOM     10  O   UNL     1      18.205  -4.898  26.606  0.00  0.00    +0.000 OA
ENDBRANCH   5   8
BRANCH   7  11
ATOM     11  N   UNL     1      21.446  -8.314  24.506  0.00  0.00    +0.000 NA
ATOM     12  C   UNL     1      22.610  -7.534  24.428  0.00  0.00    +0.000 C 
ATOM     13  O   UNL     1      22.880  -6.789  25.401  0.00  0.00    +0.000 OA
BRANCH  12  14
ATOM     14  C   UNL     1      23.445  -7.635  23.207  0.00  0.00    +0.000 C 
ATOM     15  C   UNL     1      24.604  -8.589  23.167  0.00  0.00    +0.000 C 
ATOM     16  C   UNL     1      25.855  -8.006  22.542  0.00  0.00    +0.000 C 
ATOM     17  C   UNL     1      24.794  -9.424  24.416  0.00  0.00    +0.000 C 
ATOM     18  C   UNL     1      23.395  -8.818  22.329  0.00  0.00    +0.000 C 
ATOM     19  C   UNL     1      22.585 -10.038  22.702  0.00  0.00    +0.000 C 
ATOM     20  C   UNL     1      23.434  -8.560  20.836  0.00  0.00    +0.000 C 
ENDBRANCH  12  14
ENDBRANCH   7  11
TORSDOF 3
ENDMDL
MODEL 5
REMARK VINA RESULT:      -5.9      2.730      6.530
REMARK  Name = 
REMARK  3 active torsions:
REMARK  status: ('A' for Active; 'I' for Inactive)
REMARK    1  A    between atoms: C_5  and  N_6
REMARK    2  A    between atoms: C_10  and  N_11
REMARK    3  A    between atoms: C_12  and  C_14
REMARK                            x       y       z     vdW  Elec       q    Type
REMARK                         _______ _______ _______ _____ _____    ______ ____
ROOT
ATOM      1  C   UNL     1      31.698  23.786  24.430  0.00  0.00    +0.000 C 
ATOM      2  C   UNL     1      30.265  23.646  24.166  0.00  0.00    +0.000 A 
ATOM      3  C   UNL     1      29.769  24.163  22.972  0.00  0.00    +0.000 A 
ATOM      4  C   UNL     1      28.433  24.050  22.690  0.00  0.00    +0.000 A 
ATOM      5  C   UNL     1      27.587  23.429  23.584  0.00  0.00    +0.000 A 
ATOM      6  C   UNL     1      28.113  22.917  24.779  0.00  0.00    +0.000 A 
ATOM      7  C   UNL     1      29.450  23.021  25.078  0.00  0.00    +0.000 A 
ENDROOT
BRANCH   5   8
ATOM      8  N   UNL     1      26.210  23.319  23.284  0.00  0.00    +0.000 N 
ATOM      9  O   UNL     1      25.787  23.019  22.155  0.00  0.00    +0.000 OA
ATOM     10  O   UNL     1      25.287  23.549  24.264  0.00  0.00    +0.000 OA
ENDBRANCH   5   8
BRANCH   7  11
ATOM     11  N   UNL     1      29.915  22.482  26.306  0.00  0.00    +0.000 NA
ATOM     12  C   UNL     1      29.849  23.149  27.539  0.00  0.00    +0.000 C 
ATOM     13  O   UNL     1      29.347  24.299  27.554  0.00  0.00    +0.000 OA
BRANCH  12  14
ATOM     14  C   UNL     1      30.374  22.460  28.742  0.00  0.00    +0.000 C 
ATOM     15  C   UNL     1      31.815  22.622  29.131  0.00  0.00    +0.000 C 
ATOM     16  C   UNL     1      32.485  21.330  29.553  0.00  0.00    +0.000 C 
ATOM     17  C   UNL     1      32.622  23.548  28.245  0.00  0.00    +0.000 C 
ATOM     18  C   UNL     1      30.726  23.200  29.967  0.00  0.00    +0.000 C 
ATOM     19  C   UNL     1      30.691  24.710  30.009  0.00  0.00    +0.000 C 
ATOM     20  C   UNL     1      30.344  22.556  31.284  0.00  0.00    +0.000 C 
ENDBRANCH  12  14
ENDBRANCH   7  11
TORSDOF 3
ENDMDL
MODEL 6
REMARK VINA RESULT:      -5.7      2.386      6.696
REMARK  Name = 
REMARK  3 active torsions:
REMARK  status: ('A' for Active; 'I' for Inactive)
REMARK    1  A    between atoms: C_5  and  N_6
REMARK    2  A    between atoms: C_10  and  N_11
REMARK    3  A    between atoms: C_12  and  C_14
REMARK                            x       y       z     vdW  Elec       q    Type
REMARK                         _______ _______ _______ _____ _____    ______ ____
ROOT
ATOM      1  C   UNL     1      26.722  26.544  27.006  0.00  0.00    +0.000 C 
ATOM      2  C   UNL     1      26.761  25.756  25.773  0.00  0.00    +0.000 A 
ATOM      3  C   UNL     1      26.705  26.439  24.561  0.00  0.00    +0.000 A 
ATOM      4  C   UNL     1      26.740  25.736  23.386  0.00  0.00    +0.000 A 
ATOM      5  C   UNL     1      26.829  24.361  23.405  0.00  0.00    +0.000 A 
ATOM      6  C   UNL     1      26.884  23.697  24.639  0.00  0.00    +0.000 A 
ATOM      7  C   UNL     1      26.851  24.387  25.828  0.00  0.00    +0.000 A 
ENDROOT
BRANCH   5   8
ATOM      8  N   UNL     1      26.864  23.644  22.187  0.00  0.00    +0.000 N 
ATOM      9  O   UNL     1      25.843  23.206  21.632  0.00  0.00    +0.000 OA
ATOM     10  O   UNL     1      28.063  23.412  21.576  0.00  0.00    +0.000 OA
ENDBRANCH   5   8
BRANCH   7  11
ATOM     11  N   UNL     1      26.909  23.651  27.040  0.00  0.00    +0.000 NA
ATOM     12  C   UNL     1      28.100  23.265  27.675  0.00  0.00    +0.000 C 
ATOM     13  O   UNL     1      29.183  23.592  27.132  0.00  0.00    +0.000 OA
BRANCH  12  14
ATOM     14  C   UNL     1      28.007  22.499  28.940  0.00  0.00    +0.000 C 
ATOM     15  C   UNL     1      28.342  23.161  30.246  0.00  0.00    +0.000 C 
ATOM     16  C   UNL     1      29.182  22.304  31.170  0.00  0.00    +0.000 C 
ATOM     17  C   UNL     1      28.718  24.625  30.147  0.00  0.00    +0.000 C 
ATOM     18  C   UNL     1      26.944  22.758  29.928  0.00  0.00    +0.000 C 
ATOM     19  C   UNL     1      25.975  23.906  29.755  0.00  0.00    +0.000 C 
ATOM     20  C   UNL     1      26.323  21.546  30.593  0.00  0.00    +0.000 C 
ENDBRANCH  12  14
ENDBRANCH   7  11
TORSDOF 3
ENDMDL
MODEL 7
REMARK VINA RESULT:      -5.7     21.210     22.818
REMARK  Name = 
REMARK  3 active torsions:
REMARK  status: ('A' for Active; 'I' for Inactive)
REMARK    1  A    between atoms: C_5  and  N_6
REMARK    2  A    between atoms: C_10  and  N_11
REMARK    3  A    between atoms: C_12  and  C_14
REMARK                            x       y       z     vdW  Elec       q    Type
REMARK                         _______ _______ _______ _____ _____    ______ ____
ROOT
ATOM      1  C   UNL     1      25.381   0.328  17.004  0.00  0.00    +0.000 C 
ATOM      2  C   UNL     1      24.102   0.977  17.296  0.00  0.00    +0.000 A 
ATOM      3  C   UNL     1      22.934   0.287  16.983  0.00  0.00    +0.000 A 
ATOM      4  C   UNL     1      21.718   0.862  17.242  0.00  0.00    +0.000 A 
ATOM      5  C   UNL     1      21.653   2.117  17.809  0.00  0.00    +0.000 A 
ATOM      6  C   UNL     1      22.844   2.791  18.114  0.00  0.00    +0.000 A 
ATOM      7  C   UNL     1      24.073   2.229  17.861  0.00  0.00    +0.000 A 
ENDROOT
BRANCH   5   8
ATOM      8  N   UNL     1      20.393   2.702  18.071  0.00  0.00    +0.000 N 
ATOM      9  O   UNL     1      20.263   3.824  18.588  0.00  0.00    +0.000 OA
ATOM     10  O   UNL     1      19.254   2.018  17.752  0.00  0.00    +0.000 OA
ENDBRANCH   5   8
BRANCH   7  11
ATOM     11  N   UNL     1      25.238   2.968  18.195  0.00  0.00    +0.000 NA
ATOM     12  C   UNL     1      25.474   4.294  17.801  0.00  0.00    +0.000 C 
ATOM     13  O   UNL     1      24.595   4.862  17.107  0.00  0.00    +0.000 OA
BRANCH  12  14
ATOM     14  C   UNL     1      26.738   4.940  18.225  0.00  0.00    +0.000 C 
ATOM     15  C   UNL     1      27.841   5.157  17.229  0.00  0.00    +0.000 C 
ATOM     16  C   UNL     1      29.220   4.817  17.758  0.00  0.00    +0.000 C 
ATOM     17  C   UNL     1      27.529   4.714  15.815  0.00  0.00    +0.000 C 
ATOM     18  C   UNL     1      27.090   6.307  17.802  0.00  0.00    +0.000 C 
ATOM     19  C   UNL     1      26.237   7.066  16.811  0.00  0.00    +0.000 C 
ATOM     20  C   UNL     1      27.730   7.200  18.846  0.00  0.00    +0.000 C 
ENDBRANCH  12  14
ENDBRANCH   7  11
TORSDOF 3
ENDMDL
MODEL 8
REMARK VINA RESULT:      -5.6      2.547      6.150
REMARK  Name = 
REMARK  3 active torsions:
REMARK  status: ('A' for Active; 'I' for Inactive)
REMARK    1  A    between atoms: C_5  and  N_6
REMARK    2  A    between atoms: C_10  and  N_11
REMARK    3  A    between atoms: C_12  and  C_14
REMARK                            x       y       z     vdW  Elec       q    Type
REMARK                         _______ _______ _______ _____ _____    ______ ____
ROOT
ATOM      1  C   UNL     1      31.026  22.878  25.531  0.00  0.00    +0.000 C 
ATOM      2  C   UNL     1      29.649  23.009  25.050  0.00  0.00    +0.000 A 
ATOM      3  C   UNL     1      29.441  23.058  23.674  0.00  0.00    +0.000 A 
ATOM      4  C   UNL     1      28.167  23.180  23.187  0.00  0.00    +0.000 A 
ATOM      5  C   UNL     1      27.098  23.254  24.055  0.00  0.00    +0.000 A 
ATOM      6  C   UNL     1      27.335  23.202  25.436  0.00  0.00    +0.000 A 
ATOM      7  C   UNL     1      28.607  23.080  25.942  0.00  0.00    +0.000 A 
ENDROOT
BRANCH   5   8
ATOM      8  N   UNL     1      25.787  23.380  23.542  0.00  0.00    +0.000 N 
ATOM      9  O   UNL     1      24.897  24.031  24.114  0.00  0.00    +0.000 OA
ATOM     10  O   UNL     1      25.463  22.766  22.366  0.00  0.00    +0.000 OA
ENDBRANCH   5   8
BRANCH   7  11
ATOM     11  N   UNL     1      28.775  23.034  27.351  0.00  0.00    +0.000 NA
ATOM     12  C   UNL     1      28.829  24.166  28.178  0.00  0.00    +0.000 C 
ATOM     13  O   UNL     1      28.723  25.293  27.634  0.00  0.00    +0.000 OA
BRANCH  12  14
ATOM     14  C   UNL     1      29.008  23.966  29.636  0.00  0.00    +0.000 C 
ATOM     15  C   UNL     1      27.881  24.272  30.580  0.00  0.00    +0.000 C 
ATOM     16  C   UNL     1      28.313  25.014  31.829  0.00  0.00    +0.000 C 
ATOM     17  C   UNL     1      26.599  24.737  29.923  0.00  0.00    +0.000 C 
ATOM     18  C   UNL     1      28.334  22.871  30.357  0.00  0.00    +0.000 C 
ATOM     19  C   UNL     1      27.326  21.981  29.666  0.00  0.00    +0.000 C 
ATOM     20  C   UNL     1      29.147  22.148  31.412  0.00  0.00    +0.000 C 
ENDBRANCH  12  14
ENDBRANCH   7  11
TORSDOF 3
ENDMDL
MODEL 9
REMARK VINA RESULT:      -5.6     23.528     26.232
REMARK  Name = 
REMARK  3 active torsions:
REMARK  status: ('A' for Active; 'I' for Inactive)
REMARK    1  A    between atoms: C_5  and  N_6
REMARK    2  A    between atoms: C_10  and  N_11
REMARK    3  A    between atoms: C_12  and  C_14
REMARK                            x       y       z     vdW  Elec       q    Type
REMARK                         _______ _______ _______ _____ _____    ______ ____
ROOT
ATOM      1  C   UNL     1      34.129   0.139  32.709  0.00  0.00    +0.000 C 
ATOM      2  C   UNL     1      33.943   1.367  33.485  0.00  0.00    +0.000 A 
ATOM      3  C   UNL     1      33.803   2.564  32.788  0.00  0.00    +0.000 A 
ATOM      4  C   UNL     1      33.626   3.733  33.480  0.00  0.00    +0.000 A 
ATOM      5  C   UNL     1      33.588   3.722  34.858  0.00  0.00    +0.000 A 
ATOM      6  C   UNL     1      33.732   2.503  35.536  0.00  0.00    +0.000 A 
ATOM      7  C   UNL     1      33.910   1.320  34.857  0.00  0.00    +0.000 A 
ENDROOT
BRANCH   5   8
ATOM      8  N   UNL     1      33.406   4.934  35.562  0.00  0.00    +0.000 N 
ATOM      9  O   UNL     1      33.223   4.981  36.790  0.00  0.00    +0.000 OA
ATOM     10  O   UNL     1      33.428   6.118  34.881  0.00  0.00    +0.000 OA
ENDBRANCH   5   8
BRANCH   7  11
ATOM     11  N   UNL     1      34.050   0.123  35.607  0.00  0.00    +0.000 NA
ATOM     12  C   UNL     1      33.000  -0.767  35.878  0.00  0.00    +0.000 C 
ATOM     13  O   UNL     1      31.863  -0.484  35.429  0.00  0.00    +0.000 OA
BRANCH  12  14
ATOM     14  C   UNL     1      33.294  -1.982  36.676  0.00  0.00    +0.000 C 
ATOM     15  C   UNL     1      33.516  -3.297  35.986  0.00  0.00    +0.000 C 
ATOM     16  C   UNL     1      32.822  -4.465  36.658  0.00  0.00    +0.000 C 
ATOM     17  C   UNL     1      33.457  -3.250  34.474  0.00  0.00    +0.000 C 
ATOM     18  C   UNL     1      34.632  -2.600  36.682  0.00  0.00    +0.000 C 
ATOM     19  C   UNL     1      35.732  -2.099  35.774  0.00  0.00    +0.000 C 
ATOM     20  C   UNL     1      35.143  -3.105  38.016  0.00  0.00    +0.000 C 
ENDBRANCH  12  14
ENDBRANCH   7  11
TORSDOF 3
ENDMDL
MODEL 10
REMARK VINA RESULT:      -5.6     27.786     29.765
REMARK  Name = 
REMARK  3 active torsions:
REMARK  status: ('A' for Active; 'I' for Inactive)
REMARK    1  A    between atoms: C_5  and  N_6
REMARK    2  A    between atoms: C_10  and  N_11
REMARK    3  A    between atoms: C_12  and  C_14
REMARK                            x       y       z     vdW  Elec       q    Type
REMARK                         _______ _______ _______ _____ _____    ______ ____
ROOT
ATOM      1  C   UNL     1      31.846  -5.709  34.243  0.00  0.00    +0.000 C 
ATOM      2  C   UNL     1      32.345  -4.333  34.298  0.00  0.00    +0.000 A 
ATOM      3  C   UNL     1      31.999  -3.558  35.402  0.00  0.00    +0.000 A 
ATOM      4  C   UNL     1      32.447  -2.267  35.489  0.00  0.00    +0.000 A 
ATOM      5  C   UNL     1      33.235  -1.739  34.488  0.00  0.00    +0.000 A 
ATOM      6  C   UNL     1      33.570  -2.541  33.388  0.00  0.00    +0.000 A 
ATOM      7  C   UNL     1      33.129  -3.840  33.284  0.00  0.00    +0.000 A 
ENDROOT
BRANCH   5   8
ATOM      8  N   UNL     1      33.692  -0.405  34.587  0.00  0.00    +0.000 N 
ATOM      9  O   UNL     1      33.714   0.224  35.658  0.00  0.00    +0.000 OA
ATOM     10  O   UNL     1      34.132   0.240  33.466  0.00  0.00    +0.000 OA
ENDBRANCH   5   8
BRANCH   7  11
ATOM     11  N   UNL     1      33.505  -4.595  32.143  0.00  0.00    +0.000 NA
ATOM     12  C   UNL     1      34.571  -5.507  32.113  0.00  0.00    +0.000 C 
ATOM     13  O   UNL     1      35.235  -5.662  33.166  0.00  0.00    +0.000 OA
BRANCH  12  14
ATOM     14  C   UNL     1      34.847  -6.226  30.847  0.00  0.00    +0.000 C 
ATOM     15  C   UNL     1      34.307  -7.611  30.637  0.00  0.00    +0.000 C 
ATOM     16  C   UNL     1      35.303  -8.570  30.019  0.00  0.00    +0.000 C 
ATOM     17  C   UNL     1      33.458  -8.150  31.770  0.00  0.00    +0.000 C 
ATOM     18  C   UNL     1      33.794  -6.461  29.843  0.00  0.00    +0.000 C 
ATOM     19  C   UNL     1      32.353  -6.093  30.115  0.00  0.00    +0.000 C 
ATOM     20  C   UNL     1      34.189  -6.293  28.389  0.00  0.00    +0.000 C 
ENDBRANCH  12  14
ENDBRANCH   7  11
TORSDOF 3
ENDMDL
