MODEL 1
REMARK VINA RESULT:      -7.5      0.000      0.000
REMARK  Name = 
REMARK  8 active torsions:
REMARK  status: ('A' for Active; 'I' for Inactive)
REMARK    1  A    between atoms: C_2  and  C_4
REMARK    2  A    between atoms: C_7  and  C_8
REMARK    3  A    between atoms: C_8  and  C_10
REMARK    4  A    between atoms: C_10  and  O_12
REMARK    5  A    between atoms: O_12  and  C_13
REMARK    6  A    between atoms: C_16  and  N_17
REMARK    7  A    between atoms: C_18  and  C_20
REMARK    8  A    between atoms: C_27  and  C_28
REMARK                            x       y       z     vdW  Elec       q    Type
REMARK                         _______ _______ _______ _____ _____    ______ ____
ROOT
ATOM      1  C   UNL     1      36.121   2.979  16.156  0.00  0.00    +0.000 C 
ATOM      2  C   UNL     1      34.954   3.737  15.225  0.00  0.00    +0.000 C 
ENDROOT
BRANCH   1   3
ATOM      3  C   UNL     1      36.059   1.611  15.316  0.00  0.00    +0.000 C 
ATOM      4  O   UNL     1      35.188   1.730  14.449  0.00  0.00    +0.000 OA
BRANCH   3   8
ATOM      5  C   UNL     1      38.523  -1.727  16.241  0.00  0.00    +0.000 A 
ATOM      6  C   UNL     1      38.885  -0.852  15.240  0.00  0.00    +0.000 A 
ATOM      7  C   UNL     1      38.093   0.230  14.944  0.00  0.00    +0.000 A 
ATOM      8  C   UNL     1      36.904   0.519  15.608  0.00  0.00    +0.000 A 
ATOM      9  C   UNL     1      36.555  -0.363  16.607  0.00  0.00    +0.000 A 
ATOM     10  C   UNL     1      37.351  -1.458  16.911  0.00  0.00    +0.000 A 
BRANCH   5  12
ATOM     11  C   UNL     1      40.351  -3.192  15.427  0.00  0.00    +0.000 C 
ATOM     12  C   UNL     1      39.379  -2.908  16.569  0.00  0.00    +0.000 C 
ATOM     13  C   UNL     1      38.451  -4.107  16.636  0.00  0.00    +0.000 C 
ENDBRANCH   5  12
BRANCH   9  14
ATOM     14  C   UNL     1      35.312  -0.123  17.387  0.00  0.00    +0.000 C 
ATOM     15  C   UNL     1      34.476  -1.409  17.263  0.00  0.00    +0.000 C 
ATOM     16  C   UNL     1      35.649   0.115  18.852  0.00  0.00    +0.000 C 
ENDBRANCH   9  14
ENDBRANCH   3   8
ENDBRANCH   1   3
BRANCH   1  17
ATOM     17  O   UNL     1      37.285   3.641  15.394  0.00  0.00    +0.000 OA
BRANCH  17  18
ATOM     18  C   UNL     1      38.170   4.343  16.199  0.00  0.00    +0.000 A 
ATOM     19  C   UNL     1      38.067   4.323  17.575  0.00  0.00    +0.000 A 
ATOM     20  C   UNL     1      38.946   5.021  18.378  0.00  0.00    +0.000 A 
ATOM     21  C   UNL     1      39.970   5.775  17.852  0.00  0.00    +0.000 A 
ATOM     22  C   UNL     1      40.087   5.806  16.486  0.00  0.00    +0.000 A 
ATOM     23  C   UNL     1      39.199   5.102  15.697  0.00  0.00    +0.000 A 
BRANCH  21  24
ATOM     24  N   UNL     1      40.852   6.481  18.731  0.00  0.00    +0.000 NA
ATOM     25  C   UNL     1      40.642   7.826  19.111  0.00  0.00    +0.000 C 
ATOM     26  O   UNL     1      39.626   8.386  18.633  0.00  0.00    +0.000 OA
BRANCH  25  27
ATOM     27  C   UNL     1      41.555   8.545  20.015  0.00  0.00    +0.000 A 
ATOM     28  C   UNL     1      41.438   9.806  20.511  0.00  0.00    +0.000 A 
ATOM     29  C   UNL     1      42.537  10.031  21.311  0.00  0.00    +0.000 A 
ATOM     30  C   UNL     1      43.301   8.873  21.271  0.00  0.00    +0.000 A 
ATOM     31  O   UNL     1      42.668   8.047  20.495  0.00  0.00    +0.000 OA
ENDBRANCH  25  27
ENDBRANCH  21  24
ENDBRANCH  17  18
ENDBRANCH   1  17
TORSDOF 8
ENDMDL
MODEL 2
REMARK VINA RESULT:      -7.3      2.942      9.100
REMARK  Name = 
REMARK  8 active torsions:
REMARK  status: ('A' for Active; 'I' for Inactive)
REMARK    1  A    between atoms: C_2  and  C_4
REMARK    2  A    between atoms: C_7  and  C_8
REMARK    3  A    between atoms: C_8  and  C_10
REMARK    4  A    between atoms: C_10  and  O_12
REMARK    5  A    between atoms: O_12  and  C_13
REMARK    6  A    between atoms: C_16  and  N_17
REMARK    7  A    between atoms: C_18  and  C_20
REMARK    8  A    between atoms: C_27  and  C_28
REMARK                            x       y       z     vdW  Elec       q    Type
REMARK                         _______ _______ _______ _____ _____    ______ ____
ROOT
ATOM      1  C   UNL     1      41.039   5.841  15.206  0.00  0.00    +0.000 C 
ATOM      2  C   UNL     1      41.584   6.751  13.911  0.00  0.00    +0.000 C 
ENDROOT
BRANCH   1   3
ATOM      3  C   UNL     1      41.149   7.057  16.248  0.00  0.00    +0.000 C 
ATOM      4  O   UNL     1      40.670   8.065  15.717  0.00  0.00    +0.000 OA
BRANCH   3   8
ATOM      5  C   UNL     1      42.774   6.509  20.138  0.00  0.00    +0.000 A 
ATOM      6  C   UNL     1      43.600   6.800  19.075  0.00  0.00    +0.000 A 
ATOM      7  C   UNL     1      43.075   6.983  17.818  0.00  0.00    +0.000 A 
ATOM      8  C   UNL     1      41.717   6.893  17.529  0.00  0.00    +0.000 A 
ATOM      9  C   UNL     1      40.903   6.602  18.603  0.00  0.00    +0.000 A 
ATOM     10  C   UNL     1      41.426   6.416  19.873  0.00  0.00    +0.000 A 
BRANCH   5  12
ATOM     11  C   UNL     1      44.574   7.179  21.706  0.00  0.00    +0.000 C 
ATOM     12  C   UNL     1      43.336   6.308  21.508  0.00  0.00    +0.000 C 
ATOM     13  C   UNL     1      43.824   4.871  21.567  0.00  0.00    +0.000 C 
ENDBRANCH   5  12
BRANCH   9  14
ATOM     14  C   UNL     1      39.433   6.507  18.395  0.00  0.00    +0.000 C 
ATOM     15  C   UNL     1      39.068   5.027  18.604  0.00  0.00    +0.000 C 
ATOM     16  C   UNL     1      38.702   7.353  19.426  0.00  0.00    +0.000 C 
ENDBRANCH   9  14
ENDBRANCH   3   8
ENDBRANCH   1   3
BRANCH   1  17
ATOM     17  O   UNL     1      39.558   6.022  14.825  0.00  0.00    +0.000 OA
BRANCH  17  18
ATOM     18  C   UNL     1      38.799   4.865  14.912  0.00  0.00    +0.000 A 
ATOM     19  C   UNL     1      39.371   3.615  14.789  0.00  0.00    +0.000 A 
ATOM     20  C   UNL     1      38.617   2.462  14.875  0.00  0.00    +0.000 A 
ATOM     21  C   UNL     1      37.257   2.495  15.086  0.00  0.00    +0.000 A 
ATOM     22  C   UNL     1      36.673   3.730  15.210  0.00  0.00    +0.000 A 
ATOM     23  C   UNL     1      37.441   4.873  15.122  0.00  0.00    +0.000 A 
BRANCH  21  24
ATOM     24  N   UNL     1      36.524   1.268  15.165  0.00  0.00    +0.000 NA
ATOM     25  C   UNL     1      36.342   0.560  16.373  0.00  0.00    +0.000 C 
ATOM     26  O   UNL     1      36.862   1.065  17.397  0.00  0.00    +0.000 OA
BRANCH  25  27
ATOM     27  C   UNL     1      35.586  -0.702  16.445  0.00  0.00    +0.000 A 
ATOM     28  C   UNL     1      34.526  -1.011  17.239  0.00  0.00    +0.000 A 
ATOM     29  C   UNL     1      34.164  -2.308  16.946  0.00  0.00    +0.000 A 
ATOM     30  C   UNL     1      35.038  -2.752  15.963  0.00  0.00    +0.000 A 
ATOM     31  O   UNL     1      35.842  -1.762  15.719  0.00  0.00    +0.000 OA
ENDBRANCH  25  27
ENDBRANCH  21  24
ENDBRANCH  17  18
ENDBRANCH   1  17
TORSDOF 8
ENDMDL
MODEL 3
REMARK VINA RESULT:      -7.2      2.205      3.687
REMARK  Name = 
REMARK  8 active torsions:
REMARK  status: ('A' for Active; 'I' for Inactive)
REMARK    1  A    between atoms: C_2  and  C_4
REMARK    2  A    between atoms: C_7  and  C_8
REMARK    3  A    between atoms: C_8  and  C_10
REMARK    4  A    between atoms: C_10  and  O_12
REMARK    5  A    between atoms: O_12  and  C_13
REMARK    6  A    between atoms: C_16  and  N_17
REMARK    7  A    between atoms: C_18  and  C_20
REMARK    8  A    between atoms: C_27  and  C_28
REMARK                            x       y       z     vdW  Elec       q    Type
REMARK                         _______ _______ _______ _____ _____    ______ ____
ROOT
ATOM      1  C   UNL     1      37.974   2.059  12.741  0.00  0.00    +0.000 C 
ATOM      2  C   UNL     1      39.169   1.461  11.732  0.00  0.00    +0.000 C 
ENDROOT
BRANCH   1   3
ATOM      3  C   UNL     1      37.298   0.621  12.974  0.00  0.00    +0.000 C 
ATOM      4  O   UNL     1      37.170   0.072  11.874  0.00  0.00    +0.000 OA
BRANCH   3   8
ATOM      5  C   UNL     1      36.342  -0.800  16.864  0.00  0.00    +0.000 A 
ATOM      6  C   UNL     1      35.576   0.183  16.276  0.00  0.00    +0.000 A 
ATOM      7  C   UNL     1      35.881   0.639  15.017  0.00  0.00    +0.000 A 
ATOM      8  C   UNL     1      36.948   0.162  14.261  0.00  0.00    +0.000 A 
ATOM      9  C   UNL     1      37.704  -0.822  14.861  0.00  0.00    +0.000 A 
ATOM     10  C   UNL     1      37.401  -1.287  16.133  0.00  0.00    +0.000 A 
BRANCH   5  12
ATOM     11  C   UNL     1      35.721  -0.134  19.171  0.00  0.00    +0.000 C 
ATOM     12  C   UNL     1      36.017  -1.302  18.234  0.00  0.00    +0.000 C 
ATOM     13  C   UNL     1      37.282  -1.953  18.765  0.00  0.00    +0.000 C 
ENDBRANCH   5  12
BRANCH   9  14
ATOM     14  C   UNL     1      38.852  -1.409  14.121  0.00  0.00    +0.000 C 
ATOM     15  C   UNL     1      40.029  -1.435  15.111  0.00  0.00    +0.000 C 
ATOM     16  C   UNL     1      38.528  -2.832  13.693  0.00  0.00    +0.000 C 
ENDBRANCH   9  14
ENDBRANCH   3   8
ENDBRANCH   1   3
BRANCH   1  17
ATOM     17  O   UNL     1      38.893   2.062  13.977  0.00  0.00    +0.000 OA
BRANCH  17  18
ATOM     18  C   UNL     1      38.785   3.196  14.768  0.00  0.00    +0.000 A 
ATOM     19  C   UNL     1      37.784   3.327  15.708  0.00  0.00    +0.000 A 
ATOM     20  C   UNL     1      37.674   4.455  16.497  0.00  0.00    +0.000 A 
ATOM     21  C   UNL     1      38.554   5.508  16.388  0.00  0.00    +0.000 A 
ATOM     22  C   UNL     1      39.555   5.393  15.458  0.00  0.00    +0.000 A 
ATOM     23  C   UNL     1      39.651   4.259  14.678  0.00  0.00    +0.000 A 
BRANCH  21  24
ATOM     24  N   UNL     1      38.392   6.654  17.230  0.00  0.00    +0.000 NA
ATOM     25  C   UNL     1      38.752   6.659  18.596  0.00  0.00    +0.000 C 
ATOM     26  O   UNL     1      39.231   5.591  19.049  0.00  0.00    +0.000 OA
BRANCH  25  27
ATOM     27  C   UNL     1      38.582   7.843  19.456  0.00  0.00    +0.000 A 
ATOM     28  C   UNL     1      39.328   8.228  20.526  0.00  0.00    +0.000 A 
ATOM     29  C   UNL     1      38.780   9.399  21.002  0.00  0.00    +0.000 A 
ATOM     30  C   UNL     1      37.695   9.690  20.186  0.00  0.00    +0.000 A 
ATOM     31  O   UNL     1      37.638   8.739  19.305  0.00  0.00    +0.000 OA
ENDBRANCH  25  27
ENDBRANCH  21  24
ENDBRANCH  17  18
ENDBRANCH   1  17
TORSDOF 8
ENDMDL
MODEL 4
REMARK VINA RESULT:      -7.1      3.218      8.890
REMARK  Name = 
REMARK  8 active torsions:
REMARK  status: ('A' for Active; 'I' for Inactive)
REMARK    1  A    between atoms: C_2  and  C_4
REMARK    2  A    between atoms: C_7  and  C_8
REMARK    3  A    between atoms: C_8  and  C_10
REMARK    4  A    between atoms: C_10  and  O_12
REMARK    5  A    between atoms: O_12  and  C_13
REMARK    6  A    between atoms: C_16  and  N_17
REMARK    7  A    between atoms: C_18  and  C_20
REMARK    8  A    between atoms: C_27  and  C_28
REMARK                            x       y       z     vdW  Elec       q    Type
REMARK                         _______ _______ _______ _____ _____    ______ ____
ROOT
ATOM      1  C   UNL     1      41.494   4.603  13.491  0.00  0.00    +0.000 C 
ATOM      2  C   UNL     1      42.274   5.511  12.320  0.00  0.00    +0.000 C 
ENDROOT
BRANCH   1   3
ATOM      3  C   UNL     1      40.857   5.886  14.217  0.00  0.00    +0.000 C 
ATOM      4  O   UNL     1      40.459   6.665  13.345  0.00  0.00    +0.000 OA
BRANCH   3   8
ATOM      5  C   UNL     1      40.638   6.167  18.452  0.00  0.00    +0.000 A 
ATOM      6  C   UNL     1      41.805   6.487  17.794  0.00  0.00    +0.000 A 
ATOM      7  C   UNL     1      41.875   6.402  16.425  0.00  0.00    +0.000 A 
ATOM      8  C   UNL     1      40.812   6.000  15.622  0.00  0.00    +0.000 A 
ATOM      9  C   UNL     1      39.651   5.685  16.294  0.00  0.00    +0.000 A 
ATOM     10  C   UNL     1      39.573   5.769  17.676  0.00  0.00    +0.000 A 
BRANCH   5  12
ATOM     11  C   UNL     1      39.753   7.490  20.354  0.00  0.00    +0.000 C 
ATOM     12  C   UNL     1      40.553   6.257  19.942  0.00  0.00    +0.000 C 
ATOM     13  C   UNL     1      41.968   6.492  20.440  0.00  0.00    +0.000 C 
ENDBRANCH   5  12
BRANCH   9  14
ATOM     14  C   UNL     1      38.453   5.266  15.518  0.00  0.00    +0.000 C 
ATOM     15  C   UNL     1      37.746   4.197  16.369  0.00  0.00    +0.000 C 
ATOM     16  C   UNL     1      37.516   6.449  15.320  0.00  0.00    +0.000 C 
ENDBRANCH   9  14
ENDBRANCH   3   8
ENDBRANCH   1   3
BRANCH   1  17
ATOM     17  O   UNL     1      40.306   4.271  12.569  0.00  0.00    +0.000 OA
BRANCH  17  18
ATOM     18  C   UNL     1      39.500   3.237  13.024  0.00  0.00    +0.000 A 
ATOM     19  C   UNL     1      38.161   3.168  12.696  0.00  0.00    +0.000 A 
ATOM     20  C   UNL     1      37.357   2.141  13.147  0.00  0.00    +0.000 A 
ATOM     21  C   UNL     1      37.844   1.133  13.947  0.00  0.00    +0.000 A 
ATOM     22  C   UNL     1      39.173   1.187  14.283  0.00  0.00    +0.000 A 
ATOM     23  C   UNL     1      39.963   2.221  13.823  0.00  0.00    +0.000 A 
BRANCH  21  24
ATOM     24  N   UNL     1      36.965   0.093  14.389  0.00  0.00    +0.000 NA
ATOM     25  C   UNL     1      36.425   0.047  15.693  0.00  0.00    +0.000 C 
ATOM     26  O   UNL     1      36.757   0.980  16.465  0.00  0.00    +0.000 OA
BRANCH  25  27
ATOM     27  C   UNL     1      35.522  -1.027  16.139  0.00  0.00    +0.000 A 
ATOM     28  C   UNL     1      34.634  -1.014  17.169  0.00  0.00    +0.000 A 
ATOM     29  C   UNL     1      34.021  -2.249  17.192  0.00  0.00    +0.000 A 
ATOM     30  C   UNL     1      34.573  -2.984  16.152  0.00  0.00    +0.000 A 
ATOM     31  O   UNL     1      35.442  -2.209  15.580  0.00  0.00    +0.000 OA
ENDBRANCH  25  27
ENDBRANCH  21  24
ENDBRANCH  17  18
ENDBRANCH   1  17
TORSDOF 8
ENDMDL
MODEL 5
REMARK VINA RESULT:      -6.9      5.027      7.598
REMARK  Name = 
REMARK  8 active torsions:
REMARK  status: ('A' for Active; 'I' for Inactive)
REMARK    1  A    between atoms: C_2  and  C_4
REMARK    2  A    between atoms: C_7  and  C_8
REMARK    3  A    between atoms: C_8  and  C_10
REMARK    4  A    between atoms: C_10  and  O_12
REMARK    5  A    between atoms: O_12  and  C_13
REMARK    6  A    between atoms: C_16  and  N_17
REMARK    7  A    between atoms: C_18  and  C_20
REMARK    8  A    between atoms: C_27  and  C_28
REMARK                            x       y       z     vdW  Elec       q    Type
REMARK                         _______ _______ _______ _____ _____    ______ ____
ROOT
ATOM      1  C   UNL     1      37.678  -3.271  14.960  0.00  0.00    +0.000 C 
ATOM      2  C   UNL     1      37.341  -4.256  16.271  0.00  0.00    +0.000 C 
ENDROOT
BRANCH   1   3
ATOM      3  C   UNL     1      36.248  -2.541  15.001  0.00  0.00    +0.000 C 
ATOM      4  O   UNL     1      35.371  -3.407  14.921  0.00  0.00    +0.000 OA
BRANCH   3   8
ATOM      5  C   UNL     1      35.893   1.672  15.439  0.00  0.00    +0.000 A 
ATOM      6  C   UNL     1      36.342   1.132  14.254  0.00  0.00    +0.000 A 
ATOM      7  C   UNL     1      36.452  -0.229  14.109  0.00  0.00    +0.000 A 
ATOM      8  C   UNL     1      36.130  -1.139  15.111  0.00  0.00    +0.000 A 
ATOM      9  C   UNL     1      35.681  -0.585  16.291  0.00  0.00    +0.000 A 
ATOM     10  C   UNL     1      35.568   0.789  16.443  0.00  0.00    +0.000 A 
BRANCH   5  12
ATOM     11  C   UNL     1      35.755   3.840  14.241  0.00  0.00    +0.000 C 
ATOM     12  C   UNL     1      35.771   3.153  15.605  0.00  0.00    +0.000 C 
ATOM     13  C   UNL     1      37.044   3.616  16.291  0.00  0.00    +0.000 C 
ENDBRANCH   5  12
BRANCH   9  14
ATOM     14  C   UNL     1      35.291  -1.481  17.413  0.00  0.00    +0.000 C 
ATOM     15  C   UNL     1      35.789  -0.796  18.697  0.00  0.00    +0.000 C 
ATOM     16  C   UNL     1      33.777  -1.618  17.473  0.00  0.00    +0.000 C 
ENDBRANCH   9  14
ENDBRANCH   3   8
ENDBRANCH   1   3
BRANCH   1  17
ATOM     17  O   UNL     1      38.459  -2.253  15.811  0.00  0.00    +0.000 OA
BRANCH  17  18
ATOM     18  C   UNL     1      39.622  -1.784  15.219  0.00  0.00    +0.000 A 
ATOM     19  C   UNL     1      40.674  -2.627  14.928  0.00  0.00    +0.000 A 
ATOM     20  C   UNL     1      41.833  -2.163  14.339  0.00  0.00    +0.000 A 
ATOM     21  C   UNL     1      42.003  -0.837  14.011  0.00  0.00    +0.000 A 
ATOM     22  C   UNL     1      40.966   0.015  14.295  0.00  0.00    +0.000 A 
ATOM     23  C   UNL     1      39.814  -0.465  14.884  0.00  0.00    +0.000 A 
BRANCH  21  24
ATOM     24  N   UNL     1      43.227  -0.409  13.403  0.00  0.00    +0.000 NA
ATOM     25  C   UNL     1      44.381  -0.085  14.150  0.00  0.00    +0.000 C 
ATOM     26  O   UNL     1      44.285  -0.193  15.396  0.00  0.00    +0.000 OA
BRANCH  25  27
ATOM     27  C   UNL     1      45.636   0.354  13.516  0.00  0.00    +0.000 A 
ATOM     28  C   UNL     1      46.539  -0.387  12.821  0.00  0.00    +0.000 A 
ATOM     29  C   UNL     1      47.547   0.467  12.426  0.00  0.00    +0.000 A 
ATOM     30  C   UNL     1      47.212   1.725  12.907  0.00  0.00    +0.000 A 
ATOM     31  O   UNL     1      46.084   1.585  13.534  0.00  0.00    +0.000 OA
ENDBRANCH  25  27
ENDBRANCH  21  24
ENDBRANCH  17  18
ENDBRANCH   1  17
TORSDOF 8
ENDMDL
MODEL 6
REMARK VINA RESULT:      -6.9      1.178      2.577
REMARK  Name = 
REMARK  8 active torsions:
REMARK  status: ('A' for Active; 'I' for Inactive)
REMARK    1  A    between atoms: C_2  and  C_4
REMARK    2  A    between atoms: C_7  and  C_8
REMARK    3  A    between atoms: C_8  and  C_10
REMARK    4  A    between atoms: C_10  and  O_12
REMARK    5  A    between atoms: O_12  and  C_13
REMARK    6  A    between atoms: C_16  and  N_17
REMARK    7  A    between atoms: C_18  and  C_20
REMARK    8  A    between atoms: C_27  and  C_28
REMARK                            x       y       z     vdW  Elec       q    Type
REMARK                         _______ _______ _______ _____ _____    ______ ____
ROOT
ATOM      1  C   UNL     1      36.578   2.934  16.039  0.00  0.00    +0.000 C 
ATOM      2  C   UNL     1      36.102   3.798  14.685  0.00  0.00    +0.000 C 
ENDROOT
BRANCH   1   3
ATOM      3  C   UNL     1      36.451   1.509  15.310  0.00  0.00    +0.000 C 
ATOM      4  O   UNL     1      35.805   1.665  14.268  0.00  0.00    +0.000 OA
BRANCH   3   8
ATOM      5  C   UNL     1      38.254  -1.993  16.907  0.00  0.00    +0.000 A 
ATOM      6  C   UNL     1      37.131  -1.458  17.499  0.00  0.00    +0.000 A 
ATOM      7  C   UNL     1      36.544  -0.330  16.981  0.00  0.00    +0.000 A 
ATOM      8  C   UNL     1      37.019   0.339  15.857  0.00  0.00    +0.000 A 
ATOM      9  C   UNL     1      38.142  -0.208  15.274  0.00  0.00    +0.000 A 
ATOM     10  C   UNL     1      38.739  -1.348  15.793  0.00  0.00    +0.000 A 
BRANCH   5  12
ATOM     11  C   UNL     1      38.219  -4.473  16.917  0.00  0.00    +0.000 C 
ATOM     12  C   UNL     1      38.899  -3.221  17.465  0.00  0.00    +0.000 C 
ATOM     13  C   UNL     1      38.618  -3.214  18.957  0.00  0.00    +0.000 C 
ENDBRANCH   5  12
BRANCH   9  14
ATOM     14  C   UNL     1      38.710   0.425  14.054  0.00  0.00    +0.000 C 
ATOM     15  C   UNL     1      40.209   0.624  14.335  0.00  0.00    +0.000 C 
ATOM     16  C   UNL     1      38.544  -0.499  12.857  0.00  0.00    +0.000 C 
ENDBRANCH   9  14
ENDBRANCH   3   8
ENDBRANCH   1   3
BRANCH   1  17
ATOM     17  O   UNL     1      38.077   3.173  15.774  0.00  0.00    +0.000 OA
BRANCH  17  18
ATOM     18  C   UNL     1      38.622   4.232  16.485  0.00  0.00    +0.000 A 
ATOM     19  C   UNL     1      39.540   5.088  15.913  0.00  0.00    +0.000 A 
ATOM     20  C   UNL     1      40.085   6.143  16.619  0.00  0.00    +0.000 A 
ATOM     21  C   UNL     1      39.742   6.397  17.927  0.00  0.00    +0.000 A 
ATOM     22  C   UNL     1      38.830   5.555  18.510  0.00  0.00    +0.000 A 
ATOM     23  C   UNL     1      38.295   4.506  17.791  0.00  0.00    +0.000 A 
BRANCH  21  24
ATOM     24  N   UNL     1      40.338   7.504  18.612  0.00  0.00    +0.000 NA
ATOM     25  C   UNL     1      41.306   7.345  19.629  0.00  0.00    +0.000 C 
ATOM     26  O   UNL     1      41.627   6.165  19.911  0.00  0.00    +0.000 OA
BRANCH  25  27
ATOM     27  C   UNL     1      41.914   8.489  20.329  0.00  0.00    +0.000 A 
ATOM     28  C   UNL     1      43.165   8.596  20.851  0.00  0.00    +0.000 A 
ATOM     29  C   UNL     1      43.268   9.854  21.405  0.00  0.00    +0.000 A 
ATOM     30  C   UNL     1      42.047  10.481  21.195  0.00  0.00    +0.000 A 
ATOM     31  O   UNL     1      41.304   9.626  20.561  0.00  0.00    +0.000 OA
ENDBRANCH  25  27
ENDBRANCH  21  24
ENDBRANCH  17  18
ENDBRANCH   1  17
TORSDOF 8
ENDMDL
MODEL 7
REMARK VINA RESULT:      -6.9      5.992      9.662
REMARK  Name = 
REMARK  8 active torsions:
REMARK  status: ('A' for Active; 'I' for Inactive)
REMARK    1  A    between atoms: C_2  and  C_4
REMARK    2  A    between atoms: C_7  and  C_8
REMARK    3  A    between atoms: C_8  and  C_10
REMARK    4  A    between atoms: C_10  and  O_12
REMARK    5  A    between atoms: O_12  and  C_13
REMARK    6  A    between atoms: C_16  and  N_17
REMARK    7  A    between atoms: C_18  and  C_20
REMARK    8  A    between atoms: C_27  and  C_28
REMARK                            x       y       z     vdW  Elec       q    Type
REMARK                         _______ _______ _______ _____ _____    ______ ____
ROOT
ATOM      1  C   UNL     1      43.600  -3.715  12.221  0.00  0.00    +0.000 C 
ATOM      2  C   UNL     1      44.193  -4.144  10.715  0.00  0.00    +0.000 C 
ENDROOT
BRANCH   1   3
ATOM      3  C   UNL     1      44.604  -2.473  12.384  0.00  0.00    +0.000 C 
ATOM      4  O   UNL     1      45.005  -2.150  11.260  0.00  0.00    +0.000 OA
BRANCH   3   8
ATOM      5  C   UNL     1      45.437  -0.745  16.177  0.00  0.00    +0.000 A 
ATOM      6  C   UNL     1      45.952  -1.980  15.848  0.00  0.00    +0.000 A 
ATOM      7  C   UNL     1      45.688  -2.536  14.620  0.00  0.00    +0.000 A 
ATOM      8  C   UNL     1      44.908  -1.921  13.646  0.00  0.00    +0.000 A 
ATOM      9  C   UNL     1      44.401  -0.686  13.989  0.00  0.00    +0.000 A 
ATOM     10  C   UNL     1      44.664  -0.119  15.227  0.00  0.00    +0.000 A 
BRANCH   5  12
ATOM     11  C   UNL     1      46.967   0.744  17.439  0.00  0.00    +0.000 C 
ATOM     12  C   UNL     1      45.719  -0.132  17.512  0.00  0.00    +0.000 C 
ATOM     13  C   UNL     1      46.067  -1.277  18.446  0.00  0.00    +0.000 C 
ENDBRANCH   5  12
BRANCH   9  14
ATOM     14  C   UNL     1      43.573   0.059  13.003  0.00  0.00    +0.000 C 
ATOM     15  C   UNL     1      42.330   0.543  13.769  0.00  0.00    +0.000 C 
ATOM     16  C   UNL     1      44.339   1.265  12.480  0.00  0.00    +0.000 C 
ENDBRANCH   9  14
ENDBRANCH   3   8
ENDBRANCH   1   3
BRANCH   1  17
ATOM     17  O   UNL     1      42.405  -2.944  11.630  0.00  0.00    +0.000 OA
BRANCH  17  18
ATOM     18  C   UNL     1      41.351  -2.758  12.512  0.00  0.00    +0.000 A 
ATOM     19  C   UNL     1      40.113  -2.332  12.078  0.00  0.00    +0.000 A 
ATOM     20  C   UNL     1      39.062  -2.147  12.954  0.00  0.00    +0.000 A 
ATOM     21  C   UNL     1      39.192  -2.375  14.305  0.00  0.00    +0.000 A 
ATOM     22  C   UNL     1      40.417  -2.799  14.754  0.00  0.00    +0.000 A 
ATOM     23  C   UNL     1      41.457  -2.979  13.864  0.00  0.00    +0.000 A 
BRANCH  21  24
ATOM     24  N   UNL     1      38.070  -2.164  15.169  0.00  0.00    +0.000 NA
ATOM     25  C   UNL     1      37.811  -0.928  15.802  0.00  0.00    +0.000 C 
ATOM     26  O   UNL     1      38.625  -0.002  15.568  0.00  0.00    +0.000 OA
BRANCH  25  27
ATOM     27  C   UNL     1      36.655  -0.721  16.690  0.00  0.00    +0.000 A 
ATOM     28  C   UNL     1      35.402  -1.239  16.585  0.00  0.00    +0.000 A 
ATOM     29  C   UNL     1      34.672  -0.756  17.650  0.00  0.00    +0.000 A 
ATOM     30  C   UNL     1      35.527   0.058  18.380  0.00  0.00    +0.000 A 
ATOM     31  O   UNL     1      36.668   0.033  17.762  0.00  0.00    +0.000 OA
ENDBRANCH  25  27
ENDBRANCH  21  24
ENDBRANCH  17  18
ENDBRANCH   1  17
TORSDOF 8
ENDMDL
MODEL 8
REMARK VINA RESULT:      -6.9      3.160      9.651
REMARK  Name = 
REMARK  8 active torsions:
REMARK  status: ('A' for Active; 'I' for Inactive)
REMARK    1  A    between atoms: C_2  and  C_4
REMARK    2  A    between atoms: C_7  and  C_8
REMARK    3  A    between atoms: C_8  and  C_10
REMARK    4  A    between atoms: C_10  and  O_12
REMARK    5  A    between atoms: O_12  and  C_13
REMARK    6  A    between atoms: C_16  and  N_17
REMARK    7  A    between atoms: C_18  and  C_20
REMARK    8  A    between atoms: C_27  and  C_28
REMARK                            x       y       z     vdW  Elec       q    Type
REMARK                         _______ _______ _______ _____ _____    ______ ____
ROOT
ATOM      1  C   UNL     1      39.786   4.529  14.642  0.00  0.00    +0.000 C 
ATOM      2  C   UNL     1      39.826   5.033  13.046  0.00  0.00    +0.000 C 
ENDROOT
BRANCH   1   3
ATOM      3  C   UNL     1      39.970   6.012  15.229  0.00  0.00    +0.000 C 
ATOM      4  O   UNL     1      39.267   6.780  14.565  0.00  0.00    +0.000 OA
BRANCH   3   8
ATOM      5  C   UNL     1      42.457   6.776  18.592  0.00  0.00    +0.000 A 
ATOM      6  C   UNL     1      42.994   6.745  17.323  0.00  0.00    +0.000 A 
ATOM      7  C   UNL     1      42.190   6.503  16.236  0.00  0.00    +0.000 A 
ATOM      8  C   UNL     1      40.820   6.280  16.324  0.00  0.00    +0.000 A 
ATOM      9  C   UNL     1      40.296   6.316  17.599  0.00  0.00    +0.000 A 
ATOM     10  C   UNL     1      41.102   6.559  18.701  0.00  0.00    +0.000 A 
BRANCH   5  12
ATOM     11  C   UNL     1      44.754   6.581  19.505  0.00  0.00    +0.000 C 
ATOM     12  C   UNL     1      43.324   7.038  19.781  0.00  0.00    +0.000 C 
ATOM     13  C   UNL     1      42.808   6.145  20.895  0.00  0.00    +0.000 C 
ENDBRANCH   5  12
BRANCH   9  14
ATOM     14  C   UNL     1      38.836   6.110  17.790  0.00  0.00    +0.000 C 
ATOM     15  C   UNL     1      38.681   4.719  18.428  0.00  0.00    +0.000 C 
ATOM     16  C   UNL     1      38.278   7.161  18.739  0.00  0.00    +0.000 C 
ENDBRANCH   9  14
ENDBRANCH   3   8
ENDBRANCH   1   3
BRANCH   1  17
ATOM     17  O   UNL     1      38.248   4.476  14.681  0.00  0.00    +0.000 OA
BRANCH  17  18
ATOM     18  C   UNL     1      37.723   3.206  14.871  0.00  0.00    +0.000 A 
ATOM     19  C   UNL     1      36.364   2.996  14.983  0.00  0.00    +0.000 A 
ATOM     20  C   UNL     1      35.839   1.733  15.172  0.00  0.00    +0.000 A 
ATOM     21  C   UNL     1      36.640   0.618  15.259  0.00  0.00    +0.000 A 
ATOM     22  C   UNL     1      37.994   0.809  15.150  0.00  0.00    +0.000 A 
ATOM     23  C   UNL     1      38.502   2.079  14.961  0.00  0.00    +0.000 A 
BRANCH  21  24
ATOM     24  N   UNL     1      36.043  -0.668  15.457  0.00  0.00    +0.000 NA
ATOM     25  C   UNL     1      36.383  -1.799  14.682  0.00  0.00    +0.000 C 
ATOM     26  O   UNL     1      37.250  -1.622  13.792  0.00  0.00    +0.000 OA
BRANCH  25  27
ATOM     27  C   UNL     1      35.763  -3.118  14.892  0.00  0.00    +0.000 A 
ATOM     28  C   UNL     1      36.338  -4.348  14.806  0.00  0.00    +0.000 A 
ATOM     29  C   UNL     1      35.357  -5.274  15.087  0.00  0.00    +0.000 A 
ATOM     30  C   UNL     1      34.194  -4.558  15.338  0.00  0.00    +0.000 A 
ATOM     31  O   UNL     1      34.505  -3.305  15.206  0.00  0.00    +0.000 OA
ENDBRANCH  25  27
ENDBRANCH  21  24
ENDBRANCH  17  18
ENDBRANCH   1  17
TORSDOF 8
ENDMDL
MODEL 9
REMARK VINA RESULT:      -6.8      5.821      9.806
REMARK  Name = 
REMARK  8 active torsions:
REMARK  status: ('A' for Active; 'I' for Inactive)
REMARK    1  A    between atoms: C_2  and  C_4
REMARK    2  A    between atoms: C_7  and  C_8
REMARK    3  A    between atoms: C_8  and  C_10
REMARK    4  A    between atoms: C_10  and  O_12
REMARK    5  A    between atoms: O_12  and  C_13
REMARK    6  A    between atoms: C_16  and  N_17
REMARK    7  A    between atoms: C_18  and  C_20
REMARK    8  A    between atoms: C_27  and  C_28
REMARK                            x       y       z     vdW  Elec       q    Type
REMARK                         _______ _______ _______ _____ _____    ______ ____
ROOT
ATOM      1  C   UNL     1      43.846  -3.560  12.627  0.00  0.00    +0.000 C 
ATOM      2  C   UNL     1      44.425  -4.081  11.144  0.00  0.00    +0.000 C 
ENDROOT
BRANCH   1   3
ATOM      3  C   UNL     1      45.115  -2.620  12.916  0.00  0.00    +0.000 C 
ATOM      4  O   UNL     1      45.801  -2.571  11.889  0.00  0.00    +0.000 OA
BRANCH   3   8
ATOM      5  C   UNL     1      45.808  -0.818  16.703  0.00  0.00    +0.000 A 
ATOM      6  C   UNL     1      44.970  -0.216  15.790  0.00  0.00    +0.000 A 
ATOM      7  C   UNL     1      44.741  -0.800  14.568  0.00  0.00    +0.000 A 
ATOM      8  C   UNL     1      45.315  -2.003  14.169  0.00  0.00    +0.000 A 
ATOM      9  C   UNL     1      46.149  -2.595  15.093  0.00  0.00    +0.000 A 
ATOM     10  C   UNL     1      46.385  -2.010  16.328  0.00  0.00    +0.000 A 
BRANCH   5  12
ATOM     11  C   UNL     1      47.468   0.405  18.081  0.00  0.00    +0.000 C 
ATOM     12  C   UNL     1      46.063  -0.189  18.035  0.00  0.00    +0.000 C 
ATOM     13  C   UNL     1      46.054  -1.317  19.052  0.00  0.00    +0.000 C 
ENDBRANCH   5  12
BRANCH   9  14
ATOM     14  C   UNL     1      46.792  -3.896  14.764  0.00  0.00    +0.000 C 
ATOM     15  C   UNL     1      48.260  -3.575  14.434  0.00  0.00    +0.000 C 
ATOM     16  C   UNL     1      46.741  -4.825  15.968  0.00  0.00    +0.000 C 
ENDBRANCH   9  14
ENDBRANCH   3   8
ENDBRANCH   1   3
BRANCH   1  17
ATOM     17  O   UNL     1      42.932  -2.493  11.996  0.00  0.00    +0.000 OA
BRANCH  17  18
ATOM     18  C   UNL     1      41.980  -1.971  12.860  0.00  0.00    +0.000 A 
ATOM     19  C   UNL     1      41.451  -2.722  13.889  0.00  0.00    +0.000 A 
ATOM     20  C   UNL     1      40.503  -2.205  14.750  0.00  0.00    +0.000 A 
ATOM     21  C   UNL     1      40.036  -0.916  14.629  0.00  0.00    +0.000 A 
ATOM     22  C   UNL     1      40.552  -0.156  13.610  0.00  0.00    +0.000 A 
ATOM     23  C   UNL     1      41.499  -0.689  12.758  0.00  0.00    +0.000 A 
BRANCH  21  24
ATOM     24  N   UNL     1      39.052  -0.431  15.548  0.00  0.00    +0.000 NA
ATOM     25  C   UNL     1      37.672  -0.401  15.248  0.00  0.00    +0.000 C 
ATOM     26  O   UNL     1      37.339  -0.828  14.116  0.00  0.00    +0.000 OA
BRANCH  25  27
ATOM     27  C   UNL     1      36.666   0.100  16.200  0.00  0.00    +0.000 A 
ATOM     28  C   UNL     1      35.476   0.704  15.936  0.00  0.00    +0.000 A 
ATOM     29  C   UNL     1      34.889   0.992  17.149  0.00  0.00    +0.000 A 
ATOM     30  C   UNL     1      35.763   0.542  18.129  0.00  0.00    +0.000 A 
ATOM     31  O   UNL     1      36.779   0.033  17.504  0.00  0.00    +0.000 OA
ENDBRANCH  25  27
ENDBRANCH  21  24
ENDBRANCH  17  18
ENDBRANCH   1  17
TORSDOF 8
ENDMDL
MODEL 10
REMARK VINA RESULT:      -6.8      6.221     10.487
REMARK  Name = 
REMARK  8 active torsions:
REMARK  status: ('A' for Active; 'I' for Inactive)
REMARK    1  A    between atoms: C_2  and  C_4
REMARK    2  A    between atoms: C_7  and  C_8
REMARK    3  A    between atoms: C_8  and  C_10
REMARK    4  A    between atoms: C_10  and  O_12
REMARK    5  A    between atoms: O_12  and  C_13
REMARK    6  A    between atoms: C_16  and  N_17
REMARK    7  A    between atoms: C_18  and  C_20
REMARK    8  A    between atoms: C_27  and  C_28
REMARK                            x       y       z     vdW  Elec       q    Type
REMARK                         _______ _______ _______ _____ _____    ______ ____
ROOT
ATOM      1  C   UNL     1      45.937   7.805  20.942  0.00  0.00    +0.000 C 
ATOM      2  C   UNL     1      47.294   7.790  19.961  0.00  0.00    +0.000 C 
ENDROOT
BRANCH   1   3
ATOM      3  C   UNL     1      45.218   6.606  20.153  0.00  0.00    +0.000 C 
ATOM      4  O   UNL     1      46.092   5.835  19.744  0.00  0.00    +0.000 OA
BRANCH   3   8
ATOM      5  C   UNL     1      41.006   6.418  19.615  0.00  0.00    +0.000 A 
ATOM      6  C   UNL     1      41.569   6.055  20.818  0.00  0.00    +0.000 A 
ATOM      7  C   UNL     1      42.930   6.121  20.995  0.00  0.00    +0.000 A 
ATOM      8  C   UNL     1      43.816   6.544  20.009  0.00  0.00    +0.000 A 
ATOM      9  C   UNL     1      43.238   6.905  18.811  0.00  0.00    +0.000 A 
ATOM     10  C   UNL     1      41.865   6.841  18.626  0.00  0.00    +0.000 A 
BRANCH   5  12
ATOM     11  C   UNL     1      39.167   5.166  18.519  0.00  0.00    +0.000 C 
ATOM     12  C   UNL     1      39.526   6.349  19.414  0.00  0.00    +0.000 C 
ATOM     13  C   UNL     1      39.139   7.594  18.636  0.00  0.00    +0.000 C 
ENDBRANCH   5  12
BRANCH   9  14
ATOM     14  C   UNL     1      44.104   7.392  17.704  0.00  0.00    +0.000 C 
ATOM     15  C   UNL     1      43.520   6.795  16.412  0.00  0.00    +0.000 C 
ATOM     16  C   UNL     1      44.048   8.911  17.624  0.00  0.00    +0.000 C 
ENDBRANCH   9  14
ENDBRANCH   3   8
ENDBRANCH   1   3
BRANCH   1  17
ATOM     17  O   UNL     1      46.612   6.960  22.039  0.00  0.00    +0.000 OA
BRANCH  17  18
ATOM     18  C   UNL     1      45.781   6.629  23.099  0.00  0.00    +0.000 A 
ATOM     19  C   UNL     1      45.726   5.345  23.600  0.00  0.00    +0.000 A 
ATOM     20  C   UNL     1      44.899   5.013  24.655  0.00  0.00    +0.000 A 
ATOM     21  C   UNL     1      44.086   5.942  25.263  0.00  0.00    +0.000 A 
ATOM     22  C   UNL     1      44.129   7.224  24.777  0.00  0.00    +0.000 A 
ATOM     23  C   UNL     1      44.961   7.539  23.721  0.00  0.00    +0.000 A 
BRANCH  21  24
ATOM     24  N   UNL     1      43.247   5.543  26.352  0.00  0.00    +0.000 NA
ATOM     25  C   UNL     1      43.686   5.536  27.695  0.00  0.00    +0.000 C 
ATOM     26  O   UNL     1      44.869   5.904  27.895  0.00  0.00    +0.000 OA
BRANCH  25  27
ATOM     27  C   UNL     1      42.816   5.123  28.809  0.00  0.00    +0.000 A 
ATOM     28  C   UNL     1      42.162   3.943  28.982  0.00  0.00    +0.000 A 
ATOM     29  C   UNL     1      41.477   4.030  30.175  0.00  0.00    +0.000 A 
ATOM     30  C   UNL     1      41.744   5.289  30.695  0.00  0.00    +0.000 A 
ATOM     31  O   UNL     1      42.532   5.873  29.846  0.00  0.00    +0.000 OA
ENDBRANCH  25  27
ENDBRANCH  21  24
ENDBRANCH  17  18
ENDBRANCH   1  17
TORSDOF 8
ENDMDL
