MODEL 1
REMARK VINA RESULT:      -6.4      0.000      0.000
REMARK  Name = 
REMARK  5 active torsions:
REMARK  status: ('A' for Active; 'I' for Inactive)
REMARK    1  A    between atoms: C_2  and  C_3
REMARK    2  A    between atoms: N_9  and  C_10
REMARK    3  A    between atoms: C_10  and  C_11
REMARK    4  A    between atoms: C_11  and  O_12
REMARK    5  A    between atoms: O_12  and  C_13
REMARK                            x       y       z     vdW  Elec       q    Type
REMARK                         _______ _______ _______ _____ _____    ______ ____
ROOT
ATOM      1  C   UNL     1      35.024  19.728  12.142  0.00  0.00    +0.000 C 
ATOM      2  C   UNL     1      34.431  20.437  10.942  0.00  0.00    +0.000 C 
ATOM      3  N   UNL     1      34.340  19.538   9.812  0.00  0.00    +0.000 NA
ATOM      4  C   UNL     1      33.200  19.894   9.047  0.00  0.00    +0.000 C 
ATOM      5  O   UNL     1      32.932  19.568   7.850  0.00  0.00    +0.000 OA
ATOM      6  N   UNL     1      32.392  20.708   9.896  0.00  0.00    +0.000 N 
ATOM      7  C   UNL     1      33.037  20.842  11.155  0.00  0.00    +0.000 C 
ATOM      8  O   UNL     1      32.543  21.223  12.238  0.00  0.00    +0.000 OA
ENDROOT
BRANCH   2   9
ATOM      9  C   UNL     1      35.326  21.631  10.638  0.00  0.00    +0.000 C 
ATOM     10  C   UNL     1      36.766  21.155  10.290  0.00  0.00    +0.000 C 
ATOM     11  C   UNL     1      35.863  21.773   9.269  0.00  0.00    +0.000 C 
ENDBRANCH   2   9
BRANCH   6  12
ATOM     12  C   UNL     1      31.119  21.306   9.542  0.00  0.00    +0.000 C 
BRANCH  12  13
ATOM     13  C   UNL     1      30.021  20.867  10.494  0.00  0.00    +0.000 C 
BRANCH  13  14
ATOM     14  O   UNL     1      29.011  21.830  10.511  0.00  0.00    +0.000 OA
BRANCH  14  15
ATOM     15  C   UNL     1      28.554  22.476  11.641  0.00  0.00    +0.000 A 
ATOM     16  C   UNL     1      29.374  22.953  12.641  0.00  0.00    +0.000 A 
ATOM     17  C   UNL     1      28.887  23.599  13.764  0.00  0.00    +0.000 A 
ATOM     18  C   UNL     1      27.528  23.778  13.902  0.00  0.00    +0.000 A 
ATOM     19  C   UNL     1      26.677  23.308  12.910  0.00  0.00    +0.000 A 
ATOM     20  C   UNL     1      27.194  22.663  11.791  0.00  0.00    +0.000 A 
ATOM     21  F   UNL     1      26.362  22.195  10.808  0.00  0.00    +0.000 F 
ENDBRANCH  14  15
ENDBRANCH  13  14
ENDBRANCH  12  13
ENDBRANCH   6  12
TORSDOF 5
ENDMDL
MODEL 2
REMARK VINA RESULT:      -6.4     12.310     14.735
REMARK  Name = 
REMARK  5 active torsions:
REMARK  status: ('A' for Active; 'I' for Inactive)
REMARK    1  A    between atoms: C_2  and  C_3
REMARK    2  A    between atoms: N_9  and  C_10
REMARK    3  A    between atoms: C_10  and  C_11
REMARK    4  A    between atoms: C_11  and  O_12
REMARK    5  A    between atoms: O_12  and  C_13
REMARK                            x       y       z     vdW  Elec       q    Type
REMARK                         _______ _______ _______ _____ _____    ______ ____
ROOT
ATOM      1  C   UNL     1      29.560  24.689  21.870  0.00  0.00    +0.000 C 
ATOM      2  C   UNL     1      28.072  24.840  22.102  0.00  0.00    +0.000 C 
ATOM      3  N   UNL     1      27.370  23.634  21.720  0.00  0.00    +0.000 NA
ATOM      4  C   UNL     1      26.248  23.480  22.574  0.00  0.00    +0.000 C 
ATOM      5  O   UNL     1      25.229  22.744  22.395  0.00  0.00    +0.000 OA
ATOM      6  N   UNL     1      26.484  24.328  23.696  0.00  0.00    +0.000 N 
ATOM      7  C   UNL     1      27.731  24.985  23.522  0.00  0.00    +0.000 C 
ATOM      8  O   UNL     1      28.420  25.574  24.383  0.00  0.00    +0.000 OA
ENDROOT
BRANCH   2   9
ATOM      9  C   UNL     1      27.609  26.039  21.284  0.00  0.00    +0.000 C 
ATOM     10  C   UNL     1      27.985  27.365  22.005  0.00  0.00    +0.000 C 
ATOM     11  C   UNL     1      28.635  26.943  20.726  0.00  0.00    +0.000 C 
ENDBRANCH   2   9
BRANCH   6  12
ATOM     12  C   UNL     1      25.601  24.499  24.834  0.00  0.00    +0.000 C 
BRANCH  12  13
ATOM     13  C   UNL     1      25.832  23.419  25.876  0.00  0.00    +0.000 C 
BRANCH  13  14
ATOM     14  O   UNL     1      26.978  22.695  25.547  0.00  0.00    +0.000 OA
BRANCH  14  15
ATOM     15  C   UNL     1      28.118  22.623  26.320  0.00  0.00    +0.000 A 
ATOM     16  C   UNL     1      28.123  22.720  27.696  0.00  0.00    +0.000 A 
ATOM     17  C   UNL     1      29.283  22.643  28.447  0.00  0.00    +0.000 A 
ATOM     18  C   UNL     1      30.490  22.464  27.806  0.00  0.00    +0.000 A 
ATOM     19  C   UNL     1      30.515  22.363  26.421  0.00  0.00    +0.000 A 
ATOM     20  C   UNL     1      29.334  22.443  25.691  0.00  0.00    +0.000 A 
ATOM     21  F   UNL     1      29.350  22.345  24.324  0.00  0.00    +0.000 F 
ENDBRANCH  14  15
ENDBRANCH  13  14
ENDBRANCH  12  13
ENDBRANCH   6  12
TORSDOF 5
ENDMDL
MODEL 3
REMARK VINA RESULT:      -6.0     30.595     33.028
REMARK  Name = 
REMARK  5 active torsions:
REMARK  status: ('A' for Active; 'I' for Inactive)
REMARK    1  A    between atoms: C_2  and  C_3
REMARK    2  A    between atoms: N_9  and  C_10
REMARK    3  A    between atoms: C_10  and  C_11
REMARK    4  A    between atoms: C_11  and  O_12
REMARK    5  A    between atoms: O_12  and  C_13
REMARK                            x       y       z     vdW  Elec       q    Type
REMARK                         _______ _______ _______ _____ _____    ______ ____
ROOT
ATOM      1  C   UNL     1      16.140   7.654  41.654  0.00  0.00    +0.000 C 
ATOM      2  C   UNL     1      17.004   8.730  41.030  0.00  0.00    +0.000 C 
ATOM      3  N   UNL     1      18.047   8.142  40.218  0.00  0.00    +0.000 NA
ATOM      4  C   UNL     1      18.314   9.013  39.132  0.00  0.00    +0.000 C 
ATOM      5  O   UNL     1      19.332   9.024  38.374  0.00  0.00    +0.000 OA
ATOM      6  N   UNL     1      17.198   9.897  39.049  0.00  0.00    +0.000 N 
ATOM      7  C   UNL     1      16.270   9.564  40.072  0.00  0.00    +0.000 C 
ATOM      8  O   UNL     1      15.068   9.897  40.163  0.00  0.00    +0.000 OA
ENDROOT
BRANCH   2   9
ATOM      9  C   UNL     1      17.583   9.557  42.171  0.00  0.00    +0.000 C 
ATOM     10  C   UNL     1      16.466   9.949  43.180  0.00  0.00    +0.000 C 
ATOM     11  C   UNL     1      17.556   8.987  43.533  0.00  0.00    +0.000 C 
ENDBRANCH   2   9
BRANCH   6  12
ATOM     12  C   UNL     1      17.027  10.966  38.082  0.00  0.00    +0.000 C 
BRANCH  12  13
ATOM     13  C   UNL     1      16.647  10.418  36.718  0.00  0.00    +0.000 C 
BRANCH  13  14
ATOM     14  O   UNL     1      16.942  11.367  35.740  0.00  0.00    +0.000 OA
BRANCH  14  15
ATOM     15  C   UNL     1      16.366  11.419  34.488  0.00  0.00    +0.000 A 
ATOM     16  C   UNL     1      15.297  12.229  34.164  0.00  0.00    +0.000 A 
ATOM     17  C   UNL     1      14.739  12.261  32.898  0.00  0.00    +0.000 A 
ATOM     18  C   UNL     1      15.261  11.453  31.912  0.00  0.00    +0.000 A 
ATOM     19  C   UNL     1      16.337  10.627  32.208  0.00  0.00    +0.000 A 
ATOM     20  C   UNL     1      16.879  10.615  33.489  0.00  0.00    +0.000 A 
ATOM     21  F   UNL     1      17.940   9.803  33.791  0.00  0.00    +0.000 F 
ENDBRANCH  14  15
ENDBRANCH  13  14
ENDBRANCH  12  13
ENDBRANCH   6  12
TORSDOF 5
ENDMDL
MODEL 4
REMARK VINA RESULT:      -5.7     29.021     30.431
REMARK  Name = 
REMARK  5 active torsions:
REMARK  status: ('A' for Active; 'I' for Inactive)
REMARK    1  A    between atoms: C_2  and  C_3
REMARK    2  A    between atoms: N_9  and  C_10
REMARK    3  A    between atoms: C_10  and  C_11
REMARK    4  A    between atoms: C_11  and  O_12
REMARK    5  A    between atoms: O_12  and  C_13
REMARK                            x       y       z     vdW  Elec       q    Type
REMARK                         _______ _______ _______ _____ _____    ______ ____
ROOT
ATOM      1  C   UNL     1      23.794  10.538  35.987  0.00  0.00    +0.000 C 
ATOM      2  C   UNL     1      23.087  10.566  37.326  0.00  0.00    +0.000 C 
ATOM      3  N   UNL     1      23.229  11.862  37.951  0.00  0.00    +0.000 NA
ATOM      4  C   UNL     1      22.057  12.125  38.706  0.00  0.00    +0.000 C 
ATOM      5  O   UNL     1      21.899  12.988  39.623  0.00  0.00    +0.000 OA
ATOM      6  N   UNL     1      21.066  11.217  38.230  0.00  0.00    +0.000 N 
ATOM      7  C   UNL     1      21.633  10.415  37.203  0.00  0.00    +0.000 C 
ATOM      8  O   UNL     1      21.039   9.716  36.353  0.00  0.00    +0.000 OA
ENDROOT
BRANCH   2   9
ATOM      9  C   UNL     1      23.698   9.462  38.179  0.00  0.00    +0.000 C 
ATOM     10  C   UNL     1      25.210   9.297  37.852  0.00  0.00    +0.000 C 
ATOM     11  C   UNL     1      24.734   9.832  39.165  0.00  0.00    +0.000 C 
ENDBRANCH   2   9
BRANCH   6  12
ATOM     12  C   UNL     1      19.700  11.118  38.709  0.00  0.00    +0.000 C 
BRANCH  12  13
ATOM     13  C   UNL     1      18.751  11.913  37.830  0.00  0.00    +0.000 C 
BRANCH  13  14
ATOM     14  O   UNL     1      17.695  11.093  37.431  0.00  0.00    +0.000 OA
BRANCH  14  15
ATOM     15  C   UNL     1      17.170  11.044  36.156  0.00  0.00    +0.000 A 
ATOM     16  C   UNL     1      17.673  10.252  35.145  0.00  0.00    +0.000 A 
ATOM     17  C   UNL     1      17.124  10.223  33.874  0.00  0.00    +0.000 A 
ATOM     18  C   UNL     1      16.032  11.015  33.594  0.00  0.00    +0.000 A 
ATOM     19  C   UNL     1      15.504  11.823  34.592  0.00  0.00    +0.000 A 
ATOM     20  C   UNL     1      16.074  11.832  35.861  0.00  0.00    +0.000 A 
ATOM     21  F   UNL     1      15.561  12.627  36.852  0.00  0.00    +0.000 F 
ENDBRANCH  14  15
ENDBRANCH  13  14
ENDBRANCH  12  13
ENDBRANCH   6  12
TORSDOF 5
ENDMDL
MODEL 5
REMARK VINA RESULT:      -5.7      1.880      2.418
REMARK  Name = 
REMARK  5 active torsions:
REMARK  status: ('A' for Active; 'I' for Inactive)
REMARK    1  A    between atoms: C_2  and  C_3
REMARK    2  A    between atoms: N_9  and  C_10
REMARK    3  A    between atoms: C_10  and  C_11
REMARK    4  A    between atoms: C_11  and  O_12
REMARK    5  A    between atoms: O_12  and  C_13
REMARK                            x       y       z     vdW  Elec       q    Type
REMARK                         _______ _______ _______ _____ _____    ______ ____
ROOT
ATOM      1  C   UNL     1      35.420  20.052   8.320  0.00  0.00    +0.000 C 
ATOM      2  C   UNL     1      34.242  20.997   8.440  0.00  0.00    +0.000 C 
ATOM      3  N   UNL     1      33.626  21.211   7.149  0.00  0.00    +0.000 NA
ATOM      4  C   UNL     1      32.235  21.407   7.345  0.00  0.00    +0.000 C 
ATOM      5  O   UNL     1      31.398  21.910   6.534  0.00  0.00    +0.000 OA
ATOM      6  N   UNL     1      31.946  20.921   8.654  0.00  0.00    +0.000 N 
ATOM      7  C   UNL     1      33.147  20.439   9.241  0.00  0.00    +0.000 C 
ATOM      8  O   UNL     1      33.274  19.692  10.235  0.00  0.00    +0.000 OA
ENDROOT
BRANCH   2   9
ATOM      9  C   UNL     1      34.770  22.297   9.032  0.00  0.00    +0.000 C 
ATOM     10  C   UNL     1      34.336  22.433  10.519  0.00  0.00    +0.000 C 
ATOM     11  C   UNL     1      35.762  22.219  10.123  0.00  0.00    +0.000 C 
ENDBRANCH   2   9
BRANCH   6  12
ATOM     12  C   UNL     1      30.643  20.914   9.292  0.00  0.00    +0.000 C 
BRANCH  12  13
ATOM     13  C   UNL     1      30.491  22.087  10.244  0.00  0.00    +0.000 C 
BRANCH  13  14
ATOM     14  O   UNL     1      29.742  21.689  11.352  0.00  0.00    +0.000 OA
BRANCH  14  15
ATOM     15  C   UNL     1      28.660  22.375  11.863  0.00  0.00    +0.000 A 
ATOM     16  C   UNL     1      27.389  22.317  11.331  0.00  0.00    +0.000 A 
ATOM     17  C   UNL     1      26.321  23.016  11.865  0.00  0.00    +0.000 A 
ATOM     18  C   UNL     1      26.523  23.809  12.974  0.00  0.00    +0.000 A 
ATOM     19  C   UNL     1      27.792  23.888  13.531  0.00  0.00    +0.000 A 
ATOM     20  C   UNL     1      28.847  23.173  12.974  0.00  0.00    +0.000 A 
ATOM     21  F   UNL     1      30.103  23.246  13.517  0.00  0.00    +0.000 F 
ENDBRANCH  14  15
ENDBRANCH  13  14
ENDBRANCH  12  13
ENDBRANCH   6  12
TORSDOF 5
ENDMDL
MODEL 6
REMARK VINA RESULT:      -5.6     13.234     14.507
REMARK  Name = 
REMARK  5 active torsions:
REMARK  status: ('A' for Active; 'I' for Inactive)
REMARK    1  A    between atoms: C_2  and  C_3
REMARK    2  A    between atoms: N_9  and  C_10
REMARK    3  A    between atoms: C_10  and  C_11
REMARK    4  A    between atoms: C_11  and  O_12
REMARK    5  A    between atoms: O_12  and  C_13
REMARK                            x       y       z     vdW  Elec       q    Type
REMARK                         _______ _______ _______ _____ _____    ______ ____
ROOT
ATOM      1  C   UNL     1      31.814  23.313  24.524  0.00  0.00    +0.000 C 
ATOM      2  C   UNL     1      30.830  24.449  24.712  0.00  0.00    +0.000 C 
ATOM      3  N   UNL     1      31.510  25.644  25.161  0.00  0.00    +0.000 NA
ATOM      4  C   UNL     1      30.832  26.771  24.629  0.00  0.00    +0.000 C 
ATOM      5  O   UNL     1      30.914  27.980  25.008  0.00  0.00    +0.000 OA
ATOM      6  N   UNL     1      30.022  26.280  23.563  0.00  0.00    +0.000 N 
ATOM      7  C   UNL     1      30.208  24.875  23.454  0.00  0.00    +0.000 C 
ATOM      8  O   UNL     1      29.913  24.130  22.494  0.00  0.00    +0.000 OA
ENDROOT
BRANCH   2   9
ATOM      9  C   UNL     1      29.793  23.981  25.725  0.00  0.00    +0.000 C 
ATOM     10  C   UNL     1      29.528  22.457  25.566  0.00  0.00    +0.000 C 
ATOM     11  C   UNL     1      30.214  23.024  26.768  0.00  0.00    +0.000 C 
ENDBRANCH   2   9
BRANCH   6  12
ATOM     12  C   UNL     1      29.148  27.075  22.721  0.00  0.00    +0.000 C 
BRANCH  12  13
ATOM     13  C   UNL     1      27.835  27.375  23.420  0.00  0.00    +0.000 C 
BRANCH  13  14
ATOM     14  O   UNL     1      26.926  26.350  23.157  0.00  0.00    +0.000 OA
BRANCH  14  15
ATOM     15  C   UNL     1      26.590  25.345  24.040  0.00  0.00    +0.000 A 
ATOM     16  C   UNL     1      26.409  25.536  25.394  0.00  0.00    +0.000 A 
ATOM     17  C   UNL     1      26.072  24.508  26.257  0.00  0.00    +0.000 A 
ATOM     18  C   UNL     1      25.908  23.235  25.755  0.00  0.00    +0.000 A 
ATOM     19  C   UNL     1      26.084  23.012  24.396  0.00  0.00    +0.000 A 
ATOM     20  C   UNL     1      26.422  24.064  23.551  0.00  0.00    +0.000 A 
ATOM     21  F   UNL     1      26.598  23.853  22.209  0.00  0.00    +0.000 F 
ENDBRANCH  14  15
ENDBRANCH  13  14
ENDBRANCH  12  13
ENDBRANCH   6  12
TORSDOF 5
ENDMDL
MODEL 7
REMARK VINA RESULT:      -5.6     13.886     16.681
REMARK  Name = 
REMARK  5 active torsions:
REMARK  status: ('A' for Active; 'I' for Inactive)
REMARK    1  A    between atoms: C_2  and  C_3
REMARK    2  A    between atoms: N_9  and  C_10
REMARK    3  A    between atoms: C_10  and  C_11
REMARK    4  A    between atoms: C_11  and  O_12
REMARK    5  A    between atoms: O_12  and  C_13
REMARK                            x       y       z     vdW  Elec       q    Type
REMARK                         _______ _______ _______ _____ _____    ______ ____
ROOT
ATOM      1  C   UNL     1      28.167  24.845  28.817  0.00  0.00    +0.000 C 
ATOM      2  C   UNL     1      26.984  24.500  27.936  0.00  0.00    +0.000 C 
ATOM      3  N   UNL     1      26.545  25.661  27.194  0.00  0.00    +0.000 NA
ATOM      4  C   UNL     1      26.045  25.227  25.940  0.00  0.00    +0.000 C 
ATOM      5  O   UNL     1      25.306  25.869  25.132  0.00  0.00    +0.000 OA
ATOM      6  N   UNL     1      26.538  23.902  25.753  0.00  0.00    +0.000 N 
ATOM      7  C   UNL     1      27.325  23.541  26.880  0.00  0.00    +0.000 C 
ATOM      8  O   UNL     1      28.147  22.605  26.979  0.00  0.00    +0.000 OA
ENDROOT
BRANCH   2   9
ATOM      9  C   UNL     1      25.886  23.970  28.848  0.00  0.00    +0.000 C 
ATOM     10  C   UNL     1      26.448  22.870  29.793  0.00  0.00    +0.000 C 
ATOM     11  C   UNL     1      26.007  24.206  30.301  0.00  0.00    +0.000 C 
ENDBRANCH   2   9
BRANCH   6  12
ATOM     12  C   UNL     1      26.285  23.053  24.605  0.00  0.00    +0.000 C 
BRANCH  12  13
ATOM     13  C   UNL     1      27.076  23.514  23.394  0.00  0.00    +0.000 C 
BRANCH  13  14
ATOM     14  O   UNL     1      28.390  23.061  23.500  0.00  0.00    +0.000 OA
BRANCH  14  15
ATOM     15  C   UNL     1      29.463  23.830  23.902  0.00  0.00    +0.000 A 
ATOM     16  C   UNL     1      29.481  25.208  23.861  0.00  0.00    +0.000 A 
ATOM     17  C   UNL     1      30.572  25.955  24.271  0.00  0.00    +0.000 A 
ATOM     18  C   UNL     1      31.694  25.306  24.740  0.00  0.00    +0.000 A 
ATOM     19  C   UNL     1      31.704  23.919  24.792  0.00  0.00    +0.000 A 
ATOM     20  C   UNL     1      30.593  23.193  24.374  0.00  0.00    +0.000 A 
ATOM     21  F   UNL     1      30.596  21.824  24.421  0.00  0.00    +0.000 F 
ENDBRANCH  14  15
ENDBRANCH  13  14
ENDBRANCH  12  13
ENDBRANCH   6  12
TORSDOF 5
ENDMDL
MODEL 8
REMARK VINA RESULT:      -5.6     12.998     15.223
REMARK  Name = 
REMARK  5 active torsions:
REMARK  status: ('A' for Active; 'I' for Inactive)
REMARK    1  A    between atoms: C_2  and  C_3
REMARK    2  A    between atoms: N_9  and  C_10
REMARK    3  A    between atoms: C_10  and  C_11
REMARK    4  A    between atoms: C_11  and  O_12
REMARK    5  A    between atoms: O_12  and  C_13
REMARK                            x       y       z     vdW  Elec       q    Type
REMARK                         _______ _______ _______ _____ _____    ______ ____
ROOT
ATOM      1  C   UNL     1      29.845  26.834  23.938  0.00  0.00    +0.000 C 
ATOM      2  C   UNL     1      28.549  26.322  23.346  0.00  0.00    +0.000 C 
ATOM      3  N   UNL     1      28.785  25.143  22.542  0.00  0.00    +0.000 NA
ATOM      4  C   UNL     1      27.650  24.299  22.640  0.00  0.00    +0.000 C 
ATOM      5  O   UNL     1      27.327  23.337  21.877  0.00  0.00    +0.000 OA
ATOM      6  N   UNL     1      26.923  24.744  23.783  0.00  0.00    +0.000 N 
ATOM      7  C   UNL     1      27.610  25.842  24.366  0.00  0.00    +0.000 C 
ATOM      8  O   UNL     1      27.465  26.323  25.511  0.00  0.00    +0.000 OA
ENDROOT
BRANCH   2   9
ATOM      9  C   UNL     1      27.954  27.454  22.519  0.00  0.00    +0.000 C 
ATOM     10  C   UNL     1      28.930  27.865  21.380  0.00  0.00    +0.000 C 
ATOM     11  C   UNL     1      27.625  27.190  21.104  0.00  0.00    +0.000 C 
ENDBRANCH   2   9
BRANCH   6  12
ATOM     12  C   UNL     1      25.684  24.175  24.279  0.00  0.00    +0.000 C 
BRANCH  12  13
ATOM     13  C   UNL     1      25.934  22.874  25.021  0.00  0.00    +0.000 C 
BRANCH  13  14
ATOM     14  O   UNL     1      26.486  23.154  26.271  0.00  0.00    +0.000 OA
BRANCH  14  15
ATOM     15  C   UNL     1      27.784  22.873  26.644  0.00  0.00    +0.000 A 
ATOM     16  C   UNL     1      28.789  22.552  25.755  0.00  0.00    +0.000 A 
ATOM     17  C   UNL     1      30.084  22.275  26.157  0.00  0.00    +0.000 A 
ATOM     18  C   UNL     1      30.396  22.317  27.498  0.00  0.00    +0.000 A 
ATOM     19  C   UNL     1      29.405  22.637  28.417  0.00  0.00    +0.000 A 
ATOM     20  C   UNL     1      28.111  22.912  27.985  0.00  0.00    +0.000 A 
ATOM     21  F   UNL     1      27.127  23.228  28.884  0.00  0.00    +0.000 F 
ENDBRANCH  14  15
ENDBRANCH  13  14
ENDBRANCH  12  13
ENDBRANCH   6  12
TORSDOF 5
ENDMDL
MODEL 9
REMARK VINA RESULT:      -5.5     31.165     33.465
REMARK  Name = 
REMARK  5 active torsions:
REMARK  status: ('A' for Active; 'I' for Inactive)
REMARK    1  A    between atoms: C_2  and  C_3
REMARK    2  A    between atoms: N_9  and  C_10
REMARK    3  A    between atoms: C_10  and  C_11
REMARK    4  A    between atoms: C_11  and  O_12
REMARK    5  A    between atoms: O_12  and  C_13
REMARK                            x       y       z     vdW  Elec       q    Type
REMARK                         _______ _______ _______ _____ _____    ______ ____
ROOT
ATOM      1  C   UNL     1      18.241   7.634  42.922  0.00  0.00    +0.000 C 
ATOM      2  C   UNL     1      17.763   7.912  41.512  0.00  0.00    +0.000 C 
ATOM      3  N   UNL     1      16.526   8.661  41.530  0.00  0.00    +0.000 NA
ATOM      4  C   UNL     1      16.502   9.513  40.397  0.00  0.00    +0.000 C 
ATOM      5  O   UNL     1      15.500  10.100  39.884  0.00  0.00    +0.000 OA
ATOM      6  N   UNL     1      17.848   9.589  39.929  0.00  0.00    +0.000 N 
ATOM      7  C   UNL     1      18.671   8.792  40.769  0.00  0.00    +0.000 C 
ATOM      8  O   UNL     1      19.917   8.815  40.874  0.00  0.00    +0.000 OA
ENDROOT
BRANCH   2   9
ATOM      9  C   UNL     1      17.592   6.564  40.823  0.00  0.00    +0.000 C 
ATOM     10  C   UNL     1      18.869   5.695  41.005  0.00  0.00    +0.000 C 
ATOM     11  C   UNL     1      17.571   5.347  41.660  0.00  0.00    +0.000 C 
ENDBRANCH   2   9
BRANCH   6  12
ATOM     12  C   UNL     1      18.310  10.351  38.785  0.00  0.00    +0.000 C 
BRANCH  12  13
ATOM     13  C   UNL     1      17.478  10.052  37.551  0.00  0.00    +0.000 C 
BRANCH  13  14
ATOM     14  O   UNL     1      17.575  11.118  36.657  0.00  0.00    +0.000 OA
BRANCH  14  15
ATOM     15  C   UNL     1      16.856  11.238  35.486  0.00  0.00    +0.000 A 
ATOM     16  C   UNL     1      15.683  11.955  35.372  0.00  0.00    +0.000 A 
ATOM     17  C   UNL     1      14.982  12.059  34.184  0.00  0.00    +0.000 A 
ATOM     18  C   UNL     1      15.463  11.421  33.061  0.00  0.00    +0.000 A 
ATOM     19  C   UNL     1      16.640  10.691  33.146  0.00  0.00    +0.000 A 
ATOM     20  C   UNL     1      17.326  10.604  34.353  0.00  0.00    +0.000 A 
ATOM     21  F   UNL     1      18.488   9.885  34.446  0.00  0.00    +0.000 F 
ENDBRANCH  14  15
ENDBRANCH  13  14
ENDBRANCH  12  13
ENDBRANCH   6  12
TORSDOF 5
ENDMDL
MODEL 10
REMARK VINA RESULT:      -5.5     13.007     15.576
REMARK  Name = 
REMARK  5 active torsions:
REMARK  status: ('A' for Active; 'I' for Inactive)
REMARK    1  A    between atoms: C_2  and  C_3
REMARK    2  A    between atoms: N_9  and  C_10
REMARK    3  A    between atoms: C_10  and  C_11
REMARK    4  A    between atoms: C_11  and  O_12
REMARK    5  A    between atoms: O_12  and  C_13
REMARK                            x       y       z     vdW  Elec       q    Type
REMARK                         _______ _______ _______ _____ _____    ______ ____
ROOT
ATOM      1  C   UNL     1      28.689  27.857  23.448  0.00  0.00    +0.000 C 
ATOM      2  C   UNL     1      28.725  26.392  23.068  0.00  0.00    +0.000 C 
ATOM      3  N   UNL     1      30.025  25.823  23.347  0.00  0.00    +0.000 NA
ATOM      4  C   UNL     1      29.850  24.464  23.713  0.00  0.00    +0.000 C 
ATOM      5  O   UNL     1      30.727  23.547  23.744  0.00  0.00    +0.000 OA
ATOM      6  N   UNL     1      28.471  24.318  24.047  0.00  0.00    +0.000 N 
ATOM      7  C   UNL     1      27.823  25.572  23.884  0.00  0.00    +0.000 C 
ATOM      8  O   UNL     1      26.713  25.931  24.334  0.00  0.00    +0.000 OA
ENDROOT
BRANCH   2   9
ATOM      9  C   UNL     1      28.382  26.304  21.586  0.00  0.00    +0.000 C 
ATOM     10  C   UNL     1      29.381  27.149  20.746  0.00  0.00    +0.000 C 
ATOM     11  C   UNL     1      29.351  25.655  20.680  0.00  0.00    +0.000 C 
ENDBRANCH   2   9
BRANCH   6  12
ATOM     12  C   UNL     1      27.826  23.094  24.484  0.00  0.00    +0.000 C 
BRANCH  12  13
ATOM     13  C   UNL     1      28.014  22.874  25.974  0.00  0.00    +0.000 C 
BRANCH  13  14
ATOM     14  O   UNL     1      26.767  22.751  26.585  0.00  0.00    +0.000 OA
BRANCH  14  15
ATOM     15  C   UNL     1      26.312  23.540  27.622  0.00  0.00    +0.000 A 
ATOM     16  C   UNL     1      25.589  24.702  27.447  0.00  0.00    +0.000 A 
ATOM     17  C   UNL     1      25.145  25.474  28.506  0.00  0.00    +0.000 A 
ATOM     18  C   UNL     1      25.431  25.077  29.795  0.00  0.00    +0.000 A 
ATOM     19  C   UNL     1      26.157  23.911  30.001  0.00  0.00    +0.000 A 
ATOM     20  C   UNL     1      26.591  23.154  28.918  0.00  0.00    +0.000 A 
ATOM     21  F   UNL     1      27.308  22.003  29.113  0.00  0.00    +0.000 F 
ENDBRANCH  14  15
ENDBRANCH  13  14
ENDBRANCH  12  13
ENDBRANCH   6  12
TORSDOF 5
ENDMDL
