MODEL 1
REMARK VINA RESULT:      -6.7      0.000      0.000
REMARK  Name = 
REMARK  3 active torsions:
REMARK  status: ('A' for Active; 'I' for Inactive)
REMARK    1  A    between atoms: C_5  and  C_6
REMARK    2  A    between atoms: C_6  and  C_8
REMARK    3  A    between atoms: C_9  and  N_10
REMARK                            x       y       z     vdW  Elec       q    Type
REMARK                         _______ _______ _______ _____ _____    ______ ____
ROOT
ATOM      1  C   UNL     1      16.563  11.091  36.590  0.00  0.00    +0.000 C 
ATOM      2  O   UNL     1      16.650  11.856  37.525  0.00  0.00    +0.000 OA
ENDROOT
BRANCH   1   7
ATOM      3  C   UNL     1      21.538   9.909  36.880  0.00  0.00    +0.000 C 
ATOM      4  C   UNL     1      20.052   9.791  36.839  0.00  0.00    +0.000 C 
ATOM      5  C   UNL     1      19.370   9.648  35.723  0.00  0.00    +0.000 C 
ATOM      6  C   UNL     1      18.007   9.523  35.472  0.00  0.00    +0.000 C 
ATOM      7  C   UNL     1      17.006   9.549  36.731  0.00  0.00    +0.000 C 
ATOM      8  C   UNL     1      17.974   9.725  37.977  0.00  0.00    +0.000 C 
ATOM      9  C   UNL     1      17.151   9.769  39.293  0.00  0.00    +0.000 C 
ATOM     10  C   UNL     1      19.213   9.821  37.988  0.00  0.00    +0.000 C 
ENDBRANCH   1   7
BRANCH   1  11
ATOM     11  C   UNL     1      16.064  11.465  35.270  0.00  0.00    +0.000 C 
ATOM     12  C   UNL     1      15.183  12.385  35.038  0.00  0.00    +0.000 C 
BRANCH  12  13
ATOM     13  N   UNL     1      14.674  12.780  33.794  0.00  0.00    +0.000 N 
ATOM     14  C   UNL     1      14.943  12.124  32.629  0.00  0.00    +0.000 A 
ATOM     15  C   UNL     1      14.422  12.544  31.423  0.00  0.00    +0.000 A 
ATOM     16 CL   UNL     1      14.819  11.640  29.966  0.00  0.00    +0.000 Cl
ATOM     17  C   UNL     1      13.602  13.662  31.380  0.00  0.00    +0.000 A 
ATOM     18  C   UNL     1      13.325  14.328  32.545  0.00  0.00    +0.000 A 
ATOM     19  C   UNL     1      13.877  13.861  33.737  0.00  0.00    +0.000 A 
ATOM     20  N   UNL     1      13.589  14.555  34.949  0.00  0.00    +0.000 NA
ENDBRANCH  12  13
ENDBRANCH   1  11
TORSDOF 3
ENDMDL
MODEL 2
REMARK VINA RESULT:      -6.4      3.159      4.905
REMARK  Name = 
REMARK  3 active torsions:
REMARK  status: ('A' for Active; 'I' for Inactive)
REMARK    1  A    between atoms: C_5  and  C_6
REMARK    2  A    between atoms: C_6  and  C_8
REMARK    3  A    between atoms: C_9  and  N_10
REMARK                            x       y       z     vdW  Elec       q    Type
REMARK                         _______ _______ _______ _____ _____    ______ ____
ROOT
ATOM      1  C   UNL     1      17.906   9.407  39.310  0.00  0.00    +0.000 C 
ATOM      2  O   UNL     1      18.782   8.670  38.916  0.00  0.00    +0.000 OA
ENDROOT
BRANCH   1   7
ATOM      3  C   UNL     1      17.456   5.188  42.179  0.00  0.00    +0.000 C 
ATOM      4  C   UNL     1      17.503   6.618  41.755  0.00  0.00    +0.000 C 
ATOM      5  C   UNL     1      16.450   7.277  41.325  0.00  0.00    +0.000 C 
ATOM      6  C   UNL     1      16.285   8.589  40.890  0.00  0.00    +0.000 C 
ATOM      7  C   UNL     1      17.577   9.546  40.881  0.00  0.00    +0.000 C 
ATOM      8  C   UNL     1      18.742   8.610  41.419  0.00  0.00    +0.000 C 
ATOM      9  C   UNL     1      20.080   9.395  41.472  0.00  0.00    +0.000 C 
ATOM     10  C   UNL     1      18.680   7.418  41.768  0.00  0.00    +0.000 C 
ENDBRANCH   1   7
BRANCH   1  11
ATOM     11  C   UNL     1      17.072  10.229  38.438  0.00  0.00    +0.000 C 
ATOM     12  C   UNL     1      17.002  10.117  37.150  0.00  0.00    +0.000 C 
BRANCH  12  13
ATOM     13  N   UNL     1      16.220  10.878  36.271  0.00  0.00    +0.000 N 
ATOM     14  C   UNL     1      15.102  11.556  36.657  0.00  0.00    +0.000 A 
ATOM     15  C   UNL     1      14.357  12.295  35.761  0.00  0.00    +0.000 A 
ATOM     16 CL   UNL     1      12.927  13.141  36.341  0.00  0.00    +0.000 Cl
ATOM     17  C   UNL     1      14.746  12.358  34.431  0.00  0.00    +0.000 A 
ATOM     18  C   UNL     1      15.868  11.680  34.033  0.00  0.00    +0.000 A 
ATOM     19  C   UNL     1      16.585  10.948  34.980  0.00  0.00    +0.000 A 
ATOM     20  N   UNL     1      17.753  10.243  34.565  0.00  0.00    +0.000 NA
ENDBRANCH  12  13
ENDBRANCH   1  11
TORSDOF 3
ENDMDL
MODEL 3
REMARK VINA RESULT:      -6.4     21.041     22.227
REMARK  Name = 
REMARK  3 active torsions:
REMARK  status: ('A' for Active; 'I' for Inactive)
REMARK    1  A    between atoms: C_5  and  C_6
REMARK    2  A    between atoms: C_6  and  C_8
REMARK    3  A    between atoms: C_9  and  N_10
REMARK                            x       y       z     vdW  Elec       q    Type
REMARK                         _______ _______ _______ _____ _____    ______ ____
ROOT
ATOM      1  C   UNL     1      17.995  -8.509  25.559  0.00  0.00    +0.000 C 
ATOM      2  O   UNL     1      18.474  -8.861  24.504  0.00  0.00    +0.000 OA
ENDROOT
BRANCH   1   7
ATOM      3  C   UNL     1      22.711  -6.739  24.635  0.00  0.00    +0.000 C 
ATOM      4  C   UNL     1      21.468  -7.164  25.341  0.00  0.00    +0.000 C 
ATOM      5  C   UNL     1      21.260  -8.395  25.756  0.00  0.00    +0.000 C 
ATOM      6  C   UNL     1      20.190  -8.986  26.422  0.00  0.00    +0.000 C 
ATOM      7  C   UNL     1      18.930  -8.058  26.791  0.00  0.00    +0.000 C 
ATOM      8  C   UNL     1      19.337  -6.630  26.229  0.00  0.00    +0.000 C 
ATOM      9  C   UNL     1      18.209  -5.602  26.510  0.00  0.00    +0.000 C 
ATOM     10  C   UNL     1      20.381  -6.297  25.642  0.00  0.00    +0.000 C 
ENDBRANCH   1   7
BRANCH   1  11
ATOM     11  C   UNL     1      16.561  -8.454  25.830  0.00  0.00    +0.000 C 
ATOM     12  C   UNL     1      15.637  -8.931  25.059  0.00  0.00    +0.000 C 
BRANCH  12  13
ATOM     13  N   UNL     1      14.253  -8.905  25.273  0.00  0.00    +0.000 N 
ATOM     14  C   UNL     1      13.671  -9.228  26.463  0.00  0.00    +0.000 A 
ATOM     15  C   UNL     1      12.303  -9.190  26.636  0.00  0.00    +0.000 A 
ATOM     16 CL   UNL     1      11.632  -9.622  28.205  0.00  0.00    +0.000 Cl
ATOM     17  C   UNL     1      11.487  -8.815  25.579  0.00  0.00    +0.000 A 
ATOM     18  C   UNL     1      12.062  -8.488  24.378  0.00  0.00    +0.000 A 
ATOM     19  C   UNL     1      13.450  -8.544  24.258  0.00  0.00    +0.000 A 
ATOM     20  N   UNL     1      14.047  -8.203  23.009  0.00  0.00    +0.000 NA
ENDBRANCH  12  13
ENDBRANCH   1  11
TORSDOF 3
ENDMDL
MODEL 4
REMARK VINA RESULT:      -6.4     18.017     19.060
REMARK  Name = 
REMARK  3 active torsions:
REMARK  status: ('A' for Active; 'I' for Inactive)
REMARK    1  A    between atoms: C_5  and  C_6
REMARK    2  A    between atoms: C_6  and  C_8
REMARK    3  A    between atoms: C_9  and  N_10
REMARK                            x       y       z     vdW  Elec       q    Type
REMARK                         _______ _______ _______ _____ _____    ______ ____
ROOT
ATOM      1  C   UNL     1      34.463   6.396  35.568  0.00  0.00    +0.000 C 
ATOM      2  O   UNL     1      35.440   6.006  34.968  0.00  0.00    +0.000 OA
ENDROOT
BRANCH   1   7
ATOM      3  C   UNL     1      33.926   2.195  32.689  0.00  0.00    +0.000 C 
ATOM      4  C   UNL     1      33.686   3.256  33.709  0.00  0.00    +0.000 C 
ATOM      5  C   UNL     1      33.011   4.357  33.459  0.00  0.00    +0.000 C 
ATOM      6  C   UNL     1      32.682   5.450  34.256  0.00  0.00    +0.000 C 
ATOM      7  C   UNL     1      33.182   5.444  35.784  0.00  0.00    +0.000 C 
ATOM      8  C   UNL     1      33.966   4.070  35.917  0.00  0.00    +0.000 C 
ATOM      9  C   UNL     1      34.522   3.907  37.357  0.00  0.00    +0.000 C 
ATOM     10  C   UNL     1      34.154   3.197  35.052  0.00  0.00    +0.000 C 
ENDBRANCH   1   7
BRANCH   1  11
ATOM     11  C   UNL     1      34.336   7.731  36.147  0.00  0.00    +0.000 C 
ATOM     12  C   UNL     1      34.960   8.786  35.733  0.00  0.00    +0.000 C 
BRANCH  12  13
ATOM     13  N   UNL     1      34.872  10.085  36.252  0.00  0.00    +0.000 N 
ATOM     14  C   UNL     1      33.889  10.487  37.107  0.00  0.00    +0.000 A 
ATOM     15  C   UNL     1      33.835  11.775  37.597  0.00  0.00    +0.000 A 
ATOM     16 CL   UNL     1      32.533  12.212  38.697  0.00  0.00    +0.000 Cl
ATOM     17  C   UNL     1      34.802  12.695  37.219  0.00  0.00    +0.000 A 
ATOM     18  C   UNL     1      35.795  12.301  36.360  0.00  0.00    +0.000 A 
ATOM     19  C   UNL     1      35.801  10.987  35.894  0.00  0.00    +0.000 A 
ATOM     20  N   UNL     1      36.835  10.578  35.000  0.00  0.00    +0.000 NA
ENDBRANCH  12  13
ENDBRANCH   1  11
TORSDOF 3
ENDMDL
MODEL 5
REMARK VINA RESULT:      -6.4     21.536     23.076
REMARK  Name = 
REMARK  3 active torsions:
REMARK  status: ('A' for Active; 'I' for Inactive)
REMARK    1  A    between atoms: C_5  and  C_6
REMARK    2  A    between atoms: C_6  and  C_8
REMARK    3  A    between atoms: C_9  and  N_10
REMARK                            x       y       z     vdW  Elec       q    Type
REMARK                         _______ _______ _______ _____ _____    ______ ____
ROOT
ATOM      1  C   UNL     1      22.893  -8.489  24.422  0.00  0.00    +0.000 C 
ATOM      2  O   UNL     1      23.782  -9.169  24.885  0.00  0.00    +0.000 OA
ENDROOT
BRANCH   1   7
ATOM      3  C   UNL     1      27.610  -8.118  22.459  0.00  0.00    +0.000 C 
ATOM      4  C   UNL     1      26.148  -7.926  22.685  0.00  0.00    +0.000 C 
ATOM      5  C   UNL     1      25.657  -7.005  23.485  0.00  0.00    +0.000 C 
ATOM      6  C   UNL     1      24.350  -6.667  23.827  0.00  0.00    +0.000 C 
ATOM      7  C   UNL     1      23.157  -7.516  23.164  0.00  0.00    +0.000 C 
ATOM      8  C   UNL     1      23.910  -8.569  22.244  0.00  0.00    +0.000 C 
ATOM      9  C   UNL     1      22.883  -9.480  21.520  0.00  0.00    +0.000 C 
ATOM     10  C   UNL     1      25.133  -8.710  22.070  0.00  0.00    +0.000 C 
ENDBRANCH   1   7
BRANCH   1  11
ATOM     11  C   UNL     1      21.526  -8.469  24.932  0.00  0.00    +0.000 C 
ATOM     12  C   UNL     1      21.036  -7.568  25.721  0.00  0.00    +0.000 C 
BRANCH  12  13
ATOM     13  N   UNL     1      19.734  -7.504  26.237  0.00  0.00    +0.000 N 
ATOM     14  C   UNL     1      19.078  -8.583  26.751  0.00  0.00    +0.000 A 
ATOM     15  C   UNL     1      17.795  -8.481  27.250  0.00  0.00    +0.000 A 
ATOM     16 CL   UNL     1      17.018  -9.921  27.896  0.00  0.00    +0.000 Cl
ATOM     17  C   UNL     1      17.147  -7.254  27.233  0.00  0.00    +0.000 A 
ATOM     18  C   UNL     1      17.799  -6.164  26.719  0.00  0.00    +0.000 A 
ATOM     19  C   UNL     1      19.095  -6.323  26.227  0.00  0.00    +0.000 A 
ATOM     20  N   UNL     1      19.772  -5.189  25.692  0.00  0.00    +0.000 NA
ENDBRANCH  12  13
ENDBRANCH   1  11
TORSDOF 3
ENDMDL
MODEL 6
REMARK VINA RESULT:      -6.1     18.950     20.723
REMARK  Name = 
REMARK  3 active torsions:
REMARK  status: ('A' for Active; 'I' for Inactive)
REMARK    1  A    between atoms: C_5  and  C_6
REMARK    2  A    between atoms: C_6  and  C_8
REMARK    3  A    between atoms: C_9  and  N_10
REMARK                            x       y       z     vdW  Elec       q    Type
REMARK                         _______ _______ _______ _____ _____    ______ ____
ROOT
ATOM      1  C   UNL     1      30.249  22.615  25.856  0.00  0.00    +0.000 C 
ATOM      2  O   UNL     1      30.627  22.082  24.837  0.00  0.00    +0.000 OA
ENDROOT
BRANCH   1   7
ATOM      3  C   UNL     1      29.146  24.772  21.344  0.00  0.00    +0.000 C 
ATOM      4  C   UNL     1      29.224  24.510  22.810  0.00  0.00    +0.000 C 
ATOM      5  C   UNL     1      30.198  24.959  23.572  0.00  0.00    +0.000 C 
ATOM      6  C   UNL     1      30.451  24.829  24.935  0.00  0.00    +0.000 C 
ATOM      7  C   UNL     1      29.404  23.986  25.816  0.00  0.00    +0.000 C 
ATOM      8  C   UNL     1      28.311  23.524  24.762  0.00  0.00    +0.000 C 
ATOM      9  C   UNL     1      27.209  22.685  25.464  0.00  0.00    +0.000 C 
ATOM     10  C   UNL     1      28.265  23.754  23.541  0.00  0.00    +0.000 C 
ENDBRANCH   1   7
BRANCH   1  11
ATOM     11  C   UNL     1      30.507  22.097  27.197  0.00  0.00    +0.000 C 
ATOM     12  C   UNL     1      30.660  22.819  28.260  0.00  0.00    +0.000 C 
BRANCH  12  13
ATOM     13  N   UNL     1      30.908  22.372  29.564  0.00  0.00    +0.000 N 
ATOM     14  C   UNL     1      32.084  21.800  29.950  0.00  0.00    +0.000 A 
ATOM     15  C   UNL     1      32.291  21.371  31.245  0.00  0.00    +0.000 A 
ATOM     16 CL   UNL     1      33.838  20.642  31.661  0.00  0.00    +0.000 Cl
ATOM     17  C   UNL     1      31.285  21.522  32.188  0.00  0.00    +0.000 A 
ATOM     18  C   UNL     1      30.100  22.097  31.811  0.00  0.00    +0.000 A 
ATOM     19  C   UNL     1      29.943  22.512  30.488  0.00  0.00    +0.000 A 
ATOM     20  N   UNL     1      28.710  23.110  30.096  0.00  0.00    +0.000 NA
ENDBRANCH  12  13
ENDBRANCH   1  11
TORSDOF 3
ENDMDL
MODEL 7
REMARK VINA RESULT:      -6.1     19.037     20.821
REMARK  Name = 
REMARK  3 active torsions:
REMARK  status: ('A' for Active; 'I' for Inactive)
REMARK    1  A    between atoms: C_5  and  C_6
REMARK    2  A    between atoms: C_6  and  C_8
REMARK    3  A    between atoms: C_9  and  N_10
REMARK                            x       y       z     vdW  Elec       q    Type
REMARK                         _______ _______ _______ _____ _____    ______ ____
ROOT
ATOM      1  C   UNL     1      34.247   3.755  36.493  0.00  0.00    +0.000 C 
ATOM      2  O   UNL     1      33.792   4.370  37.431  0.00  0.00    +0.000 OA
ENDROOT
BRANCH   1   7
ATOM      3  C   UNL     1      34.378   8.874  36.409  0.00  0.00    +0.000 C 
ATOM      4  C   UNL     1      34.590   7.443  36.045  0.00  0.00    +0.000 C 
ATOM      5  C   UNL     1      33.756   6.760  35.292  0.00  0.00    +0.000 C 
ATOM      6  C   UNL     1      33.769   5.442  34.844  0.00  0.00    +0.000 C 
ATOM      7  C   UNL     1      35.003   4.511  35.287  0.00  0.00    +0.000 C 
ATOM      8  C   UNL     1      35.899   5.473  36.177  0.00  0.00    +0.000 C 
ATOM      9  C   UNL     1      37.152   4.714  36.691  0.00  0.00    +0.000 C 
ATOM     10  C   UNL     1      35.704   6.665  36.467  0.00  0.00    +0.000 C 
ENDBRANCH   1   7
BRANCH   1  11
ATOM     11  C   UNL     1      34.166   2.304  36.348  0.00  0.00    +0.000 C 
ATOM     12  C   UNL     1      33.869   1.679  35.254  0.00  0.00    +0.000 C 
BRANCH  12  13
ATOM     13  N   UNL     1      33.780   0.293  35.064  0.00  0.00    +0.000 N 
ATOM     14  C   UNL     1      33.654  -0.598  36.087  0.00  0.00    +0.000 A 
ATOM     15  C   UNL     1      33.569  -1.956  35.860  0.00  0.00    +0.000 A 
ATOM     16 CL   UNL     1      33.409  -3.040  37.238  0.00  0.00    +0.000 Cl
ATOM     17  C   UNL     1      33.609  -2.440  34.560  0.00  0.00    +0.000 A 
ATOM     18  C   UNL     1      33.734  -1.551  33.524  0.00  0.00    +0.000 A 
ATOM     19  C   UNL     1      33.817  -0.189  33.811  0.00  0.00    +0.000 A 
ATOM     20  N   UNL     1      33.947   0.735  32.732  0.00  0.00    +0.000 NA
ENDBRANCH  12  13
ENDBRANCH   1  11
TORSDOF 3
ENDMDL
MODEL 8
REMARK VINA RESULT:      -6.0     21.112     24.394
REMARK  Name = 
REMARK  3 active torsions:
REMARK  status: ('A' for Active; 'I' for Inactive)
REMARK    1  A    between atoms: C_5  and  C_6
REMARK    2  A    between atoms: C_6  and  C_8
REMARK    3  A    between atoms: C_9  and  N_10
REMARK                            x       y       z     vdW  Elec       q    Type
REMARK                         _______ _______ _______ _____ _____    ______ ____
ROOT
ATOM      1  C   UNL     1      33.756  -5.558  31.902  0.00  0.00    +0.000 C 
ATOM      2  O   UNL     1      32.921  -6.427  32.015  0.00  0.00    +0.000 OA
ENDROOT
BRANCH   1   7
ATOM      3  C   UNL     1      34.941 -10.343  30.512  0.00  0.00    +0.000 C 
ATOM      4  C   UNL     1      35.017  -8.870  30.734  0.00  0.00    +0.000 C 
ATOM      5  C   UNL     1      35.495  -8.330  31.834  0.00  0.00    +0.000 C 
ATOM      6  C   UNL     1      35.650  -7.005  32.231  0.00  0.00    +0.000 C 
ATOM      7  C   UNL     1      35.181  -5.855  31.211  0.00  0.00    +0.000 C 
ATOM      8  C   UNL     1      34.637  -6.664  29.957  0.00  0.00    +0.000 C 
ATOM      9  C   UNL     1      34.138  -5.683  28.862  0.00  0.00    +0.000 C 
ATOM     10  C   UNL     1      34.584  -7.895  29.793  0.00  0.00    +0.000 C 
ENDBRANCH   1   7
BRANCH   1  11
ATOM     11  C   UNL     1      33.576  -4.184  32.364  0.00  0.00    +0.000 C 
ATOM     12  C   UNL     1      33.469  -3.821  33.601  0.00  0.00    +0.000 C 
BRANCH  12  13
ATOM     13  N   UNL     1      33.297  -2.521  34.095  0.00  0.00    +0.000 N 
ATOM     14  C   UNL     1      33.636  -1.402  33.394  0.00  0.00    +0.000 A 
ATOM     15  C   UNL     1      33.451  -0.137  33.914  0.00  0.00    +0.000 A 
ATOM     16 CL   UNL     1      33.914   1.256  32.944  0.00  0.00    +0.000 Cl
ATOM     17  C   UNL     1      32.907   0.012  35.181  0.00  0.00    +0.000 A 
ATOM     18  C   UNL     1      32.564  -1.107  35.894  0.00  0.00    +0.000 A 
ATOM     19  C   UNL     1      32.772  -2.361  35.321  0.00  0.00    +0.000 A 
ATOM     20  N   UNL     1      32.414  -3.525  36.063  0.00  0.00    +0.000 NA
ENDBRANCH  12  13
ENDBRANCH   1  11
TORSDOF 3
ENDMDL
MODEL 9
REMARK VINA RESULT:      -6.0     18.517     20.521
REMARK  Name = 
REMARK  3 active torsions:
REMARK  status: ('A' for Active; 'I' for Inactive)
REMARK    1  A    between atoms: C_5  and  C_6
REMARK    2  A    between atoms: C_6  and  C_8
REMARK    3  A    between atoms: C_9  and  N_10
REMARK                            x       y       z     vdW  Elec       q    Type
REMARK                         _______ _______ _______ _____ _____    ______ ____
ROOT
ATOM      1  C   UNL     1      30.170  23.511  27.339  0.00  0.00    +0.000 C 
ATOM      2  O   UNL     1      30.012  24.608  26.852  0.00  0.00    +0.000 OA
ENDROOT
BRANCH   1   7
ATOM      3  C   UNL     1      26.491  23.616  23.777  0.00  0.00    +0.000 C 
ATOM      4  C   UNL     1      27.591  23.145  24.668  0.00  0.00    +0.000 C 
ATOM      5  C   UNL     1      27.383  22.635  25.862  0.00  0.00    +0.000 C 
ATOM      6  C   UNL     1      28.254  22.146  26.832  0.00  0.00    +0.000 C 
ATOM      7  C   UNL     1      29.829  22.173  26.510  0.00  0.00    +0.000 C 
ATOM      8  C   UNL     1      29.904  22.807  25.056  0.00  0.00    +0.000 C 
ATOM      9  C   UNL     1      31.382  22.904  24.589  0.00  0.00    +0.000 C 
ATOM     10  C   UNL     1      28.973  23.193  24.329  0.00  0.00    +0.000 C 
ENDBRANCH   1   7
BRANCH   1  11
ATOM     11  C   UNL     1      30.671  23.280  28.691  0.00  0.00    +0.000 C 
ATOM     12  C   UNL     1      31.378  22.261  29.061  0.00  0.00    +0.000 C 
BRANCH  12  13
ATOM     13  N   UNL     1      31.882  21.994  30.341  0.00  0.00    +0.000 N 
ATOM     14  C   UNL     1      31.089  21.781  31.430  0.00  0.00    +0.000 A 
ATOM     15  C   UNL     1      31.623  21.521  32.675  0.00  0.00    +0.000 A 
ATOM     16 CL   UNL     1      30.530  21.258  34.029  0.00  0.00    +0.000 Cl
ATOM     17  C   UNL     1      33.000  21.471  32.837  0.00  0.00    +0.000 A 
ATOM     18  C   UNL     1      33.805  21.683  31.748  0.00  0.00    +0.000 A 
ATOM     19  C   UNL     1      33.213  21.942  30.512  0.00  0.00    +0.000 A 
ATOM     20  N   UNL     1      34.052  22.162  29.380  0.00  0.00    +0.000 NA
ENDBRANCH  12  13
ENDBRANCH   1  11
TORSDOF 3
ENDMDL
MODEL 10
REMARK VINA RESULT:      -6.0      2.652      3.798
REMARK  Name = 
REMARK  3 active torsions:
REMARK  status: ('A' for Active; 'I' for Inactive)
REMARK    1  A    between atoms: C_5  and  C_6
REMARK    2  A    between atoms: C_6  and  C_8
REMARK    3  A    between atoms: C_9  and  N_10
REMARK                            x       y       z     vdW  Elec       q    Type
REMARK                         _______ _______ _______ _____ _____    ______ ____
ROOT
ATOM      1  C   UNL     1      17.392   9.958  38.904  0.00  0.00    +0.000 C 
ATOM      2  O   UNL     1      16.951   9.771  40.016  0.00  0.00    +0.000 OA
ENDROOT
BRANCH   1   7
ATOM      3  C   UNL     1      21.194  10.782  42.236  0.00  0.00    +0.000 C 
ATOM      4  C   UNL     1      20.439  10.362  41.020  0.00  0.00    +0.000 C 
ATOM      5  C   UNL     1      20.243  11.149  39.985  0.00  0.00    +0.000 C 
ATOM      6  C   UNL     1      19.579  10.954  38.776  0.00  0.00    +0.000 C 
ATOM      7  C   UNL     1      18.895   9.523  38.519  0.00  0.00    +0.000 C 
ATOM      8  C   UNL     1      19.219   8.707  39.842  0.00  0.00    +0.000 C 
ATOM      9  C   UNL     1      18.617   7.279  39.753  0.00  0.00    +0.000 C 
ATOM     10  C   UNL     1      19.852   9.078  40.845  0.00  0.00    +0.000 C 
ENDBRANCH   1   7
BRANCH   1  11
ATOM     11  C   UNL     1      16.640  10.581  37.818  0.00  0.00    +0.000 C 
ATOM     12  C   UNL     1      17.003  10.601  36.576  0.00  0.00    +0.000 C 
BRANCH  12  13
ATOM     13  N   UNL     1      16.319  11.183  35.499  0.00  0.00    +0.000 N 
ATOM     14  C   UNL     1      15.352  12.132  35.650  0.00  0.00    +0.000 A 
ATOM     15  C   UNL     1      14.700  12.682  34.565  0.00  0.00    +0.000 A 
ATOM     16 CL   UNL     1      13.464  13.903  34.846  0.00  0.00    +0.000 Cl
ATOM     17  C   UNL     1      15.029  12.266  33.283  0.00  0.00    +0.000 A 
ATOM     18  C   UNL     1      16.000  11.313  33.121  0.00  0.00    +0.000 A 
ATOM     19  C   UNL     1      16.627  10.790  34.252  0.00  0.00    +0.000 A 
ATOM     20  N   UNL     1      17.637   9.798  34.083  0.00  0.00    +0.000 NA
ENDBRANCH  12  13
ENDBRANCH   1  11
TORSDOF 3
ENDMDL
