MODEL 1
REMARK VINA RESULT:      -5.9      0.000      0.000
REMARK  Name = 
REMARK  3 active torsions:
REMARK  status: ('A' for Active; 'I' for Inactive)
REMARK    1  A    between atoms: C_5  and  C_6
REMARK    2  A    between atoms: N_8  and  C_9
REMARK    3  A    between atoms: C_15  and  C_16
REMARK                            x       y       z     vdW  Elec       q    Type
REMARK                         _______ _______ _______ _____ _____    ______ ____
ROOT
ATOM      1  C   UNL     1      18.000   9.863  37.594  0.00  0.00    +0.000 A 
ATOM      2  N   UNL     1      17.241   9.610  38.671  0.00  0.00    +0.000 NA
ATOM      3  N   UNL     1      17.969   9.224  39.704  0.00  0.00    +0.000 N 
ATOM      4  C   UNL     1      19.246   9.225  39.287  0.00  0.00    +0.000 A 
ATOM      5  N   UNL     1      20.345   8.865  40.112  0.00  0.00    +0.000 NA
ATOM      6  C   UNL     1      19.307   9.619  37.969  0.00  0.00    +0.000 A 
ENDROOT
BRANCH   1  11
ATOM      7  C   UNL     1      16.225  11.709  32.425  0.00  0.00    +0.000 C 
ATOM      8  C   UNL     1      16.693  11.209  33.741  0.00  0.00    +0.000 A 
ATOM      9  C   UNL     1      17.358  10.016  33.887  0.00  0.00    +0.000 A 
ATOM     10  C   UNL     1      17.781   9.580  35.130  0.00  0.00    +0.000 A 
ATOM     11  C   UNL     1      17.557  10.312  36.260  0.00  0.00    +0.000 A 
ATOM     12  C   UNL     1      16.882  11.529  36.136  0.00  0.00    +0.000 A 
ATOM     13  C   UNL     1      16.468  11.948  34.888  0.00  0.00    +0.000 A 
ENDBRANCH   1  11
BRANCH   3  14
ATOM     14  C   UNL     1      17.490   8.863  41.047  0.00  0.00    +0.000 C 
ATOM     15  C   UNL     1      18.296   9.600  42.072  0.00  0.00    +0.000 C 
ATOM     16  C   UNL     1      17.580   7.382  41.236  0.00  0.00    +0.000 C 
ATOM     17  C   UNL     1      16.026   9.278  41.200  0.00  0.00    +0.000 C 
ENDBRANCH   3  14
BRANCH   6  18
ATOM     18  C   UNL     1      20.471   9.760  37.128  0.00  0.00    +0.000 C 
ATOM     19  N   UNL     1      21.417   9.864  36.465  0.00  0.00    +0.000 NA
ENDBRANCH   6  18
TORSDOF 3
ENDMDL
MODEL 2
REMARK VINA RESULT:      -5.9     18.471     20.762
REMARK  Name = 
REMARK  3 active torsions:
REMARK  status: ('A' for Active; 'I' for Inactive)
REMARK    1  A    between atoms: C_5  and  C_6
REMARK    2  A    between atoms: N_8  and  C_9
REMARK    3  A    between atoms: C_15  and  C_16
REMARK                            x       y       z     vdW  Elec       q    Type
REMARK                         _______ _______ _______ _____ _____    ______ ____
ROOT
ATOM      1  C   UNL     1      33.815  -2.260  33.760  0.00  0.00    +0.000 A 
ATOM      2  N   UNL     1      33.587  -3.187  32.817  0.00  0.00    +0.000 NA
ATOM      3  N   UNL     1      33.812  -4.409  33.266  0.00  0.00    +0.000 N 
ATOM      4  C   UNL     1      34.200  -4.276  34.545  0.00  0.00    +0.000 A 
ATOM      5  N   UNL     1      34.538  -5.370  35.384  0.00  0.00    +0.000 NA
ATOM      6  C   UNL     1      34.215  -2.943  34.892  0.00  0.00    +0.000 A 
ENDROOT
BRANCH   1  11
ATOM      7  C   UNL     1      33.347   3.463  33.215  0.00  0.00    +0.000 C 
ATOM      8  C   UNL     1      33.447   1.992  33.379  0.00  0.00    +0.000 A 
ATOM      9  C   UNL     1      32.743   1.303  34.335  0.00  0.00    +0.000 A 
ATOM     10  C   UNL     1      32.860  -0.070  34.459  0.00  0.00    +0.000 A 
ATOM     11  C   UNL     1      33.676  -0.796  33.642  0.00  0.00    +0.000 A 
ATOM     12  C   UNL     1      34.403  -0.116  32.661  0.00  0.00    +0.000 A 
ATOM     13  C   UNL     1      34.273   1.253  32.552  0.00  0.00    +0.000 A 
ENDBRANCH   1  11
BRANCH   3  14
ATOM     14  C   UNL     1      33.669  -5.671  32.524  0.00  0.00    +0.000 C 
ATOM     15  C   UNL     1      33.194  -5.375  31.135  0.00  0.00    +0.000 C 
ATOM     16  C   UNL     1      32.727  -6.580  33.246  0.00  0.00    +0.000 C 
ATOM     17  C   UNL     1      35.028  -6.367  32.427  0.00  0.00    +0.000 C 
ENDBRANCH   3  14
BRANCH   6  18
ATOM     18  C   UNL     1      34.568  -2.350  36.159  0.00  0.00    +0.000 C 
ATOM     19  N   UNL     1      34.853  -1.891  37.186  0.00  0.00    +0.000 NA
ENDBRANCH   6  18
TORSDOF 3
ENDMDL
MODEL 3
REMARK VINA RESULT:      -5.8     19.713     21.852
REMARK  Name = 
REMARK  3 active torsions:
REMARK  status: ('A' for Active; 'I' for Inactive)
REMARK    1  A    between atoms: C_5  and  C_6
REMARK    2  A    between atoms: N_8  and  C_9
REMARK    3  A    between atoms: C_15  and  C_16
REMARK                            x       y       z     vdW  Elec       q    Type
REMARK                         _______ _______ _______ _____ _____    ______ ____
ROOT
ATOM      1  C   UNL     1      33.529  -4.164  32.718  0.00  0.00    +0.000 A 
ATOM      2  N   UNL     1      33.845  -2.862  32.793  0.00  0.00    +0.000 NA
ATOM      3  N   UNL     1      33.396  -2.313  33.908  0.00  0.00    +0.000 N 
ATOM      4  C   UNL     1      32.767  -3.289  34.584  0.00  0.00    +0.000 A 
ATOM      5  N   UNL     1      32.142  -3.099  35.845  0.00  0.00    +0.000 NA
ATOM      6  C   UNL     1      32.828  -4.465  33.870  0.00  0.00    +0.000 A 
ENDROOT
BRANCH   1  11
ATOM      7  C   UNL     1      34.699  -7.834  28.424  0.00  0.00    +0.000 C 
ATOM      8  C   UNL     1      34.423  -6.901  29.544  0.00  0.00    +0.000 A 
ATOM      9  C   UNL     1      35.205  -6.843  30.671  0.00  0.00    +0.000 A 
ATOM     10  C   UNL     1      34.918  -5.960  31.696  0.00  0.00    +0.000 A 
ATOM     11  C   UNL     1      33.851  -5.112  31.634  0.00  0.00    +0.000 A 
ATOM     12  C   UNL     1      33.040  -5.153  30.497  0.00  0.00    +0.000 A 
ATOM     13  C   UNL     1      33.342  -6.040  29.484  0.00  0.00    +0.000 A 
ENDBRANCH   1  11
BRANCH   3  14
ATOM     14  C   UNL     1      33.549  -0.914  34.337  0.00  0.00    +0.000 C 
ATOM     15  C   UNL     1      34.551  -0.846  35.448  0.00  0.00    +0.000 C 
ATOM     16  C   UNL     1      32.223  -0.365  34.756  0.00  0.00    +0.000 C 
ATOM     17  C   UNL     1      34.070  -0.073  33.171  0.00  0.00    +0.000 C 
ENDBRANCH   3  14
BRANCH   6  18
ATOM     18  C   UNL     1      32.287  -5.756  34.220  0.00  0.00    +0.000 C 
ATOM     19  N   UNL     1      31.834  -6.788  34.494  0.00  0.00    +0.000 NA
ENDBRANCH   6  18
TORSDOF 3
ENDMDL
MODEL 4
REMARK VINA RESULT:      -5.8      0.169      1.468
REMARK  Name = 
REMARK  3 active torsions:
REMARK  status: ('A' for Active; 'I' for Inactive)
REMARK    1  A    between atoms: C_5  and  C_6
REMARK    2  A    between atoms: N_8  and  C_9
REMARK    3  A    between atoms: C_15  and  C_16
REMARK                            x       y       z     vdW  Elec       q    Type
REMARK                         _______ _______ _______ _____ _____    ______ ____
ROOT
ATOM      1  C   UNL     1      17.953   9.905  37.750  0.00  0.00    +0.000 A 
ATOM      2  N   UNL     1      17.193   9.664  38.829  0.00  0.00    +0.000 NA
ATOM      3  N   UNL     1      17.919   9.281  39.864  0.00  0.00    +0.000 N 
ATOM      4  C   UNL     1      19.196   9.271  39.447  0.00  0.00    +0.000 A 
ATOM      5  N   UNL     1      20.293   8.911  40.274  0.00  0.00    +0.000 NA
ATOM      6  C   UNL     1      19.259   9.656  38.126  0.00  0.00    +0.000 A 
ENDROOT
BRANCH   1  11
ATOM      7  C   UNL     1      16.265  11.537  32.481  0.00  0.00    +0.000 C 
ATOM      8  C   UNL     1      16.689  11.145  33.848  0.00  0.00    +0.000 A 
ATOM      9  C   UNL     1      16.524  11.961  34.939  0.00  0.00    +0.000 A 
ATOM     10  C   UNL     1      16.931  11.563  36.199  0.00  0.00    +0.000 A 
ATOM     11  C   UNL     1      17.512  10.347  36.413  0.00  0.00    +0.000 A 
ATOM     12  C   UNL     1      17.690   9.498  35.318  0.00  0.00    +0.000 A 
ATOM     13  C   UNL     1      17.278   9.913  34.068  0.00  0.00    +0.000 A 
ENDBRANCH   1  11
BRANCH   3  14
ATOM     14  C   UNL     1      17.439   8.932  41.210  0.00  0.00    +0.000 C 
ATOM     15  C   UNL     1      15.992   9.304  41.327  0.00  0.00    +0.000 C 
ATOM     16  C   UNL     1      18.271   9.625  42.241  0.00  0.00    +0.000 C 
ATOM     17  C   UNL     1      17.563   7.423  41.426  0.00  0.00    +0.000 C 
ENDBRANCH   3  14
BRANCH   6  18
ATOM     18  C   UNL     1      20.423   9.784  37.283  0.00  0.00    +0.000 C 
ATOM     19  N   UNL     1      21.366   9.870  36.614  0.00  0.00    +0.000 NA
ENDBRANCH   6  18
TORSDOF 3
ENDMDL
MODEL 5
REMARK VINA RESULT:      -5.7      1.856      6.492
REMARK  Name = 
REMARK  3 active torsions:
REMARK  status: ('A' for Active; 'I' for Inactive)
REMARK    1  A    between atoms: C_5  and  C_6
REMARK    2  A    between atoms: N_8  and  C_9
REMARK    3  A    between atoms: C_15  and  C_16
REMARK                            x       y       z     vdW  Elec       q    Type
REMARK                         _______ _______ _______ _____ _____    ______ ____
ROOT
ATOM      1  C   UNL     1      17.026   9.538  39.957  0.00  0.00    +0.000 A 
ATOM      2  N   UNL     1      16.257  10.259  39.126  0.00  0.00    +0.000 NA
ATOM      3  N   UNL     1      16.893  10.562  38.009  0.00  0.00    +0.000 N 
ATOM      4  C   UNL     1      18.119  10.021  38.113  0.00  0.00    +0.000 A 
ATOM      5  N   UNL     1      19.115  10.126  37.107  0.00  0.00    +0.000 NA
ATOM      6  C   UNL     1      18.241   9.371  39.321  0.00  0.00    +0.000 A 
ENDROOT
BRANCH   1  11
ATOM      7  C   UNL     1      15.620   7.395  45.124  0.00  0.00    +0.000 C 
ATOM      8  C   UNL     1      15.989   7.973  43.809  0.00  0.00    +0.000 A 
ATOM      9  C   UNL     1      16.452   9.258  43.667  0.00  0.00    +0.000 A 
ATOM     10  C   UNL     1      16.787   9.765  42.425  0.00  0.00    +0.000 A 
ATOM     11  C   UNL     1      16.673   9.014  41.291  0.00  0.00    +0.000 A 
ATOM     12  C   UNL     1      16.204   7.704  41.410  0.00  0.00    +0.000 A 
ATOM     13  C   UNL     1      15.874   7.215  42.657  0.00  0.00    +0.000 A 
ENDBRANCH   1  11
BRANCH   3  14
ATOM     14  C   UNL     1      16.375  11.336  36.870  0.00  0.00    +0.000 C 
ATOM     15  C   UNL     1      16.611  10.568  35.605  0.00  0.00    +0.000 C 
ATOM     16  C   UNL     1      17.032  12.678  36.830  0.00  0.00    +0.000 C 
ATOM     17  C   UNL     1      14.869  11.542  37.030  0.00  0.00    +0.000 C 
ENDBRANCH   3  14
BRANCH   6  18
ATOM     18  C   UNL     1      19.380   8.657  39.844  0.00  0.00    +0.000 C 
ATOM     19  N   UNL     1      20.308   8.096  40.257  0.00  0.00    +0.000 NA
ENDBRANCH   6  18
TORSDOF 3
ENDMDL
MODEL 6
REMARK VINA RESULT:      -5.7     16.887     18.261
REMARK  Name = 
REMARK  3 active torsions:
REMARK  status: ('A' for Active; 'I' for Inactive)
REMARK    1  A    between atoms: C_5  and  C_6
REMARK    2  A    between atoms: N_8  and  C_9
REMARK    3  A    between atoms: C_15  and  C_16
REMARK                            x       y       z     vdW  Elec       q    Type
REMARK                         _______ _______ _______ _____ _____    ______ ____
ROOT
ATOM      1  C   UNL     1      34.374   3.423  35.867  0.00  0.00    +0.000 A 
ATOM      2  N   UNL     1      34.207   2.567  34.847  0.00  0.00    +0.000 NA
ATOM      3  N   UNL     1      33.872   1.361  35.271  0.00  0.00    +0.000 N 
ATOM      4  C   UNL     1      33.818   1.432  36.611  0.00  0.00    +0.000 A 
ATOM      5  N   UNL     1      33.490   0.332  37.447  0.00  0.00    +0.000 NA
ATOM      6  C   UNL     1      34.127   2.709  37.024  0.00  0.00    +0.000 A 
ENDROOT
BRANCH   1  11
ATOM      7  C   UNL     1      35.939   8.968  35.588  0.00  0.00    +0.000 C 
ATOM      8  C   UNL     1      35.507   7.551  35.663  0.00  0.00    +0.000 A 
ATOM      9  C   UNL     1      34.195   7.184  35.832  0.00  0.00    +0.000 A 
ATOM     10  C   UNL     1      33.827   5.852  35.898  0.00  0.00    +0.000 A 
ATOM     11  C   UNL     1      34.747   4.849  35.799  0.00  0.00    +0.000 A 
ATOM     12  C   UNL     1      36.089   5.198  35.627  0.00  0.00    +0.000 A 
ATOM     13  C   UNL     1      36.437   6.532  35.563  0.00  0.00    +0.000 A 
ENDBRANCH   1  11
BRANCH   3  14
ATOM     14  C   UNL     1      33.608   0.169  34.449  0.00  0.00    +0.000 C 
ATOM     15  C   UNL     1      32.177  -0.239  34.621  0.00  0.00    +0.000 C 
ATOM     16  C   UNL     1      34.544  -0.930  34.836  0.00  0.00    +0.000 C 
ATOM     17  C   UNL     1      33.837   0.500  32.974  0.00  0.00    +0.000 C 
ENDBRANCH   3  14
BRANCH   6  18
ATOM     18  C   UNL     1      34.190   3.227  38.369  0.00  0.00    +0.000 C 
ATOM     19  N   UNL     1      34.234   3.626  39.457  0.00  0.00    +0.000 NA
ENDBRANCH   6  18
TORSDOF 3
ENDMDL
MODEL 7
REMARK VINA RESULT:      -5.6     16.919     18.157
REMARK  Name = 
REMARK  3 active torsions:
REMARK  status: ('A' for Active; 'I' for Inactive)
REMARK    1  A    between atoms: C_5  and  C_6
REMARK    2  A    between atoms: N_8  and  C_9
REMARK    3  A    between atoms: C_15  and  C_16
REMARK                            x       y       z     vdW  Elec       q    Type
REMARK                         _______ _______ _______ _____ _____    ______ ____
ROOT
ATOM      1  C   UNL     1      34.151   2.960  35.439  0.00  0.00    +0.000 A 
ATOM      2  N   UNL     1      34.106   2.056  36.430  0.00  0.00    +0.000 NA
ATOM      3  N   UNL     1      33.748   0.863  35.988  0.00  0.00    +0.000 N 
ATOM      4  C   UNL     1      33.553   0.993  34.665  0.00  0.00    +0.000 A 
ATOM      5  N   UNL     1      33.155  -0.075  33.818  0.00  0.00    +0.000 NA
ATOM      6  C   UNL     1      33.795   2.294  34.283  0.00  0.00    +0.000 A 
ENDROOT
BRANCH   1  11
ATOM      7  C   UNL     1      35.642   8.520  35.813  0.00  0.00    +0.000 C 
ATOM      8  C   UNL     1      35.229   7.098  35.717  0.00  0.00    +0.000 A 
ATOM      9  C   UNL     1      33.913   6.710  35.666  0.00  0.00    +0.000 A 
ATOM     10  C   UNL     1      33.563   5.375  35.576  0.00  0.00    +0.000 A 
ATOM     11  C   UNL     1      34.505   4.389  35.535  0.00  0.00    +0.000 A 
ATOM     12  C   UNL     1      35.851   4.760  35.586  0.00  0.00    +0.000 A 
ATOM     13  C   UNL     1      36.181   6.096  35.675  0.00  0.00    +0.000 A 
ENDBRANCH   1  11
BRANCH   3  14
ATOM     14  C   UNL     1      33.591  -0.369  36.776  0.00  0.00    +0.000 C 
ATOM     15  C   UNL     1      34.856  -1.168  36.698  0.00  0.00    +0.000 C 
ATOM     16  C   UNL     1      32.417  -1.146  36.273  0.00  0.00    +0.000 C 
ATOM     17  C   UNL     1      33.341  -0.014  38.242  0.00  0.00    +0.000 C 
ENDBRANCH   3  14
BRANCH   6  18
ATOM     18  C   UNL     1      33.706   2.872  32.964  0.00  0.00    +0.000 C 
ATOM     19  N   UNL     1      33.619   3.326  31.900  0.00  0.00    +0.000 NA
ENDBRANCH   6  18
TORSDOF 3
ENDMDL
MODEL 8
REMARK VINA RESULT:      -5.5     16.626     18.844
REMARK  Name = 
REMARK  3 active torsions:
REMARK  status: ('A' for Active; 'I' for Inactive)
REMARK    1  A    between atoms: C_5  and  C_6
REMARK    2  A    between atoms: N_8  and  C_9
REMARK    3  A    between atoms: C_15  and  C_16
REMARK                            x       y       z     vdW  Elec       q    Type
REMARK                         _______ _______ _______ _____ _____    ______ ____
ROOT
ATOM      1  C   UNL     1      33.747   0.899  35.672  0.00  0.00    +0.000 A 
ATOM      2  N   UNL     1      33.597   2.062  35.020  0.00  0.00    +0.000 NA
ATOM      3  N   UNL     1      34.015   3.086  35.743  0.00  0.00    +0.000 N 
ATOM      4  C   UNL     1      34.451   2.575  36.906  0.00  0.00    +0.000 A 
ATOM      5  N   UNL     1      34.982   3.360  37.963  0.00  0.00    +0.000 NA
ATOM      6  C   UNL     1      34.299   1.206  36.901  0.00  0.00    +0.000 A 
ENDROOT
BRANCH   1  11
ATOM      7  C   UNL     1      32.470  -4.389  33.753  0.00  0.00    +0.000 C 
ATOM      8  C   UNL     1      32.774  -3.031  34.266  0.00  0.00    +0.000 A 
ATOM      9  C   UNL     1      32.024  -2.421  35.240  0.00  0.00    +0.000 A 
ATOM     10  C   UNL     1      32.335  -1.152  35.696  0.00  0.00    +0.000 A 
ATOM     11  C   UNL     1      33.398  -0.455  35.199  0.00  0.00    +0.000 A 
ATOM     12  C   UNL     1      34.177  -1.055  34.207  0.00  0.00    +0.000 A 
ATOM     13  C   UNL     1      33.851  -2.321  33.766  0.00  0.00    +0.000 A 
ENDBRANCH   1  11
BRANCH   3  14
ATOM     14  C   UNL     1      34.009   4.507  35.363  0.00  0.00    +0.000 C 
ATOM     15  C   UNL     1      33.231   4.673  34.093  0.00  0.00    +0.000 C 
ATOM     16  C   UNL     1      35.413   4.999  35.217  0.00  0.00    +0.000 C 
ATOM     17  C   UNL     1      33.322   5.329  36.454  0.00  0.00    +0.000 C 
ENDBRANCH   3  14
BRANCH   6  18
ATOM     18  C   UNL     1      34.634   0.262  37.939  0.00  0.00    +0.000 C 
ATOM     19  N   UNL     1      34.900  -0.483  38.788  0.00  0.00    +0.000 NA
ENDBRANCH   6  18
TORSDOF 3
ENDMDL
MODEL 9
REMARK VINA RESULT:      -5.5      1.701      2.215
REMARK  Name = 
REMARK  3 active torsions:
REMARK  status: ('A' for Active; 'I' for Inactive)
REMARK    1  A    between atoms: C_5  and  C_6
REMARK    2  A    between atoms: N_8  and  C_9
REMARK    3  A    between atoms: C_15  and  C_16
REMARK                            x       y       z     vdW  Elec       q    Type
REMARK                         _______ _______ _______ _____ _____    ______ ____
ROOT
ATOM      1  C   UNL     1      18.606   9.752  37.953  0.00  0.00    +0.000 A 
ATOM      2  N   UNL     1      18.597   8.579  38.606  0.00  0.00    +0.000 NA
ATOM      3  N   UNL     1      19.302   8.635  39.721  0.00  0.00    +0.000 N 
ATOM      4  C   UNL     1      19.788   9.885  39.800  0.00  0.00    +0.000 A 
ATOM      5  N   UNL     1      20.606  10.347  40.865  0.00  0.00    +0.000 NA
ATOM      6  C   UNL     1      19.374  10.616  38.709  0.00  0.00    +0.000 A 
ENDROOT
BRANCH   1  11
ATOM      7  C   UNL     1      16.079  10.992  32.918  0.00  0.00    +0.000 C 
ATOM      8  C   UNL     1      16.707  10.689  34.227  0.00  0.00    +0.000 A 
ATOM      9  C   UNL     1      16.194  11.141  35.418  0.00  0.00    +0.000 A 
ATOM     10  C   UNL     1      16.805  10.840  36.622  0.00  0.00    +0.000 A 
ATOM     11  C   UNL     1      17.940  10.083  36.679  0.00  0.00    +0.000 A 
ATOM     12  C   UNL     1      18.481   9.612  35.480  0.00  0.00    +0.000 A 
ATOM     13  C   UNL     1      17.857   9.923  34.289  0.00  0.00    +0.000 A 
ENDBRANCH   1  11
BRANCH   3  14
ATOM     14  C   UNL     1      19.520   7.551  40.693  0.00  0.00    +0.000 C 
ATOM     15  C   UNL     1      20.988   7.277  40.803  0.00  0.00    +0.000 C 
ATOM     16  C   UNL     1      18.762   6.333  40.272  0.00  0.00    +0.000 C 
ATOM     17  C   UNL     1      19.010   7.983  42.068  0.00  0.00    +0.000 C 
ENDBRANCH   3  14
BRANCH   6  18
ATOM     18  C   UNL     1      19.662  11.993  38.391  0.00  0.00    +0.000 C 
ATOM     19  N   UNL     1      19.892  13.106  38.154  0.00  0.00    +0.000 NA
ENDBRANCH   6  18
TORSDOF 3
ENDMDL
MODEL 10
REMARK VINA RESULT:      -5.4     20.414     23.035
REMARK  Name = 
REMARK  3 active torsions:
REMARK  status: ('A' for Active; 'I' for Inactive)
REMARK    1  A    between atoms: C_5  and  C_6
REMARK    2  A    between atoms: N_8  and  C_9
REMARK    3  A    between atoms: C_15  and  C_16
REMARK                            x       y       z     vdW  Elec       q    Type
REMARK                         _______ _______ _______ _____ _____    ______ ____
ROOT
ATOM      1  C   UNL     1      29.038  24.639  24.034  0.00  0.00    +0.000 A 
ATOM      2  N   UNL     1      29.877  24.614  25.081  0.00  0.00    +0.000 NA
ATOM      3  N   UNL     1      29.475  23.766  26.011  0.00  0.00    +0.000 N 
ATOM      4  C   UNL     1      28.336  23.218  25.556  0.00  0.00    +0.000 A 
ATOM      5  N   UNL     1      27.586  22.249  26.273  0.00  0.00    +0.000 NA
ATOM      6  C   UNL     1      28.027  23.741  24.320  0.00  0.00    +0.000 A 
ENDROOT
BRANCH   1  11
ATOM      7  C   UNL     1      29.436  27.914  19.303  0.00  0.00    +0.000 C 
ATOM      8  C   UNL     1      29.338  27.047  20.502  0.00  0.00    +0.000 A 
ATOM      9  C   UNL     1      29.473  25.681  20.443  0.00  0.00    +0.000 A 
ATOM     10  C   UNL     1      29.376  24.902  21.582  0.00  0.00    +0.000 A 
ATOM     11  C   UNL     1      29.144  25.454  22.809  0.00  0.00    +0.000 A 
ATOM     12  C   UNL     1      29.004  26.841  22.894  0.00  0.00    +0.000 A 
ATOM     13  C   UNL     1      29.104  27.602  21.747  0.00  0.00    +0.000 A 
ENDBRANCH   1  11
BRANCH   3  14
ATOM     14  C   UNL     1      30.135  23.470  27.292  0.00  0.00    +0.000 C 
ATOM     15  C   UNL     1      30.605  22.047  27.286  0.00  0.00    +0.000 C 
ATOM     16  C   UNL     1      29.190  23.733  28.421  0.00  0.00    +0.000 C 
ATOM     17  C   UNL     1      31.355  24.376  27.465  0.00  0.00    +0.000 C 
ENDBRANCH   3  14
BRANCH   6  18
ATOM     18  C   UNL     1      26.899  23.438  23.474  0.00  0.00    +0.000 C 
ATOM     19  N   UNL     1      25.992  23.176  22.800  0.00  0.00    +0.000 NA
ENDBRANCH   6  18
TORSDOF 3
ENDMDL
