MODEL 1
REMARK VINA RESULT:      -7.9      0.000      0.000
REMARK  Name = 
REMARK  9 active torsions:
REMARK  status: ('A' for Active; 'I' for Inactive)
REMARK    1  A    between atoms: C_2  and  N_3
REMARK    2  A    between atoms: N_3  and  C_4
REMARK    3  A    between atoms: N_3  and  C_6
REMARK    4  A    between atoms: C_6  and  C_7
REMARK    5  A    between atoms: C_7  and  O_8
REMARK    6  A    between atoms: O_8  and  C_9
REMARK    7  A    between atoms: C_12  and  O_13
REMARK    8  A    between atoms: O_13  and  C_14
REMARK    9  A    between atoms: C_15  and  C_16
REMARK                            x       y       z     vdW  Elec       q    Type
REMARK                         _______ _______ _______ _____ _____    ______ ____
ROOT
ATOM      1  C   UNL     1      12.787  -0.129  27.599  0.00  0.00    +0.000 A 
ATOM      2  C   UNL     1      12.005  -1.209  27.295  0.00  0.00    +0.000 A 
ATOM      3  S   UNL     1      10.650  -0.500  26.534  0.00  0.00    +0.000 S 
ATOM      4  C   UNL     1      11.107   1.138  26.621  0.00  0.00    +0.000 A 
ATOM      5  C   UNL     1      10.523   2.351  26.211  0.00  0.00    +0.000 A 
ATOM      6  C   UNL     1      11.167   3.567  26.431  0.00  0.00    +0.000 A 
ATOM      7  O   UNL     1      10.610   4.765  26.036  0.00  0.00    +0.000 OA
ATOM      8  C   UNL     1      12.377   3.480  27.060  0.00  0.00    +0.000 A 
ATOM      9  C   UNL     1      12.969   2.333  27.468  0.00  0.00    +0.000 A 
ATOM     10  C   UNL     1      12.318   1.094  27.246  0.00  0.00    +0.000 A 
ENDROOT
BRANCH   2  11
ATOM     11  C   UNL     1      12.271  -2.633  27.566  0.00  0.00    +0.000 A 
ATOM     12  C   UNL     1      12.194  -3.042  28.878  0.00  0.00    +0.000 A 
ATOM     13  C   UNL     1      12.440  -4.388  29.205  0.00  0.00    +0.000 A 
ATOM     14  C   UNL     1      12.757  -5.282  28.207  0.00  0.00    +0.000 A 
ATOM     15  O   UNL     1      13.006  -6.620  28.507  0.00  0.00    +0.000 OA
ATOM     16  C   UNL     1      12.837  -4.881  26.889  0.00  0.00    +0.000 A 
ATOM     17  C   UNL     1      12.585  -3.530  26.604  0.00  0.00    +0.000 A 
ENDBRANCH   2  11
BRANCH   1  18
ATOM     18  O   UNL     1      14.030  -0.370  28.258  0.00  0.00    +0.000 OA
BRANCH  18  22
ATOM     19  C   UNL     1      17.627   0.397  26.230  0.00  0.00    +0.000 A 
ATOM     20  C   UNL     1      16.550  -0.166  25.580  0.00  0.00    +0.000 A 
ATOM     21  C   UNL     1      15.358  -0.422  26.246  0.00  0.00    +0.000 A 
ATOM     22  C   UNL     1      15.220  -0.119  27.577  0.00  0.00    +0.000 A 
ATOM     23  C   UNL     1      16.282   0.442  28.237  0.00  0.00    +0.000 A 
ATOM     24  C   UNL     1      17.451   0.685  27.560  0.00  0.00    +0.000 A 
BRANCH  19  25
ATOM     25  O   UNL     1      18.801   0.642  25.554  0.00  0.00    +0.000 OA
BRANCH  25  26
ATOM     26  C   UNL     1      18.970   0.434  24.172  0.00  0.00    +0.000 C 
BRANCH  26  27
ATOM     27  C   UNL     1      19.808  -0.836  24.014  0.00  0.00    +0.000 C 
BRANCH  27  28
ATOM     28  N   UNL     1      20.580  -0.677  22.813  0.00  0.00    +0.000 NA
BRANCH  28  30
ATOM     29  C   UNL     1      20.052   0.498  20.747  0.00  0.00    +0.000 C 
ATOM     30  C   UNL     1      20.438   0.611  22.188  0.00  0.00    +0.000 C 
ENDBRANCH  28  30
BRANCH  28  31
ATOM     31  C   UNL     1      20.347  -1.788  21.936  0.00  0.00    +0.000 C 
ATOM     32  C   UNL     1      19.979  -3.056  22.630  0.00  0.00    +0.000 C 
ENDBRANCH  28  31
ENDBRANCH  27  28
ENDBRANCH  26  27
ENDBRANCH  25  26
ENDBRANCH  19  25
ENDBRANCH  18  22
ENDBRANCH   1  18
TORSDOF 9
ENDMDL
MODEL 2
REMARK VINA RESULT:      -7.0     23.712     27.792
REMARK  Name = 
REMARK  9 active torsions:
REMARK  status: ('A' for Active; 'I' for Inactive)
REMARK    1  A    between atoms: C_2  and  N_3
REMARK    2  A    between atoms: N_3  and  C_4
REMARK    3  A    between atoms: N_3  and  C_6
REMARK    4  A    between atoms: C_6  and  C_7
REMARK    5  A    between atoms: C_7  and  O_8
REMARK    6  A    between atoms: O_8  and  C_9
REMARK    7  A    between atoms: C_12  and  O_13
REMARK    8  A    between atoms: O_13  and  C_14
REMARK    9  A    between atoms: C_15  and  C_16
REMARK                            x       y       z     vdW  Elec       q    Type
REMARK                         _______ _______ _______ _____ _____    ______ ____
ROOT
ATOM      1  C   UNL     1      40.933   7.280  20.149  0.00  0.00    +0.000 A 
ATOM      2  C   UNL     1      40.360   8.494  19.888  0.00  0.00    +0.000 A 
ATOM      3  S   UNL     1      41.603   9.598  20.283  0.00  0.00    +0.000 S 
ATOM      4  C   UNL     1      42.809   8.498  20.765  0.00  0.00    +0.000 A 
ATOM      5  C   UNL     1      44.131   8.620  21.233  0.00  0.00    +0.000 A 
ATOM      6  C   UNL     1      44.886   7.495  21.555  0.00  0.00    +0.000 A 
ATOM      7  O   UNL     1      46.181   7.597  22.015  0.00  0.00    +0.000 OA
ATOM      8  C   UNL     1      44.249   6.297  21.382  0.00  0.00    +0.000 A 
ATOM      9  C   UNL     1      42.980   6.140  20.934  0.00  0.00    +0.000 A 
ATOM     10  C   UNL     1      42.209   7.284  20.606  0.00  0.00    +0.000 A 
ENDROOT
BRANCH   2  11
ATOM     11  C   UNL     1      39.000   8.775  19.393  0.00  0.00    +0.000 A 
ATOM     12  C   UNL     1      38.897   9.323  18.134  0.00  0.00    +0.000 A 
ATOM     13  C   UNL     1      37.629   9.618  17.603  0.00  0.00    +0.000 A 
ATOM     14  C   UNL     1      36.502   9.354  18.350  0.00  0.00    +0.000 A 
ATOM     15  O   UNL     1      35.235   9.639  17.845  0.00  0.00    +0.000 OA
ATOM     16  C   UNL     1      36.596   8.805  19.612  0.00  0.00    +0.000 A 
ATOM     17  C   UNL     1      37.880   8.526  20.107  0.00  0.00    +0.000 A 
ENDBRANCH   2  11
BRANCH   1  18
ATOM     18  O   UNL     1      40.148   6.110  19.920  0.00  0.00    +0.000 OA
BRANCH  18  22
ATOM     19  C   UNL     1      39.194   4.994  15.985  0.00  0.00    +0.000 A 
ATOM     20  C   UNL     1      40.317   5.744  16.260  0.00  0.00    +0.000 A 
ATOM     21  C   UNL     1      40.638   6.116  17.559  0.00  0.00    +0.000 A 
ATOM     22  C   UNL     1      39.839   5.744  18.612  0.00  0.00    +0.000 A 
ATOM     23  C   UNL     1      38.719   4.998  18.354  0.00  0.00    +0.000 A 
ATOM     24  C   UNL     1      38.422   4.642  17.063  0.00  0.00    +0.000 A 
BRANCH  19  25
ATOM     25  O   UNL     1      38.893   4.636  14.690  0.00  0.00    +0.000 OA
BRANCH  25  26
ATOM     26  C   UNL     1      38.236   3.442  14.337  0.00  0.00    +0.000 C 
BRANCH  26  27
ATOM     27  C   UNL     1      37.001   3.839  13.528  0.00  0.00    +0.000 C 
BRANCH  27  28
ATOM     28  N   UNL     1      35.938   4.051  14.471  0.00  0.00    +0.000 NA
BRANCH  28  30
ATOM     29  C   UNL     1      35.064   2.559  16.186  0.00  0.00    +0.000 C 
ATOM     30  C   UNL     1      35.136   2.885  14.727  0.00  0.00    +0.000 C 
ENDBRANCH  28  30
BRANCH  28  31
ATOM     31  C   UNL     1      35.186   5.216  14.102  0.00  0.00    +0.000 C 
ATOM     32  C   UNL     1      35.953   6.494  14.170  0.00  0.00    +0.000 C 
ENDBRANCH  28  31
ENDBRANCH  27  28
ENDBRANCH  26  27
ENDBRANCH  25  26
ENDBRANCH  19  25
ENDBRANCH  18  22
ENDBRANCH   1  18
TORSDOF 9
ENDMDL
MODEL 3
REMARK VINA RESULT:      -6.9     23.841     28.095
REMARK  Name = 
REMARK  9 active torsions:
REMARK  status: ('A' for Active; 'I' for Inactive)
REMARK    1  A    between atoms: C_2  and  N_3
REMARK    2  A    between atoms: N_3  and  C_4
REMARK    3  A    between atoms: N_3  and  C_6
REMARK    4  A    between atoms: C_6  and  C_7
REMARK    5  A    between atoms: C_7  and  O_8
REMARK    6  A    between atoms: O_8  and  C_9
REMARK    7  A    between atoms: C_12  and  O_13
REMARK    8  A    between atoms: O_13  and  C_14
REMARK    9  A    between atoms: C_15  and  C_16
REMARK                            x       y       z     vdW  Elec       q    Type
REMARK                         _______ _______ _______ _____ _____    ______ ____
ROOT
ATOM      1  C   UNL     1      40.877   7.900  20.287  0.00  0.00    +0.000 A 
ATOM      2  C   UNL     1      42.193   8.210  20.495  0.00  0.00    +0.000 A 
ATOM      3  S   UNL     1      42.172   9.916  20.604  0.00  0.00    +0.000 S 
ATOM      4  C   UNL     1      40.506  10.188  20.384  0.00  0.00    +0.000 A 
ATOM      5  C   UNL     1      39.687  11.332  20.342  0.00  0.00    +0.000 A 
ATOM      6  C   UNL     1      38.313  11.224  20.139  0.00  0.00    +0.000 A 
ATOM      7  O   UNL     1      37.497  12.334  20.096  0.00  0.00    +0.000 OA
ATOM      8  C   UNL     1      37.845   9.949  19.988  0.00  0.00    +0.000 A 
ATOM      9  C   UNL     1      38.601   8.826  20.022  0.00  0.00    +0.000 A 
ATOM     10  C   UNL     1      39.999   8.931  20.229  0.00  0.00    +0.000 A 
ENDROOT
BRANCH   2  11
ATOM     11  C   UNL     1      43.343   7.294  20.594  0.00  0.00    +0.000 A 
ATOM     12  C   UNL     1      43.401   6.487  21.708  0.00  0.00    +0.000 A 
ATOM     13  C   UNL     1      44.473   5.591  21.866  0.00  0.00    +0.000 A 
ATOM     14  C   UNL     1      45.456   5.533  20.903  0.00  0.00    +0.000 A 
ATOM     15  O   UNL     1      46.529   4.654  21.039  0.00  0.00    +0.000 OA
ATOM     16  C   UNL     1      45.407   6.338  19.783  0.00  0.00    +0.000 A 
ATOM     17  C   UNL     1      44.320   7.218  19.663  0.00  0.00    +0.000 A 
ENDBRANCH   2  11
BRANCH   1  18
ATOM     18  O   UNL     1      40.532   6.522  20.147  0.00  0.00    +0.000 OA
BRANCH  18  22
ATOM     19  C   UNL     1      39.340   5.100  16.379  0.00  0.00    +0.000 A 
ATOM     20  C   UNL     1      38.589   4.844  17.506  0.00  0.00    +0.000 A 
ATOM     21  C   UNL     1      38.979   5.312  18.755  0.00  0.00    +0.000 A 
ATOM     22  C   UNL     1      40.129   6.046  18.901  0.00  0.00    +0.000 A 
ATOM     23  C   UNL     1      40.886   6.308  17.789  0.00  0.00    +0.000 A 
ATOM     24  C   UNL     1      40.483   5.836  16.565  0.00  0.00    +0.000 A 
BRANCH  19  25
ATOM     25  O   UNL     1      38.938   4.627  15.150  0.00  0.00    +0.000 OA
BRANCH  25  26
ATOM     26  C   UNL     1      38.921   3.264  14.799  0.00  0.00    +0.000 C 
BRANCH  26  27
ATOM     27  C   UNL     1      37.453   2.842  14.732  0.00  0.00    +0.000 C 
BRANCH  27  28
ATOM     28  N   UNL     1      37.281   1.786  15.691  0.00  0.00    +0.000 NA
BRANCH  28  30
ATOM     29  C   UNL     1      38.159  -0.440  15.240  0.00  0.00    +0.000 C 
ATOM     30  C   UNL     1      37.002   0.501  15.109  0.00  0.00    +0.000 C 
ENDBRANCH  28  30
BRANCH  28  31
ATOM     31  C   UNL     1      36.344   2.194  16.698  0.00  0.00    +0.000 C 
ATOM     32  C   UNL     1      34.912   2.042  16.309  0.00  0.00    +0.000 C 
ENDBRANCH  28  31
ENDBRANCH  27  28
ENDBRANCH  26  27
ENDBRANCH  25  26
ENDBRANCH  19  25
ENDBRANCH  18  22
ENDBRANCH   1  18
TORSDOF 9
ENDMDL
MODEL 4
REMARK VINA RESULT:      -6.9     22.497     25.882
REMARK  Name = 
REMARK  9 active torsions:
REMARK  status: ('A' for Active; 'I' for Inactive)
REMARK    1  A    between atoms: C_2  and  N_3
REMARK    2  A    between atoms: N_3  and  C_4
REMARK    3  A    between atoms: N_3  and  C_6
REMARK    4  A    between atoms: C_6  and  C_7
REMARK    5  A    between atoms: C_7  and  O_8
REMARK    6  A    between atoms: O_8  and  C_9
REMARK    7  A    between atoms: C_12  and  O_13
REMARK    8  A    between atoms: O_13  and  C_14
REMARK    9  A    between atoms: C_15  and  C_16
REMARK                            x       y       z     vdW  Elec       q    Type
REMARK                         _______ _______ _______ _____ _____    ______ ____
ROOT
ATOM      1  C   UNL     1      37.859   6.334  15.435  0.00  0.00    +0.000 A 
ATOM      2  C   UNL     1      36.979   7.313  15.062  0.00  0.00    +0.000 A 
ATOM      3  S   UNL     1      37.407   8.620  16.076  0.00  0.00    +0.000 S 
ATOM      4  C   UNL     1      38.681   7.895  16.942  0.00  0.00    +0.000 A 
ATOM      5  C   UNL     1      39.550   8.320  17.964  0.00  0.00    +0.000 A 
ATOM      6  C   UNL     1      40.521   7.465  18.482  0.00  0.00    +0.000 A 
ATOM      7  O   UNL     1      41.381   7.865  19.482  0.00  0.00    +0.000 OA
ATOM      8  C   UNL     1      40.552   6.216  17.928  0.00  0.00    +0.000 A 
ATOM      9  C   UNL     1      39.733   5.772  16.945  0.00  0.00    +0.000 A 
ATOM     10  C   UNL     1      38.745   6.639  16.415  0.00  0.00    +0.000 A 
ENDROOT
BRANCH   2  11
ATOM     11  C   UNL     1      35.922   7.247  14.037  0.00  0.00    +0.000 A 
ATOM     12  C   UNL     1      36.309   7.438  12.730  0.00  0.00    +0.000 A 
ATOM     13  C   UNL     1      35.349   7.391  11.704  0.00  0.00    +0.000 A 
ATOM     14  C   UNL     1      34.029   7.156  12.019  0.00  0.00    +0.000 A 
ATOM     15  O   UNL     1      33.060   7.107  11.019  0.00  0.00    +0.000 OA
ATOM     16  C   UNL     1      33.632   6.964  13.327  0.00  0.00    +0.000 A 
ATOM     17  C   UNL     1      34.621   7.018  14.322  0.00  0.00    +0.000 A 
ENDBRANCH   2  11
BRANCH   1  18
ATOM     18  O   UNL     1      37.777   5.075  14.768  0.00  0.00    +0.000 OA
BRANCH  18  22
ATOM     19  C   UNL     1      35.183   2.124  16.255  0.00  0.00    +0.000 A 
ATOM     20  C   UNL     1      36.239   2.589  17.010  0.00  0.00    +0.000 A 
ATOM     21  C   UNL     1      37.100   3.565  16.523  0.00  0.00    +0.000 A 
ATOM     22  C   UNL     1      36.921   4.095  15.270  0.00  0.00    +0.000 A 
ATOM     23  C   UNL     1      35.875   3.643  14.509  0.00  0.00    +0.000 A 
ATOM     24  C   UNL     1      35.038   2.679  15.009  0.00  0.00    +0.000 A 
BRANCH  19  25
ATOM     25  O   UNL     1      34.341   1.156  16.755  0.00  0.00    +0.000 OA
BRANCH  25  26
ATOM     26  C   UNL     1      34.784  -0.018  17.393  0.00  0.00    +0.000 C 
BRANCH  26  27
ATOM     27  C   UNL     1      35.574  -0.815  16.355  0.00  0.00    +0.000 C 
BRANCH  27  28
ATOM     28  N   UNL     1      36.887  -1.022  16.902  0.00  0.00    +0.000 NA
BRANCH  28  30
ATOM     29  C   UNL     1      37.905  -0.012  14.934  0.00  0.00    +0.000 C 
ATOM     30  C   UNL     1      37.925  -1.143  15.913  0.00  0.00    +0.000 C 
ENDBRANCH  28  30
BRANCH  28  31
ATOM     31  C   UNL     1      36.852  -2.093  17.856  0.00  0.00    +0.000 C 
ATOM     32  C   UNL     1      37.777  -1.919  19.014  0.00  0.00    +0.000 C 
ENDBRANCH  28  31
ENDBRANCH  27  28
ENDBRANCH  26  27
ENDBRANCH  25  26
ENDBRANCH  19  25
ENDBRANCH  18  22
ENDBRANCH   1  18
TORSDOF 9
ENDMDL
MODEL 5
REMARK VINA RESULT:      -6.9     21.637     25.639
REMARK  Name = 
REMARK  9 active torsions:
REMARK  status: ('A' for Active; 'I' for Inactive)
REMARK    1  A    between atoms: C_2  and  N_3
REMARK    2  A    between atoms: N_3  and  C_4
REMARK    3  A    between atoms: N_3  and  C_6
REMARK    4  A    between atoms: C_6  and  C_7
REMARK    5  A    between atoms: C_7  and  O_8
REMARK    6  A    between atoms: O_8  and  C_9
REMARK    7  A    between atoms: C_12  and  O_13
REMARK    8  A    between atoms: O_13  and  C_14
REMARK    9  A    between atoms: C_15  and  C_16
REMARK                            x       y       z     vdW  Elec       q    Type
REMARK                         _______ _______ _______ _____ _____    ______ ____
ROOT
ATOM      1  C   UNL     1      37.687  -0.379  15.354  0.00  0.00    +0.000 A 
ATOM      2  C   UNL     1      38.508  -0.232  14.270  0.00  0.00    +0.000 A 
ATOM      3  S   UNL     1      37.877   1.154  13.495  0.00  0.00    +0.000 S 
ATOM      4  C   UNL     1      36.596   1.509  14.560  0.00  0.00    +0.000 A 
ATOM      5  C   UNL     1      35.603   2.504  14.615  0.00  0.00    +0.000 A 
ATOM      6  C   UNL     1      34.667   2.527  15.647  0.00  0.00    +0.000 A 
ATOM      7  O   UNL     1      33.687   3.495  15.717  0.00  0.00    +0.000 OA
ATOM      8  C   UNL     1      34.796   1.529  16.572  0.00  0.00    +0.000 A 
ATOM      9  C   UNL     1      35.738   0.557  16.552  0.00  0.00    +0.000 A 
ATOM     10  C   UNL     1      36.691   0.530  15.504  0.00  0.00    +0.000 A 
ENDROOT
BRANCH   2  11
ATOM     11  C   UNL     1      39.651  -1.072  13.871  0.00  0.00    +0.000 A 
ATOM     12  C   UNL     1      39.392  -2.099  12.992  0.00  0.00    +0.000 A 
ATOM     13  C   UNL     1      40.439  -2.940  12.574  0.00  0.00    +0.000 A 
ATOM     14  C   UNL     1      41.714  -2.726  13.050  0.00  0.00    +0.000 A 
ATOM     15  O   UNL     1      42.766  -3.547  12.650  0.00  0.00    +0.000 OA
ATOM     16  C   UNL     1      41.982  -1.699  13.931  0.00  0.00    +0.000 A 
ATOM     17  C   UNL     1      40.910  -0.882  14.324  0.00  0.00    +0.000 A 
ENDBRANCH   2  11
BRANCH   1  18
ATOM     18  O   UNL     1      37.940  -1.470  16.239  0.00  0.00    +0.000 OA
BRANCH  18  22
ATOM     19  C   UNL     1      35.812  -5.049  15.694  0.00  0.00    +0.000 A 
ATOM     20  C   UNL     1      36.860  -4.974  16.586  0.00  0.00    +0.000 A 
ATOM     21  C   UNL     1      37.567  -3.792  16.770  0.00  0.00    +0.000 A 
ATOM     22  C   UNL     1      37.239  -2.662  16.065  0.00  0.00    +0.000 A 
ATOM     23  C   UNL     1      36.199  -2.722  15.175  0.00  0.00    +0.000 A 
ATOM     24  C   UNL     1      35.514  -3.899  15.008  0.00  0.00    +0.000 A 
BRANCH  19  25
ATOM     25  O   UNL     1      35.123  -6.230  15.525  0.00  0.00    +0.000 OA
BRANCH  25  26
ATOM     26  C   UNL     1      34.077  -6.404  14.599  0.00  0.00    +0.000 C 
BRANCH  26  27
ATOM     27  C   UNL     1      33.533  -7.818  14.807  0.00  0.00    +0.000 C 
BRANCH  27  28
ATOM     28  N   UNL     1      33.342  -7.985  16.221  0.00  0.00    +0.000 NA
BRANCH  28  30
ATOM     29  C   UNL     1      34.552 -10.031  15.694  0.00  0.00    +0.000 C 
ATOM     30  C   UNL     1      33.846  -9.228  16.741  0.00  0.00    +0.000 C 
ENDBRANCH  28  30
BRANCH  28  31
ATOM     31  C   UNL     1      31.975  -7.713  16.562  0.00  0.00    +0.000 C 
ATOM     32  C   UNL     1      31.020  -8.802  16.202  0.00  0.00    +0.000 C 
ENDBRANCH  28  31
ENDBRANCH  27  28
ENDBRANCH  26  27
ENDBRANCH  25  26
ENDBRANCH  19  25
ENDBRANCH  18  22
ENDBRANCH   1  18
TORSDOF 9
ENDMDL
MODEL 6
REMARK VINA RESULT:      -6.9     24.673     27.230
REMARK  Name = 
REMARK  9 active torsions:
REMARK  status: ('A' for Active; 'I' for Inactive)
REMARK    1  A    between atoms: C_2  and  N_3
REMARK    2  A    between atoms: N_3  and  C_4
REMARK    3  A    between atoms: N_3  and  C_6
REMARK    4  A    between atoms: C_6  and  C_7
REMARK    5  A    between atoms: C_7  and  O_8
REMARK    6  A    between atoms: O_8  and  C_9
REMARK    7  A    between atoms: C_12  and  O_13
REMARK    8  A    between atoms: O_13  and  C_14
REMARK    9  A    between atoms: C_15  and  C_16
REMARK                            x       y       z     vdW  Elec       q    Type
REMARK                         _______ _______ _______ _____ _____    ______ ____
ROOT
ATOM      1  C   UNL     1      37.722  -0.563  14.451  0.00  0.00    +0.000 A 
ATOM      2  C   UNL     1      38.375  -0.757  13.265  0.00  0.00    +0.000 A 
ATOM      3  S   UNL     1      39.370  -2.108  13.592  0.00  0.00    +0.000 S 
ATOM      4  C   UNL     1      38.934  -2.389  15.214  0.00  0.00    +0.000 A 
ATOM      5  C   UNL     1      39.313  -3.326  16.192  0.00  0.00    +0.000 A 
ATOM      6  C   UNL     1      38.758  -3.294  17.470  0.00  0.00    +0.000 A 
ATOM      7  O   UNL     1      39.118  -4.205  18.440  0.00  0.00    +0.000 OA
ATOM      8  C   UNL     1      37.842  -2.303  17.682  0.00  0.00    +0.000 A 
ATOM      9  C   UNL     1      37.452  -1.384  16.766  0.00  0.00    +0.000 A 
ATOM     10  C   UNL     1      38.014  -1.414  15.466  0.00  0.00    +0.000 A 
ENDROOT
BRANCH   2  11
ATOM     11  C   UNL     1      38.251   0.016  12.017  0.00  0.00    +0.000 A 
ATOM     12  C   UNL     1      39.416   0.299  11.341  0.00  0.00    +0.000 A 
ATOM     13  C   UNL     1      39.367   1.036  10.144  0.00  0.00    +0.000 A 
ATOM     14  C   UNL     1      38.151   1.468   9.662  0.00  0.00    +0.000 A 
ATOM     15  O   UNL     1      38.079   2.201   8.479  0.00  0.00    +0.000 OA
ATOM     16  C   UNL     1      36.978   1.190  10.333  0.00  0.00    +0.000 A 
ATOM     17  C   UNL     1      37.070   0.452  11.524  0.00  0.00    +0.000 A 
ENDBRANCH   2  11
BRANCH   1  18
ATOM     18  O   UNL     1      36.789   0.515  14.529  0.00  0.00    +0.000 OA
BRANCH  18  22
ATOM     19  C   UNL     1      37.851   4.015  16.593  0.00  0.00    +0.000 A 
ATOM     20  C   UNL     1      38.613   3.549  15.543  0.00  0.00    +0.000 A 
ATOM     21  C   UNL     1      38.266   2.392  14.857  0.00  0.00    +0.000 A 
ATOM     22  C   UNL     1      37.149   1.677  15.208  0.00  0.00    +0.000 A 
ATOM     23  C   UNL     1      36.381   2.129  16.249  0.00  0.00    +0.000 A 
ATOM     24  C   UNL     1      36.742   3.274  16.913  0.00  0.00    +0.000 A 
BRANCH  19  25
ATOM     25  O   UNL     1      38.211   5.164  17.261  0.00  0.00    +0.000 OA
BRANCH  25  26
ATOM     26  C   UNL     1      39.009   5.182  18.420  0.00  0.00    +0.000 C 
BRANCH  26  27
ATOM     27  C   UNL     1      40.274   5.968  18.076  0.00  0.00    +0.000 C 
BRANCH  27  28
ATOM     28  N   UNL     1      40.208   7.202  18.811  0.00  0.00    +0.000 NA
BRANCH  28  30
ATOM     29  C   UNL     1      42.590   6.778  19.080  0.00  0.00    +0.000 C 
ATOM     30  C   UNL     1      41.490   7.793  19.087  0.00  0.00    +0.000 C 
ENDBRANCH  28  30
BRANCH  28  31
ATOM     31  C   UNL     1      39.373   7.035  19.965  0.00  0.00    +0.000 C 
ATOM     32  C   UNL     1      38.970   8.311  20.627  0.00  0.00    +0.000 C 
ENDBRANCH  28  31
ENDBRANCH  27  28
ENDBRANCH  26  27
ENDBRANCH  25  26
ENDBRANCH  19  25
ENDBRANCH  18  22
ENDBRANCH   1  18
TORSDOF 9
ENDMDL
MODEL 7
REMARK VINA RESULT:      -6.8     22.541     25.991
REMARK  Name = 
REMARK  9 active torsions:
REMARK  status: ('A' for Active; 'I' for Inactive)
REMARK    1  A    between atoms: C_2  and  N_3
REMARK    2  A    between atoms: N_3  and  C_4
REMARK    3  A    between atoms: N_3  and  C_6
REMARK    4  A    between atoms: C_6  and  C_7
REMARK    5  A    between atoms: C_7  and  O_8
REMARK    6  A    between atoms: O_8  and  C_9
REMARK    7  A    between atoms: C_12  and  O_13
REMARK    8  A    between atoms: O_13  and  C_14
REMARK    9  A    between atoms: C_15  and  C_16
REMARK                            x       y       z     vdW  Elec       q    Type
REMARK                         _______ _______ _______ _____ _____    ______ ____
ROOT
ATOM      1  C   UNL     1      37.420  -1.332  15.304  0.00  0.00    +0.000 A 
ATOM      2  C   UNL     1      38.401  -1.722  14.433  0.00  0.00    +0.000 A 
ATOM      3  S   UNL     1      37.772  -3.165  13.768  0.00  0.00    +0.000 S 
ATOM      4  C   UNL     1      36.291  -3.236  14.606  0.00  0.00    +0.000 A 
ATOM      5  C   UNL     1      35.202  -4.127  14.616  0.00  0.00    +0.000 A 
ATOM      6  C   UNL     1      34.100  -3.904  15.439  0.00  0.00    +0.000 A 
ATOM      7  O   UNL     1      33.025  -4.766  15.462  0.00  0.00    +0.000 OA
ATOM      8  C   UNL     1      34.169  -2.778  16.212  0.00  0.00    +0.000 A 
ATOM      9  C   UNL     1      35.199  -1.899  16.228  0.00  0.00    +0.000 A 
ATOM     10  C   UNL     1      36.321  -2.123  15.392  0.00  0.00    +0.000 A 
ENDROOT
BRANCH   2  11
ATOM     11  C   UNL     1      39.685  -1.057  14.148  0.00  0.00    +0.000 A 
ATOM     12  C   UNL     1      40.808  -1.596  14.735  0.00  0.00    +0.000 A 
ATOM     13  C   UNL     1      42.064  -1.007  14.506  0.00  0.00    +0.000 A 
ATOM     14  C   UNL     1      42.157   0.104  13.697  0.00  0.00    +0.000 A 
ATOM     15  O   UNL     1      43.391   0.704  13.458  0.00  0.00    +0.000 OA
ATOM     16  C   UNL     1      41.037   0.650  13.106  0.00  0.00    +0.000 A 
ATOM     17  C   UNL     1      39.801   0.034  13.359  0.00  0.00    +0.000 A 
ENDBRANCH   2  11
BRANCH   1  18
ATOM     18  O   UNL     1      37.627  -0.132  16.047  0.00  0.00    +0.000 OA
BRANCH  18  22
ATOM     19  C   UNL     1      35.400   3.295  15.078  0.00  0.00    +0.000 A 
ATOM     20  C   UNL     1      36.349   2.795  14.213  0.00  0.00    +0.000 A 
ATOM     21  C   UNL     1      37.088   1.662  14.528  0.00  0.00    +0.000 A 
ATOM     22  C   UNL     1      36.893   1.006  15.717  0.00  0.00    +0.000 A 
ATOM     23  C   UNL     1      35.952   1.491  16.587  0.00  0.00    +0.000 A 
ATOM     24  C   UNL     1      35.233   2.612  16.256  0.00  0.00    +0.000 A 
BRANCH  19  25
ATOM     25  O   UNL     1      34.677   4.420  14.748  0.00  0.00    +0.000 OA
BRANCH  25  26
ATOM     26  C   UNL     1      35.225   5.545  14.105  0.00  0.00    +0.000 C 
BRANCH  26  27
ATOM     27  C   UNL     1      34.049   6.393  13.618  0.00  0.00    +0.000 C 
BRANCH  27  28
ATOM     28  N   UNL     1      34.400   7.766  13.856  0.00  0.00    +0.000 NA
BRANCH  28  30
ATOM     29  C   UNL     1      34.042   9.821  15.112  0.00  0.00    +0.000 C 
ATOM     30  C   UNL     1      33.657   8.387  14.920  0.00  0.00    +0.000 C 
ENDBRANCH  28  30
BRANCH  28  31
ATOM     31  C   UNL     1      34.383   8.493  12.620  0.00  0.00    +0.000 C 
ATOM     32  C   UNL     1      33.912   7.703  11.445  0.00  0.00    +0.000 C 
ENDBRANCH  28  31
ENDBRANCH  27  28
ENDBRANCH  26  27
ENDBRANCH  25  26
ENDBRANCH  19  25
ENDBRANCH  18  22
ENDBRANCH   1  18
TORSDOF 9
ENDMDL
MODEL 8
REMARK VINA RESULT:      -6.8     23.519     26.640
REMARK  Name = 
REMARK  9 active torsions:
REMARK  status: ('A' for Active; 'I' for Inactive)
REMARK    1  A    between atoms: C_2  and  N_3
REMARK    2  A    between atoms: N_3  and  C_4
REMARK    3  A    between atoms: N_3  and  C_6
REMARK    4  A    between atoms: C_6  and  C_7
REMARK    5  A    between atoms: C_7  and  O_8
REMARK    6  A    between atoms: O_8  and  C_9
REMARK    7  A    between atoms: C_12  and  O_13
REMARK    8  A    between atoms: O_13  and  C_14
REMARK    9  A    between atoms: C_15  and  C_16
REMARK                            x       y       z     vdW  Elec       q    Type
REMARK                         _______ _______ _______ _____ _____    ______ ____
ROOT
ATOM      1  C   UNL     1      36.623  -0.734  14.860  0.00  0.00    +0.000 A 
ATOM      2  C   UNL     1      36.308  -1.441  15.989  0.00  0.00    +0.000 A 
ATOM      3  S   UNL     1      35.409  -0.315  16.908  0.00  0.00    +0.000 S 
ATOM      4  C   UNL     1      35.456   1.014  15.844  0.00  0.00    +0.000 A 
ATOM      5  C   UNL     1      34.946   2.324  15.875  0.00  0.00    +0.000 A 
ATOM      6  C   UNL     1      35.160   3.203  14.816  0.00  0.00    +0.000 A 
ATOM      7  O   UNL     1      34.666   4.491  14.830  0.00  0.00    +0.000 OA
ATOM      8  C   UNL     1      35.888   2.696  13.776  0.00  0.00    +0.000 A 
ATOM      9  C   UNL     1      36.394   1.441  13.711  0.00  0.00    +0.000 A 
ATOM     10  C   UNL     1      36.178   0.545  14.787  0.00  0.00    +0.000 A 
ENDROOT
BRANCH   2  11
ATOM     11  C   UNL     1      36.665  -2.831  16.325  0.00  0.00    +0.000 A 
ATOM     12  C   UNL     1      35.796  -3.814  15.908  0.00  0.00    +0.000 A 
ATOM     13  C   UNL     1      36.076  -5.161  16.199  0.00  0.00    +0.000 A 
ATOM     14  C   UNL     1      37.218  -5.482  16.899  0.00  0.00    +0.000 A 
ATOM     15  O   UNL     1      37.515  -6.810  17.200  0.00  0.00    +0.000 OA
ATOM     16  C   UNL     1      38.094  -4.503  17.321  0.00  0.00    +0.000 A 
ATOM     17  C   UNL     1      37.778  -3.170  17.011  0.00  0.00    +0.000 A 
ENDBRANCH   2  11
BRANCH   1  18
ATOM     18  O   UNL     1      37.391  -1.394  13.854  0.00  0.00    +0.000 OA
BRANCH  18  22
ATOM     19  C   UNL     1      41.556  -1.695  14.300  0.00  0.00    +0.000 A 
ATOM     20  C   UNL     1      40.894  -0.518  14.578  0.00  0.00    +0.000 A 
ATOM     21  C   UNL     1      39.516  -0.413  14.432  0.00  0.00    +0.000 A 
ATOM     22  C   UNL     1      38.773  -1.485  14.005  0.00  0.00    +0.000 A 
ATOM     23  C   UNL     1      39.418  -2.661  13.726  0.00  0.00    +0.000 A 
ATOM     24  C   UNL     1      40.779  -2.743  13.876  0.00  0.00    +0.000 A 
BRANCH  19  25
ATOM     25  O   UNL     1      42.922  -1.780  14.451  0.00  0.00    +0.000 OA
BRANCH  25  26
ATOM     26  C   UNL     1      43.792  -2.282  13.464  0.00  0.00    +0.000 C 
BRANCH  26  27
ATOM     27  C   UNL     1      43.847  -1.237  12.349  0.00  0.00    +0.000 C 
BRANCH  27  28
ATOM     28  N   UNL     1      43.419  -1.894  11.145  0.00  0.00    +0.000 NA
BRANCH  28  30
ATOM     29  C   UNL     1      41.932   0.031  11.041  0.00  0.00    +0.000 C 
ATOM     30  C   UNL     1      42.200  -1.370  10.589  0.00  0.00    +0.000 C 
ENDBRANCH  28  30
BRANCH  28  31
ATOM     31  C   UNL     1      43.416  -3.315  11.342  0.00  0.00    +0.000 C 
ATOM     32  C   UNL     1      42.301  -4.032  10.655  0.00  0.00    +0.000 C 
ENDBRANCH  28  31
ENDBRANCH  27  28
ENDBRANCH  26  27
ENDBRANCH  25  26
ENDBRANCH  19  25
ENDBRANCH  18  22
ENDBRANCH   1  18
TORSDOF 9
ENDMDL
MODEL 9
REMARK VINA RESULT:      -6.8     23.617     26.650
REMARK  Name = 
REMARK  9 active torsions:
REMARK  status: ('A' for Active; 'I' for Inactive)
REMARK    1  A    between atoms: C_2  and  N_3
REMARK    2  A    between atoms: N_3  and  C_4
REMARK    3  A    between atoms: N_3  and  C_6
REMARK    4  A    between atoms: C_6  and  C_7
REMARK    5  A    between atoms: C_7  and  O_8
REMARK    6  A    between atoms: O_8  and  C_9
REMARK    7  A    between atoms: C_12  and  O_13
REMARK    8  A    between atoms: O_13  and  C_14
REMARK    9  A    between atoms: C_15  and  C_16
REMARK                            x       y       z     vdW  Elec       q    Type
REMARK                         _______ _______ _______ _____ _____    ______ ____
ROOT
ATOM      1  C   UNL     1      37.496   0.669  15.681  0.00  0.00    +0.000 A 
ATOM      2  C   UNL     1      36.824  -0.294  16.383  0.00  0.00    +0.000 A 
ATOM      3  S   UNL     1      35.250   0.359  16.518  0.00  0.00    +0.000 S 
ATOM      4  C   UNL     1      35.485   1.826  15.686  0.00  0.00    +0.000 A 
ATOM      5  C   UNL     1      34.664   2.923  15.364  0.00  0.00    +0.000 A 
ATOM      6  C   UNL     1      35.166   4.009  14.650  0.00  0.00    +0.000 A 
ATOM      7  O   UNL     1      34.376   5.091  14.326  0.00  0.00    +0.000 OA
ATOM      8  C   UNL     1      36.484   3.917  14.301  0.00  0.00    +0.000 A 
ATOM      9  C   UNL     1      37.304   2.879  14.592  0.00  0.00    +0.000 A 
ATOM     10  C   UNL     1      36.797   1.773  15.319  0.00  0.00    +0.000 A 
ENDROOT
BRANCH   2  11
ATOM     11  C   UNL     1      37.338  -1.575  16.898  0.00  0.00    +0.000 A 
ATOM     12  C   UNL     1      37.069  -2.699  16.151  0.00  0.00    +0.000 A 
ATOM     13  C   UNL     1      37.529  -3.954  16.588  0.00  0.00    +0.000 A 
ATOM     14  C   UNL     1      38.244  -4.044  17.762  0.00  0.00    +0.000 A 
ATOM     15  O   UNL     1      38.709  -5.277  18.215  0.00  0.00    +0.000 OA
ATOM     16  C   UNL     1      38.519  -2.923  18.517  0.00  0.00    +0.000 A 
ATOM     17  C   UNL     1      38.042  -1.689  18.047  0.00  0.00    +0.000 A 
ENDBRANCH   2  11
BRANCH   1  18
ATOM     18  O   UNL     1      38.873   0.438  15.386  0.00  0.00    +0.000 OA
BRANCH  18  22
ATOM     19  C   UNL     1      39.903  -2.154  12.245  0.00  0.00    +0.000 A 
ATOM     20  C   UNL     1      38.943  -1.179  12.078  0.00  0.00    +0.000 A 
ATOM     21  C   UNL     1      38.599  -0.319  13.113  0.00  0.00    +0.000 A 
ATOM     22  C   UNL     1      39.209  -0.417  14.338  0.00  0.00    +0.000 A 
ATOM     23  C   UNL     1      40.166  -1.381  14.519  0.00  0.00    +0.000 A 
ATOM     24  C   UNL     1      40.491  -2.220  13.484  0.00  0.00    +0.000 A 
BRANCH  19  25
ATOM     25  O   UNL     1      40.231  -2.997  11.207  0.00  0.00    +0.000 OA
BRANCH  25  26
ATOM     26  C   UNL     1      40.476  -2.565   9.891  0.00  0.00    +0.000 C 
BRANCH  26  27
ATOM     27  C   UNL     1      41.789  -1.782   9.919  0.00  0.00    +0.000 C 
BRANCH  27  28
ATOM     28  N   UNL     1      41.563  -0.566   9.189  0.00  0.00    +0.000 NA
BRANCH  28  30
ATOM     29  C   UNL     1      42.396   0.328  11.295  0.00  0.00    +0.000 C 
ATOM     30  C   UNL     1      41.900   0.629   9.916  0.00  0.00    +0.000 C 
ENDBRANCH  28  30
BRANCH  28  31
ATOM     31  C   UNL     1      40.237  -0.569   8.640  0.00  0.00    +0.000 C 
ATOM     32  C   UNL     1      39.531   0.743   8.720  0.00  0.00    +0.000 C 
ENDBRANCH  28  31
ENDBRANCH  27  28
ENDBRANCH  26  27
ENDBRANCH  25  26
ENDBRANCH  19  25
ENDBRANCH  18  22
ENDBRANCH   1  18
TORSDOF 9
ENDMDL
MODEL 10
REMARK VINA RESULT:      -6.8     23.399     27.298
REMARK  Name = 
REMARK  9 active torsions:
REMARK  status: ('A' for Active; 'I' for Inactive)
REMARK    1  A    between atoms: C_2  and  N_3
REMARK    2  A    between atoms: N_3  and  C_4
REMARK    3  A    between atoms: N_3  and  C_6
REMARK    4  A    between atoms: C_6  and  C_7
REMARK    5  A    between atoms: C_7  and  O_8
REMARK    6  A    between atoms: O_8  and  C_9
REMARK    7  A    between atoms: C_12  and  O_13
REMARK    8  A    between atoms: O_13  and  C_14
REMARK    9  A    between atoms: C_15  and  C_16
REMARK                            x       y       z     vdW  Elec       q    Type
REMARK                         _______ _______ _______ _____ _____    ______ ____
ROOT
ATOM      1  C   UNL     1      37.470  -1.516  16.162  0.00  0.00    +0.000 A 
ATOM      2  C   UNL     1      36.247  -0.997  15.832  0.00  0.00    +0.000 A 
ATOM      3  S   UNL     1      35.217  -2.357  15.922  0.00  0.00    +0.000 S 
ATOM      4  C   UNL     1      36.355  -3.540  16.372  0.00  0.00    +0.000 A 
ATOM      5  C   UNL     1      36.294  -4.920  16.642  0.00  0.00    +0.000 A 
ATOM      6  C   UNL     1      37.437  -5.633  16.997  0.00  0.00    +0.000 A 
ATOM      7  O   UNL     1      37.395  -6.985  17.265  0.00  0.00    +0.000 OA
ATOM      8  C   UNL     1      38.588  -4.897  17.057  0.00  0.00    +0.000 A 
ATOM      9  C   UNL     1      38.685  -3.570  16.804  0.00  0.00    +0.000 A 
ATOM     10  C   UNL     1      37.524  -2.841  16.442  0.00  0.00    +0.000 A 
ENDROOT
BRANCH   2  11
ATOM     11  C   UNL     1      35.911   0.394  15.482  0.00  0.00    +0.000 A 
ATOM     12  C   UNL     1      35.214   1.121  16.421  0.00  0.00    +0.000 A 
ATOM     13  C   UNL     1      34.859   2.454  16.148  0.00  0.00    +0.000 A 
ATOM     14  C   UNL     1      35.212   3.018  14.942  0.00  0.00    +0.000 A 
ATOM     15  O   UNL     1      34.869   4.337  14.649  0.00  0.00    +0.000 OA
ATOM     16  C   UNL     1      35.910   2.297  13.995  0.00  0.00    +0.000 A 
ATOM     17  C   UNL     1      36.246   0.969  14.306  0.00  0.00    +0.000 A 
ENDBRANCH   2  11
BRANCH   1  18
ATOM     18  O   UNL     1      38.586  -0.627  16.185  0.00  0.00    +0.000 OA
BRANCH  18  22
ATOM     19  C   UNL     1      40.979  -0.228  12.756  0.00  0.00    +0.000 A 
ATOM     20  C   UNL     1      40.486  -1.457  13.141  0.00  0.00    +0.000 A 
ATOM     21  C   UNL     1      39.694  -1.594  14.274  0.00  0.00    +0.000 A 
ATOM     22  C   UNL     1      39.379  -0.504  15.046  0.00  0.00    +0.000 A 
ATOM     23  C   UNL     1      39.862   0.723  14.675  0.00  0.00    +0.000 A 
ATOM     24  C   UNL     1      40.642   0.837  13.553  0.00  0.00    +0.000 A 
BRANCH  19  25
ATOM     25  O   UNL     1      41.763  -0.112  11.630  0.00  0.00    +0.000 OA
BRANCH  25  26
ATOM     26  C   UNL     1      42.758  -1.038  11.265  0.00  0.00    +0.000 C 
BRANCH  26  27
ATOM     27  C   UNL     1      43.964  -0.771  12.167  0.00  0.00    +0.000 C 
BRANCH  27  28
ATOM     28  N   UNL     1      44.162  -1.955  12.957  0.00  0.00    +0.000 NA
BRANCH  28  30
ATOM     29  C   UNL     1      44.093  -0.265  14.708  0.00  0.00    +0.000 C 
ATOM     30  C   UNL     1      44.317  -1.704  14.365  0.00  0.00    +0.000 C 
ENDBRANCH  28  30
BRANCH  28  31
ATOM     31  C   UNL     1      45.204  -2.754  12.380  0.00  0.00    +0.000 C 
ATOM     32  C   UNL     1      45.714  -3.839  13.269  0.00  0.00    +0.000 C 
ENDBRANCH  28  31
ENDBRANCH  27  28
ENDBRANCH  26  27
ENDBRANCH  25  26
ENDBRANCH  19  25
ENDBRANCH  18  22
ENDBRANCH   1  18
TORSDOF 9
ENDMDL
