MODEL 1
REMARK VINA RESULT:      -7.3      0.000      0.000
REMARK  Name = 
REMARK  7 active torsions:
REMARK  status: ('A' for Active; 'I' for Inactive)
REMARK    1  A    between atoms: C_2  and  C_3
REMARK    2  A    between atoms: C_3  and  C_4
REMARK    3  A    between atoms: C_7  and  N_8
REMARK    4  A    between atoms: C_9  and  C_11
REMARK    5  A    between atoms: N_14  and  C_15
REMARK    6  A    between atoms: C_15  and  C_16
REMARK    7  A    between atoms: C_15  and  C_22
REMARK                            x       y       z     vdW  Elec       q    Type
REMARK                         _______ _______ _______ _____ _____    ______ ____
ROOT
ATOM      1  C   UNL     1      36.705   0.940  16.119  0.00  0.00    +0.000 A 
ATOM      2  N   UNL     1      36.204   0.030  16.968  0.00  0.00    +0.000 NA
ATOM      3  C   UNL     1      36.301  -1.200  16.408  0.00  0.00    +0.000 A 
ATOM      4  N   UNL     1      36.863  -1.096  15.195  0.00  0.00    +0.000 N 
ATOM      5  C   UNL     1      37.115   0.212  15.010  0.00  0.00    +0.000 A 
ATOM      6  C   UNL     1      37.735   0.801  13.810  0.00  0.00    +0.000 C 
ENDROOT
BRANCH   1   8
ATOM      7  N   UNL     1      37.992   3.098  16.374  0.00  0.00    +0.000 NA
ATOM      8  C   UNL     1      36.788   2.374  16.341  0.00  0.00    +0.000 C 
ATOM      9  O   UNL     1      35.716   3.006  16.513  0.00  0.00    +0.000 OA
BRANCH   7  13
ATOM     10  C   UNL     1      38.237   7.271  17.126  0.00  0.00    +0.000 A 
ATOM     11  C   UNL     1      37.881   6.790  15.888  0.00  0.00    +0.000 A 
ATOM     12  C   UNL     1      37.793   5.438  15.615  0.00  0.00    +0.000 A 
ATOM     13  C   UNL     1      38.065   4.506  16.591  0.00  0.00    +0.000 A 
ATOM     14  C   UNL     1      38.423   4.972  17.838  0.00  0.00    +0.000 A 
ATOM     15  C   UNL     1      38.511   6.337  18.112  0.00  0.00    +0.000 A 
BRANCH  10  16
ATOM     16  C   UNL     1      38.323   8.730  17.393  0.00  0.00    +0.000 C 
BRANCH  16  18
ATOM     17  C   UNL     1      38.480  10.398  19.246  0.00  0.00    +0.000 C 
ATOM     18  C   UNL     1      38.588   8.954  18.876  0.00  0.00    +0.000 C 
ENDBRANCH  16  18
ENDBRANCH  10  16
ENDBRANCH   7  13
ENDBRANCH   1   8
BRANCH   4  19
ATOM     19  C   UNL     1      37.122  -2.219  14.308  0.00  0.00    +0.000 C 
BRANCH  19  20
ATOM     20  C   UNL     1      38.582  -2.412  14.117  0.00  0.00    +0.000 A 
ATOM     21  C   UNL     1      39.496  -2.264  15.129  0.00  0.00    +0.000 A 
ATOM     22  C   UNL     1      40.825  -2.465  14.853  0.00  0.00    +0.000 A 
ATOM     23  C   UNL     1      41.231  -2.808  13.586  0.00  0.00    +0.000 A 
ATOM     24  C   UNL     1      40.332  -2.963  12.554  0.00  0.00    +0.000 A 
ATOM     25  C   UNL     1      39.006  -2.756  12.855  0.00  0.00    +0.000 A 
ENDBRANCH  19  20
BRANCH  19  26
ATOM     26  C   UNL     1      36.483  -3.421  14.883  0.00  0.00    +0.000 A 
ATOM     27  C   UNL     1      37.152  -4.196  15.809  0.00  0.00    +0.000 A 
ATOM     28  C   UNL     1      36.573  -5.318  16.355  0.00  0.00    +0.000 A 
ATOM     29  C   UNL     1      35.299  -5.653  15.951  0.00  0.00    +0.000 A 
ATOM     30  C   UNL     1      34.630  -4.884  15.030  0.00  0.00    +0.000 A 
ATOM     31  C   UNL     1      35.224  -3.764  14.494  0.00  0.00    +0.000 A 
ENDBRANCH  19  26
ENDBRANCH   4  19
TORSDOF 7
ENDMDL
MODEL 2
REMARK VINA RESULT:      -7.2      1.938      2.407
REMARK  Name = 
REMARK  7 active torsions:
REMARK  status: ('A' for Active; 'I' for Inactive)
REMARK    1  A    between atoms: C_2  and  C_3
REMARK    2  A    between atoms: C_3  and  C_4
REMARK    3  A    between atoms: C_7  and  N_8
REMARK    4  A    between atoms: C_9  and  C_11
REMARK    5  A    between atoms: N_14  and  C_15
REMARK    6  A    between atoms: C_15  and  C_16
REMARK    7  A    between atoms: C_15  and  C_22
REMARK                            x       y       z     vdW  Elec       q    Type
REMARK                         _______ _______ _______ _____ _____    ______ ____
ROOT
ATOM      1  C   UNL     1      36.558   1.218  15.327  0.00  0.00    +0.000 A 
ATOM      2  N   UNL     1      36.759   0.502  16.443  0.00  0.00    +0.000 NA
ATOM      3  C   UNL     1      37.103  -0.763  16.105  0.00  0.00    +0.000 A 
ATOM      4  N   UNL     1      37.128  -0.877  14.769  0.00  0.00    +0.000 N 
ATOM      5  C   UNL     1      36.797   0.331  14.284  0.00  0.00    +0.000 A 
ATOM      6  C   UNL     1      36.696   0.681  12.855  0.00  0.00    +0.000 C 
ENDROOT
BRANCH   1   8
ATOM      7  N   UNL     1      36.780   3.557  14.402  0.00  0.00    +0.000 NA
ATOM      8  C   UNL     1      36.176   2.618  15.254  0.00  0.00    +0.000 C 
ATOM      9  O   UNL     1      35.245   3.013  16.000  0.00  0.00    +0.000 OA
BRANCH   7  13
ATOM     10  C   UNL     1      35.730   7.670  14.270  0.00  0.00    +0.000 A 
ATOM     11  C   UNL     1      34.965   6.719  13.636  0.00  0.00    +0.000 A 
ATOM     12  C   UNL     1      35.284   5.374  13.662  0.00  0.00    +0.000 A 
ATOM     13  C   UNL     1      36.398   4.929  14.337  0.00  0.00    +0.000 A 
ATOM     14  C   UNL     1      37.175   5.871  14.977  0.00  0.00    +0.000 A 
ATOM     15  C   UNL     1      36.853   7.228  14.950  0.00  0.00    +0.000 A 
BRANCH  10  16
ATOM     16  C   UNL     1      35.366   9.110  14.226  0.00  0.00    +0.000 C 
BRANCH  16  18
ATOM     17  C   UNL     1      33.746   9.228  16.125  0.00  0.00    +0.000 C 
ATOM     18  C   UNL     1      33.909   9.271  14.639  0.00  0.00    +0.000 C 
ENDBRANCH  16  18
ENDBRANCH  10  16
ENDBRANCH   7  13
ENDBRANCH   1   8
BRANCH   4  19
ATOM     19  C   UNL     1      37.460  -2.099  14.053  0.00  0.00    +0.000 C 
BRANCH  19  20
ATOM     20  C   UNL     1      38.929  -2.228  13.886  0.00  0.00    +0.000 A 
ATOM     21  C   UNL     1      39.832  -1.778  14.816  0.00  0.00    +0.000 A 
ATOM     22  C   UNL     1      41.171  -1.945  14.571  0.00  0.00    +0.000 A 
ATOM     23  C   UNL     1      41.600  -2.550  13.415  0.00  0.00    +0.000 A 
ATOM     24  C   UNL     1      40.714  -3.011  12.466  0.00  0.00    +0.000 A 
ATOM     25  C   UNL     1      39.376  -2.833  12.735  0.00  0.00    +0.000 A 
ENDBRANCH  19  20
BRANCH  19  26
ATOM     26  C   UNL     1      36.892  -3.243  14.798  0.00  0.00    +0.000 A 
ATOM     27  C   UNL     1      37.653  -3.916  15.733  0.00  0.00    +0.000 A 
ATOM     28  C   UNL     1      37.142  -4.983  16.437  0.00  0.00    +0.000 A 
ATOM     29  C   UNL     1      35.843  -5.364  16.184  0.00  0.00    +0.000 A 
ATOM     30  C   UNL     1      35.083  -4.695  15.254  0.00  0.00    +0.000 A 
ATOM     31  C   UNL     1      35.610  -3.631  14.560  0.00  0.00    +0.000 A 
ENDBRANCH  19  26
ENDBRANCH   4  19
TORSDOF 7
ENDMDL
MODEL 3
REMARK VINA RESULT:      -7.1      2.714      4.656
REMARK  Name = 
REMARK  7 active torsions:
REMARK  status: ('A' for Active; 'I' for Inactive)
REMARK    1  A    between atoms: C_2  and  C_3
REMARK    2  A    between atoms: C_3  and  C_4
REMARK    3  A    between atoms: C_7  and  N_8
REMARK    4  A    between atoms: C_9  and  C_11
REMARK    5  A    between atoms: N_14  and  C_15
REMARK    6  A    between atoms: C_15  and  C_16
REMARK    7  A    between atoms: C_15  and  C_22
REMARK                            x       y       z     vdW  Elec       q    Type
REMARK                         _______ _______ _______ _____ _____    ______ ____
ROOT
ATOM      1  C   UNL     1      35.958   2.051  14.585  0.00  0.00    +0.000 A 
ATOM      2  N   UNL     1      36.261   1.395  13.455  0.00  0.00    +0.000 NA
ATOM      3  C   UNL     1      36.734   0.166  13.768  0.00  0.00    +0.000 A 
ATOM      4  N   UNL     1      36.742   0.015  15.100  0.00  0.00    +0.000 N 
ATOM      5  C   UNL     1      36.267   1.165  15.609  0.00  0.00    +0.000 A 
ATOM      6  C   UNL     1      36.095   1.458  17.044  0.00  0.00    +0.000 C 
ENDROOT
BRANCH   1   8
ATOM      7  N   UNL     1      36.000   4.525  14.080  0.00  0.00    +0.000 NA
ATOM      8  C   UNL     1      35.421   3.398  14.686  0.00  0.00    +0.000 C 
ATOM      9  O   UNL     1      34.373   3.565  15.358  0.00  0.00    +0.000 OA
BRANCH   7  13
ATOM     10  C   UNL     1      34.509   8.487  14.422  0.00  0.00    +0.000 A 
ATOM     11  C   UNL     1      33.697   7.453  14.018  0.00  0.00    +0.000 A 
ATOM     12  C   UNL     1      34.156   6.154  13.898  0.00  0.00    +0.000 A 
ATOM     13  C   UNL     1      35.466   5.843  14.183  0.00  0.00    +0.000 A 
ATOM     14  C   UNL     1      36.293   6.869  14.590  0.00  0.00    +0.000 A 
ATOM     15  C   UNL     1      35.829   8.179  14.711  0.00  0.00    +0.000 A 
BRANCH  10  16
ATOM     16  C   UNL     1      33.991   9.874  14.544  0.00  0.00    +0.000 C 
BRANCH  16  18
ATOM     17  C   UNL     1      34.451  10.348  12.134  0.00  0.00    +0.000 C 
ATOM     18  C   UNL     1      34.713  10.769  13.544  0.00  0.00    +0.000 C 
ENDBRANCH  16  18
ENDBRANCH  10  16
ENDBRANCH   7  13
ENDBRANCH   1   8
BRANCH   4  19
ATOM     19  C   UNL     1      37.189  -1.184  15.791  0.00  0.00    +0.000 C 
BRANCH  19  20
ATOM     20  C   UNL     1      36.315  -2.337  15.459  0.00  0.00    +0.000 A 
ATOM     21  C   UNL     1      36.644  -3.283  14.522  0.00  0.00    +0.000 A 
ATOM     22  C   UNL     1      35.769  -4.313  14.287  0.00  0.00    +0.000 A 
ATOM     23  C   UNL     1      34.585  -4.395  14.978  0.00  0.00    +0.000 A 
ATOM     24  C   UNL     1      34.231  -3.458  15.924  0.00  0.00    +0.000 A 
ATOM     25  C   UNL     1      35.125  -2.435  16.142  0.00  0.00    +0.000 A 
ENDBRANCH  19  20
BRANCH  19  26
ATOM     26  C   UNL     1      38.596  -1.439  15.416  0.00  0.00    +0.000 A 
ATOM     27  C   UNL     1      39.338  -0.465  14.779  0.00  0.00    +0.000 A 
ATOM     28  C   UNL     1      40.649  -0.685  14.422  0.00  0.00    +0.000 A 
ATOM     29  C   UNL     1      41.206  -1.909  14.718  0.00  0.00    +0.000 A 
ATOM     30  C   UNL     1      40.470  -2.881  15.352  0.00  0.00    +0.000 A 
ATOM     31  C   UNL     1      39.160  -2.645  15.702  0.00  0.00    +0.000 A 
ENDBRANCH  19  26
ENDBRANCH   4  19
TORSDOF 7
ENDMDL
MODEL 4
REMARK VINA RESULT:      -7.0      3.315      4.141
REMARK  Name = 
REMARK  7 active torsions:
REMARK  status: ('A' for Active; 'I' for Inactive)
REMARK    1  A    between atoms: C_2  and  C_3
REMARK    2  A    between atoms: C_3  and  C_4
REMARK    3  A    between atoms: C_7  and  N_8
REMARK    4  A    between atoms: C_9  and  C_11
REMARK    5  A    between atoms: N_14  and  C_15
REMARK    6  A    between atoms: C_15  and  C_16
REMARK    7  A    between atoms: C_15  and  C_22
REMARK                            x       y       z     vdW  Elec       q    Type
REMARK                         _______ _______ _______ _____ _____    ______ ____
ROOT
ATOM      1  C   UNL     1      35.749   1.667  15.891  0.00  0.00    +0.000 A 
ATOM      2  N   UNL     1      34.833   1.188  16.746  0.00  0.00    +0.000 NA
ATOM      3  C   UNL     1      35.011  -0.147  16.888  0.00  0.00    +0.000 A 
ATOM      4  N   UNL     1      36.042  -0.543  16.127  0.00  0.00    +0.000 N 
ATOM      5  C   UNL     1      36.501   0.561  15.514  0.00  0.00    +0.000 A 
ATOM      6  C   UNL     1      37.636   0.608  14.574  0.00  0.00    +0.000 C 
ENDROOT
BRANCH   1   8
ATOM      7  N   UNL     1      35.266   3.606  14.347  0.00  0.00    +0.000 NA
ATOM      8  C   UNL     1      35.900   3.050  15.471  0.00  0.00    +0.000 C 
ATOM      9  O   UNL     1      36.645   3.794  16.155  0.00  0.00    +0.000 OA
BRANCH   7  13
ATOM     10  C   UNL     1      35.620   7.673  13.177  0.00  0.00    +0.000 A 
ATOM     11  C   UNL     1      36.639   6.776  12.954  0.00  0.00    +0.000 A 
ATOM     12  C   UNL     1      36.551   5.447  13.325  0.00  0.00    +0.000 A 
ATOM     13  C   UNL     1      35.419   4.964  13.942  0.00  0.00    +0.000 A 
ATOM     14  C   UNL     1      34.388   5.851  14.172  0.00  0.00    +0.000 A 
ATOM     15  C   UNL     1      34.479   7.192  13.798  0.00  0.00    +0.000 A 
BRANCH  10  16
ATOM     16  C   UNL     1      35.741   9.097  12.769  0.00  0.00    +0.000 C 
BRANCH  16  18
ATOM     17  C   UNL     1      34.736   9.403  10.503  0.00  0.00    +0.000 C 
ATOM     18  C   UNL     1      34.504   9.498  11.976  0.00  0.00    +0.000 C 
ENDBRANCH  16  18
ENDBRANCH  10  16
ENDBRANCH   7  13
ENDBRANCH   1   8
BRANCH   4  19
ATOM     19  C   UNL     1      36.517  -1.915  16.033  0.00  0.00    +0.000 C 
BRANCH  19  20
ATOM     20  C   UNL     1      37.194  -2.323  17.290  0.00  0.00    +0.000 A 
ATOM     21  C   UNL     1      37.007  -1.678  18.486  0.00  0.00    +0.000 A 
ATOM     22  C   UNL     1      37.678  -2.132  19.593  0.00  0.00    +0.000 A 
ATOM     23  C   UNL     1      38.521  -3.213  19.505  0.00  0.00    +0.000 A 
ATOM     24  C   UNL     1      38.725  -3.878  18.315  0.00  0.00    +0.000 A 
ATOM     25  C   UNL     1      38.041  -3.404  17.220  0.00  0.00    +0.000 A 
ENDBRANCH  19  20
BRANCH  19  26
ATOM     26  C   UNL     1      35.362  -2.786  15.727  0.00  0.00    +0.000 A 
ATOM     27  C   UNL     1      34.221  -2.733  16.501  0.00  0.00    +0.000 A 
ATOM     28  C   UNL     1      33.136  -3.537  16.232  0.00  0.00    +0.000 A 
ATOM     29  C   UNL     1      33.218  -4.401  15.162  0.00  0.00    +0.000 A 
ATOM     30  C   UNL     1      34.353  -4.454  14.389  0.00  0.00    +0.000 A 
ATOM     31  C   UNL     1      35.429  -3.644  14.673  0.00  0.00    +0.000 A 
ENDBRANCH  19  26
ENDBRANCH   4  19
TORSDOF 7
ENDMDL
MODEL 5
REMARK VINA RESULT:      -7.0      1.919     10.165
REMARK  Name = 
REMARK  7 active torsions:
REMARK  status: ('A' for Active; 'I' for Inactive)
REMARK    1  A    between atoms: C_2  and  C_3
REMARK    2  A    between atoms: C_3  and  C_4
REMARK    3  A    between atoms: C_7  and  N_8
REMARK    4  A    between atoms: C_9  and  C_11
REMARK    5  A    between atoms: N_14  and  C_15
REMARK    6  A    between atoms: C_15  and  C_16
REMARK    7  A    between atoms: C_15  and  C_22
REMARK                            x       y       z     vdW  Elec       q    Type
REMARK                         _______ _______ _______ _____ _____    ______ ____
ROOT
ATOM      1  C   UNL     1      37.538   4.005  15.968  0.00  0.00    +0.000 A 
ATOM      2  N   UNL     1      37.686   5.064  15.159  0.00  0.00    +0.000 NA
ATOM      3  C   UNL     1      38.127   6.120  15.884  0.00  0.00    +0.000 A 
ATOM      4  N   UNL     1      38.268   5.753  17.166  0.00  0.00    +0.000 N 
ATOM      5  C   UNL     1      37.910   4.459  17.227  0.00  0.00    +0.000 A 
ATOM      6  C   UNL     1      37.907   3.629  18.445  0.00  0.00    +0.000 C 
ENDROOT
BRANCH   1   8
ATOM      7  N   UNL     1      37.834   1.505  15.770  0.00  0.00    +0.000 NA
ATOM      8  C   UNL     1      37.086   2.679  15.582  0.00  0.00    +0.000 C 
ATOM      9  O   UNL     1      35.954   2.576  15.047  0.00  0.00    +0.000 OA
BRANCH   7  13
ATOM     10  C   UNL     1      36.433  -2.367  14.732  0.00  0.00    +0.000 A 
ATOM     11  C   UNL     1      37.263  -1.662  13.892  0.00  0.00    +0.000 A 
ATOM     12  C   UNL     1      37.733  -0.400  14.205  0.00  0.00    +0.000 A 
ATOM     13  C   UNL     1      37.382   0.207  15.389  0.00  0.00    +0.000 A 
ATOM     14  C   UNL     1      36.551  -0.488  16.242  0.00  0.00    +0.000 A 
ATOM     15  C   UNL     1      36.076  -1.761  15.925  0.00  0.00    +0.000 A 
BRANCH  10  16
ATOM     16  C   UNL     1      35.941  -3.722  14.371  0.00  0.00    +0.000 C 
BRANCH  16  18
ATOM     17  C   UNL     1      33.652  -4.718  14.262  0.00  0.00    +0.000 C 
ATOM     18  C   UNL     1      34.644  -4.001  15.120  0.00  0.00    +0.000 C 
ENDBRANCH  16  18
ENDBRANCH  10  16
ENDBRANCH   7  13
ENDBRANCH   1   8
BRANCH   4  19
ATOM     19  C   UNL     1      38.724   6.635  18.230  0.00  0.00    +0.000 C 
BRANCH  19  20
ATOM     20  C   UNL     1      40.202   6.582  18.358  0.00  0.00    +0.000 A 
ATOM     21  C   UNL     1      41.047   6.531  17.278  0.00  0.00    +0.000 A 
ATOM     22  C   UNL     1      42.399   6.486  17.500  0.00  0.00    +0.000 A 
ATOM     23  C   UNL     1      42.899   6.492  18.779  0.00  0.00    +0.000 A 
ATOM     24  C   UNL     1      42.071   6.543  19.880  0.00  0.00    +0.000 A 
ATOM     25  C   UNL     1      40.718   6.588  19.632  0.00  0.00    +0.000 A 
ENDBRANCH  19  20
BRANCH  19  26
ATOM     26  C   UNL     1      38.249   8.003  17.934  0.00  0.00    +0.000 A 
ATOM     27  C   UNL     1      37.031   8.441  18.413  0.00  0.00    +0.000 A 
ATOM     28  C   UNL     1      36.573   9.711  18.148  0.00  0.00    +0.000 A 
ATOM     29  C   UNL     1      37.366  10.542  17.387  0.00  0.00    +0.000 A 
ATOM     30  C   UNL     1      38.580  10.109  16.909  0.00  0.00    +0.000 A 
ATOM     31  C   UNL     1      39.023   8.835  17.184  0.00  0.00    +0.000 A 
ENDBRANCH  19  26
ENDBRANCH   4  19
TORSDOF 7
ENDMDL
MODEL 6
REMARK VINA RESULT:      -7.0      2.559      3.270
REMARK  Name = 
REMARK  7 active torsions:
REMARK  status: ('A' for Active; 'I' for Inactive)
REMARK    1  A    between atoms: C_2  and  C_3
REMARK    2  A    between atoms: C_3  and  C_4
REMARK    3  A    between atoms: C_7  and  N_8
REMARK    4  A    between atoms: C_9  and  C_11
REMARK    5  A    between atoms: N_14  and  C_15
REMARK    6  A    between atoms: C_15  and  C_16
REMARK    7  A    between atoms: C_15  and  C_22
REMARK                            x       y       z     vdW  Elec       q    Type
REMARK                         _______ _______ _______ _____ _____    ______ ____
ROOT
ATOM      1  C   UNL     1      37.988   1.815  14.801  0.00  0.00    +0.000 A 
ATOM      2  N   UNL     1      39.320   1.658  14.836  0.00  0.00    +0.000 NA
ATOM      3  C   UNL     1      39.619   0.350  14.655  0.00  0.00    +0.000 A 
ATOM      4  N   UNL     1      38.486  -0.350  14.502  0.00  0.00    +0.000 N 
ATOM      5  C   UNL     1      37.481   0.539  14.589  0.00  0.00    +0.000 A 
ATOM      6  C   UNL     1      36.046   0.221  14.479  0.00  0.00    +0.000 C 
ENDROOT
BRANCH   1   8
ATOM      7  N   UNL     1      36.947   3.928  13.892  0.00  0.00    +0.000 NA
ATOM      8  C   UNL     1      37.259   3.063  14.954  0.00  0.00    +0.000 C 
ATOM      9  O   UNL     1      36.886   3.389  16.108  0.00  0.00    +0.000 OA
BRANCH   7  13
ATOM     10  C   UNL     1      34.911   7.623  14.383  0.00  0.00    +0.000 A 
ATOM     11  C   UNL     1      34.224   6.461  14.120  0.00  0.00    +0.000 A 
ATOM     12  C   UNL     1      34.861   5.244  13.955  0.00  0.00    +0.000 A 
ATOM     13  C   UNL     1      36.231   5.151  14.050  0.00  0.00    +0.000 A 
ATOM     14  C   UNL     1      36.934   6.308  14.314  0.00  0.00    +0.000 A 
ATOM     15  C   UNL     1      36.290   7.534  14.479  0.00  0.00    +0.000 A 
BRANCH  10  16
ATOM     16  C   UNL     1      34.202   8.917  14.555  0.00  0.00    +0.000 C 
BRANCH  16  18
ATOM     17  C   UNL     1      33.946   9.880  16.846  0.00  0.00    +0.000 C 
ATOM     18  C   UNL     1      33.417   8.889  15.860  0.00  0.00    +0.000 C 
ENDBRANCH  16  18
ENDBRANCH  10  16
ENDBRANCH   7  13
ENDBRANCH   1   8
BRANCH   4  19
ATOM     19  C   UNL     1      38.428  -1.788  14.287  0.00  0.00    +0.000 C 
BRANCH  19  20
ATOM     20  C   UNL     1      39.596  -2.247  13.493  0.00  0.00    +0.000 A 
ATOM     21  C   UNL     1      40.780  -2.644  14.060  0.00  0.00    +0.000 A 
ATOM     22  C   UNL     1      41.801  -3.052  13.241  0.00  0.00    +0.000 A 
ATOM     23  C   UNL     1      41.641  -3.063  11.877  0.00  0.00    +0.000 A 
ATOM     24  C   UNL     1      40.462  -2.669  11.283  0.00  0.00    +0.000 A 
ATOM     25  C   UNL     1      39.452  -2.264  12.126  0.00  0.00    +0.000 A 
ENDBRANCH  19  20
BRANCH  19  26
ATOM     26  C   UNL     1      38.369  -2.453  15.605  0.00  0.00    +0.000 A 
ATOM     27  C   UNL     1      38.048  -3.792  15.701  0.00  0.00    +0.000 A 
ATOM     28  C   UNL     1      37.988  -4.428  16.920  0.00  0.00    +0.000 A 
ATOM     29  C   UNL     1      38.259  -3.690  18.051  0.00  0.00    +0.000 A 
ATOM     30  C   UNL     1      38.581  -2.357  17.959  0.00  0.00    +0.000 A 
ATOM     31  C   UNL     1      38.636  -1.736  16.732  0.00  0.00    +0.000 A 
ENDBRANCH  19  26
ENDBRANCH   4  19
TORSDOF 7
ENDMDL
MODEL 7
REMARK VINA RESULT:      -6.9      2.056      9.891
REMARK  Name = 
REMARK  7 active torsions:
REMARK  status: ('A' for Active; 'I' for Inactive)
REMARK    1  A    between atoms: C_2  and  C_3
REMARK    2  A    between atoms: C_3  and  C_4
REMARK    3  A    between atoms: C_7  and  N_8
REMARK    4  A    between atoms: C_9  and  C_11
REMARK    5  A    between atoms: N_14  and  C_15
REMARK    6  A    between atoms: C_15  and  C_16
REMARK    7  A    between atoms: C_15  and  C_22
REMARK                            x       y       z     vdW  Elec       q    Type
REMARK                         _______ _______ _______ _____ _____    ______ ____
ROOT
ATOM      1  C   UNL     1      37.289   2.599  16.158  0.00  0.00    +0.000 A 
ATOM      2  N   UNL     1      37.223   3.242  17.334  0.00  0.00    +0.000 NA
ATOM      3  C   UNL     1      37.846   4.440  17.221  0.00  0.00    +0.000 A 
ATOM      4  N   UNL     1      38.320   4.581  15.975  0.00  0.00    +0.000 N 
ATOM      5  C   UNL     1      37.983   3.459  15.316  0.00  0.00    +0.000 A 
ATOM      6  C   UNL     1      38.298   3.169  13.906  0.00  0.00    +0.000 C 
ENDROOT
BRANCH   1   8
ATOM      7  N   UNL     1      37.442   0.081  16.039  0.00  0.00    +0.000 NA
ATOM      8  C   UNL     1      36.742   1.286  15.859  0.00  0.00    +0.000 C 
ATOM      9  O   UNL     1      35.571   1.225  15.411  0.00  0.00    +0.000 OA
BRANCH   7  13
ATOM     10  C   UNL     1      35.788  -3.753  15.264  0.00  0.00    +0.000 A 
ATOM     11  C   UNL     1      36.407  -3.031  14.270  0.00  0.00    +0.000 A 
ATOM     12  C   UNL     1      36.954  -1.780  14.495  0.00  0.00    +0.000 A 
ATOM     13  C   UNL     1      36.897  -1.203  15.743  0.00  0.00    +0.000 A 
ATOM     14  C   UNL     1      36.280  -1.915  16.749  0.00  0.00    +0.000 A 
ATOM     15  C   UNL     1      35.729  -3.177  16.522  0.00  0.00    +0.000 A 
BRANCH  10  16
ATOM     16  C   UNL     1      35.209  -5.095  14.996  0.00  0.00    +0.000 C 
BRANCH  16  18
ATOM     17  C   UNL     1      32.789  -4.514  15.217  0.00  0.00    +0.000 C 
ATOM     18  C   UNL     1      33.875  -4.932  14.278  0.00  0.00    +0.000 C 
ENDBRANCH  16  18
ENDBRANCH  10  16
ENDBRANCH   7  13
ENDBRANCH   1   8
BRANCH   4  19
ATOM     19  C   UNL     1      39.046   5.748  15.498  0.00  0.00    +0.000 C 
BRANCH  19  20
ATOM     20  C   UNL     1      38.136   6.913  15.362  0.00  0.00    +0.000 A 
ATOM     21  C   UNL     1      38.238   8.040  16.137  0.00  0.00    +0.000 A 
ATOM     22  C   UNL     1      37.350   9.065  15.934  0.00  0.00    +0.000 A 
ATOM     23  C   UNL     1      36.375   8.964  14.971  0.00  0.00    +0.000 A 
ATOM     24  C   UNL     1      36.252   7.843  14.179  0.00  0.00    +0.000 A 
ATOM     25  C   UNL     1      37.155   6.829  14.402  0.00  0.00    +0.000 A 
ENDBRANCH  19  20
BRANCH  19  26
ATOM     26  C   UNL     1      40.150   6.025  16.441  0.00  0.00    +0.000 A 
ATOM     27  C   UNL     1      39.931   5.998  17.803  0.00  0.00    +0.000 A 
ATOM     28  C   UNL     1      40.947   6.254  18.696  0.00  0.00    +0.000 A 
ATOM     29  C   UNL     1      42.197   6.538  18.193  0.00  0.00    +0.000 A 
ATOM     30  C   UNL     1      42.419   6.565  16.837  0.00  0.00    +0.000 A 
ATOM     31  C   UNL     1      41.392   6.307  15.958  0.00  0.00    +0.000 A 
ENDBRANCH  19  26
ENDBRANCH   4  19
TORSDOF 7
ENDMDL
MODEL 8
REMARK VINA RESULT:      -6.8     18.269     23.103
REMARK  Name = 
REMARK  7 active torsions:
REMARK  status: ('A' for Active; 'I' for Inactive)
REMARK    1  A    between atoms: C_2  and  C_3
REMARK    2  A    between atoms: C_3  and  C_4
REMARK    3  A    between atoms: C_7  and  N_8
REMARK    4  A    between atoms: C_9  and  C_11
REMARK    5  A    between atoms: N_14  and  C_15
REMARK    6  A    between atoms: C_15  and  C_16
REMARK    7  A    between atoms: C_15  and  C_22
REMARK                            x       y       z     vdW  Elec       q    Type
REMARK                         _______ _______ _______ _____ _____    ______ ____
ROOT
ATOM      1  C   UNL     1      26.097  17.728  20.646  0.00  0.00    +0.000 A 
ATOM      2  N   UNL     1      24.986  17.059  20.990  0.00  0.00    +0.000 NA
ATOM      3  C   UNL     1      23.900  17.790  20.643  0.00  0.00    +0.000 A 
ATOM      4  N   UNL     1      24.297  18.936  20.073  0.00  0.00    +0.000 N 
ATOM      5  C   UNL     1      25.641  18.907  20.069  0.00  0.00    +0.000 A 
ATOM      6  C   UNL     1      26.518  19.964  19.534  0.00  0.00    +0.000 C 
ENDROOT
BRANCH   1   8
ATOM      7  N   UNL     1      28.519  18.137  21.232  0.00  0.00    +0.000 NA
ATOM      8  C   UNL     1      27.468  17.289  20.844  0.00  0.00    +0.000 C 
ATOM      9  O   UNL     1      27.729  16.075  20.658  0.00  0.00    +0.000 OA
BRANCH   7  13
ATOM     10  C   UNL     1      32.501  16.829  21.917  0.00  0.00    +0.000 A 
ATOM     11  C   UNL     1      32.031  17.044  20.642  0.00  0.00    +0.000 A 
ATOM     12  C   UNL     1      30.740  17.469  20.390  0.00  0.00    +0.000 A 
ATOM     13  C   UNL     1      29.861  17.697  21.425  0.00  0.00    +0.000 A 
ATOM     14  C   UNL     1      30.318  17.486  22.709  0.00  0.00    +0.000 A 
ATOM     15  C   UNL     1      31.621  17.057  22.962  0.00  0.00    +0.000 A 
BRANCH  10  16
ATOM     16  C   UNL     1      33.894  16.372  22.160  0.00  0.00    +0.000 C 
BRANCH  16  18
ATOM     17  C   UNL     1      35.157  16.677  24.294  0.00  0.00    +0.000 C 
ATOM     18  C   UNL     1      34.037  15.954  23.618  0.00  0.00    +0.000 C 
ENDBRANCH  16  18
ENDBRANCH  10  16
ENDBRANCH   7  13
ENDBRANCH   1   8
BRANCH   4  19
ATOM     19  C   UNL     1      23.396  19.965  19.576  0.00  0.00    +0.000 C 
BRANCH  19  20
ATOM     20  C   UNL     1      22.190  19.354  18.963  0.00  0.00    +0.000 A 
ATOM     21  C   UNL     1      21.098  18.954  19.692  0.00  0.00    +0.000 A 
ATOM     22  C   UNL     1      20.031  18.401  19.033  0.00  0.00    +0.000 A 
ATOM     23  C   UNL     1      20.054  18.250  17.668  0.00  0.00    +0.000 A 
ATOM     24  C   UNL     1      21.138  18.643  16.914  0.00  0.00    +0.000 A 
ATOM     25  C   UNL     1      22.196  19.196  17.598  0.00  0.00    +0.000 A 
ENDBRANCH  19  20
BRANCH  19  26
ATOM     26  C   UNL     1      23.045  20.856  20.701  0.00  0.00    +0.000 A 
ATOM     27  C   UNL     1      23.566  20.634  21.960  0.00  0.00    +0.000 A 
ATOM     28  C   UNL     1      23.250  21.453  23.020  0.00  0.00    +0.000 A 
ATOM     29  C   UNL     1      22.396  22.510  22.791  0.00  0.00    +0.000 A 
ATOM     30  C   UNL     1      21.878  22.735  21.539  0.00  0.00    +0.000 A 
ATOM     31  C   UNL     1      22.203  21.905  20.491  0.00  0.00    +0.000 A 
ENDBRANCH  19  26
ENDBRANCH   4  19
TORSDOF 7
ENDMDL
MODEL 9
REMARK VINA RESULT:      -6.8      2.849     10.327
REMARK  Name = 
REMARK  7 active torsions:
REMARK  status: ('A' for Active; 'I' for Inactive)
REMARK    1  A    between atoms: C_2  and  C_3
REMARK    2  A    between atoms: C_3  and  C_4
REMARK    3  A    between atoms: C_7  and  N_8
REMARK    4  A    between atoms: C_9  and  C_11
REMARK    5  A    between atoms: N_14  and  C_15
REMARK    6  A    between atoms: C_15  and  C_16
REMARK    7  A    between atoms: C_15  and  C_22
REMARK                            x       y       z     vdW  Elec       q    Type
REMARK                         _______ _______ _______ _____ _____    ______ ____
ROOT
ATOM      1  C   UNL     1      38.490   4.667  15.921  0.00  0.00    +0.000 A 
ATOM      2  N   UNL     1      38.575   5.445  14.832  0.00  0.00    +0.000 NA
ATOM      3  C   UNL     1      39.104   6.642  15.181  0.00  0.00    +0.000 A 
ATOM      4  N   UNL     1      39.367   6.648  16.495  0.00  0.00    +0.000 N 
ATOM      5  C   UNL     1      38.995   5.442  16.957  0.00  0.00    +0.000 A 
ATOM      6  C   UNL     1      39.101   4.993  18.357  0.00  0.00    +0.000 C 
ENDROOT
BRANCH   1   8
ATOM      7  N   UNL     1      36.702   2.964  16.449  0.00  0.00    +0.000 NA
ATOM      8  C   UNL     1      37.979   3.307  15.974  0.00  0.00    +0.000 C 
ATOM      9  O   UNL     1      38.725   2.382  15.570  0.00  0.00    +0.000 OA
BRANCH   7  13
ATOM     10  C   UNL     1      35.216  -1.007  16.703  0.00  0.00    +0.000 A 
ATOM     11  C   UNL     1      35.618  -0.472  15.501  0.00  0.00    +0.000 A 
ATOM     12  C   UNL     1      36.105   0.817  15.389  0.00  0.00    +0.000 A 
ATOM     13  C   UNL     1      36.208   1.627  16.497  0.00  0.00    +0.000 A 
ATOM     14  C   UNL     1      35.809   1.106  17.710  0.00  0.00    +0.000 A 
ATOM     15  C   UNL     1      35.317  -0.195  17.821  0.00  0.00    +0.000 A 
BRANCH  10  16
ATOM     16  C   UNL     1      34.696  -2.395  16.796  0.00  0.00    +0.000 C 
BRANCH  16  18
ATOM     17  C   UNL     1      34.261  -4.029  14.956  0.00  0.00    +0.000 C 
ATOM     18  C   UNL     1      35.301  -3.233  15.677  0.00  0.00    +0.000 C 
ENDBRANCH  16  18
ENDBRANCH  10  16
ENDBRANCH   7  13
ENDBRANCH   1   8
BRANCH   4  19
ATOM     19  C   UNL     1      39.943   7.774  17.215  0.00  0.00    +0.000 C 
BRANCH  19  20
ATOM     20  C   UNL     1      39.094   8.144  18.375  0.00  0.00    +0.000 A 
ATOM     21  C   UNL     1      39.575   8.242  19.656  0.00  0.00    +0.000 A 
ATOM     22  C   UNL     1      38.710   8.592  20.661  0.00  0.00    +0.000 A 
ATOM     23  C   UNL     1      37.387   8.841  20.390  0.00  0.00    +0.000 A 
ATOM     24  C   UNL     1      36.880   8.750  19.112  0.00  0.00    +0.000 A 
ATOM     25  C   UNL     1      37.767   8.397  18.121  0.00  0.00    +0.000 A 
ENDBRANCH  19  20
BRANCH  19  26
ATOM     26  C   UNL     1      41.311   7.405  17.635  0.00  0.00    +0.000 A 
ATOM     27  C   UNL     1      42.329   7.316  16.707  0.00  0.00    +0.000 A 
ATOM     28  C   UNL     1      43.609   6.974  17.080  0.00  0.00    +0.000 A 
ATOM     29  C   UNL     1      43.851   6.719  18.412  0.00  0.00    +0.000 A 
ATOM     30  C   UNL     1      42.840   6.808  19.338  0.00  0.00    +0.000 A 
ATOM     31  C   UNL     1      41.566   7.151  18.948  0.00  0.00    +0.000 A 
ENDBRANCH  19  26
ENDBRANCH   4  19
TORSDOF 7
ENDMDL
MODEL 10
REMARK VINA RESULT:      -6.7     26.335     30.297
REMARK  Name = 
REMARK  7 active torsions:
REMARK  status: ('A' for Active; 'I' for Inactive)
REMARK    1  A    between atoms: C_2  and  C_3
REMARK    2  A    between atoms: C_3  and  C_4
REMARK    3  A    between atoms: C_7  and  N_8
REMARK    4  A    between atoms: C_9  and  C_11
REMARK    5  A    between atoms: N_14  and  C_15
REMARK    6  A    between atoms: C_15  and  C_16
REMARK    7  A    between atoms: C_15  and  C_22
REMARK                            x       y       z     vdW  Elec       q    Type
REMARK                         _______ _______ _______ _____ _____    ______ ____
ROOT
ATOM      1  C   UNL     1      25.866  14.555  39.159  0.00  0.00    +0.000 A 
ATOM      2  N   UNL     1      24.613  14.738  38.718  0.00  0.00    +0.000 NA
ATOM      3  C   UNL     1      24.634  15.570  37.650  0.00  0.00    +0.000 A 
ATOM      4  N   UNL     1      25.898  15.931  37.390  0.00  0.00    +0.000 N 
ATOM      5  C   UNL     1      26.661  15.313  38.309  0.00  0.00    +0.000 A 
ATOM      6  C   UNL     1      28.128  15.417  38.412  0.00  0.00    +0.000 C 
ENDROOT
BRANCH   1   8
ATOM      7  N   UNL     1      26.219  12.328  40.298  0.00  0.00    +0.000 NA
ATOM      8  C   UNL     1      26.276  13.732  40.285  0.00  0.00    +0.000 C 
ATOM      9  O   UNL     1      26.708  14.313  41.311  0.00  0.00    +0.000 OA
BRANCH   7  13
ATOM     10  C   UNL     1      27.518   9.922  43.547  0.00  0.00    +0.000 A 
ATOM     11  C   UNL     1      26.304  10.567  43.580  0.00  0.00    +0.000 A 
ATOM     12  C   UNL     1      25.856  11.357  42.537  0.00  0.00    +0.000 A 
ATOM     13  C   UNL     1      26.624  11.529  41.407  0.00  0.00    +0.000 A 
ATOM     14  C   UNL     1      27.843  10.887  41.359  0.00  0.00    +0.000 A 
ATOM     15  C   UNL     1      28.294  10.091  42.412  0.00  0.00    +0.000 A 
BRANCH  10  16
ATOM     16  C   UNL     1      27.975   9.079  44.682  0.00  0.00    +0.000 C 
BRANCH  16  18
ATOM     17  C   UNL     1      28.236   6.604  44.468  0.00  0.00    +0.000 C 
ATOM     18  C   UNL     1      27.267   7.732  44.623  0.00  0.00    +0.000 C 
ENDBRANCH  16  18
ENDBRANCH  10  16
ENDBRANCH   7  13
ENDBRANCH   1   8
BRANCH   4  19
ATOM     19  C   UNL     1      26.296  16.820  36.308  0.00  0.00    +0.000 C 
BRANCH  19  20
ATOM     20  C   UNL     1      25.839  16.290  34.999  0.00  0.00    +0.000 A 
ATOM     21  C   UNL     1      25.138  17.039  34.089  0.00  0.00    +0.000 A 
ATOM     22  C   UNL     1      24.761  16.459  32.905  0.00  0.00    +0.000 A 
ATOM     23  C   UNL     1      25.080  15.150  32.636  0.00  0.00    +0.000 A 
ATOM     24  C   UNL     1      25.784  14.377  33.533  0.00  0.00    +0.000 A 
ATOM     25  C   UNL     1      26.151  14.981  34.713  0.00  0.00    +0.000 A 
ENDBRANCH  19  20
BRANCH  19  26
ATOM     26  C   UNL     1      25.736  18.160  36.580  0.00  0.00    +0.000 A 
ATOM     27  C   UNL     1      24.408  18.308  36.926  0.00  0.00    +0.000 A 
ATOM     28  C   UNL     1      23.869  19.548  37.182  0.00  0.00    +0.000 A 
ATOM     29  C   UNL     1      24.694  20.647  37.085  0.00  0.00    +0.000 A 
ATOM     30  C   UNL     1      26.017  20.503  36.743  0.00  0.00    +0.000 A 
ATOM     31  C   UNL     1      26.540  19.255  36.489  0.00  0.00    +0.000 A 
ENDBRANCH  19  26
ENDBRANCH   4  19
TORSDOF 7
ENDMDL
