MODEL 1
REMARK VINA RESULT:      -7.6      0.000      0.000
REMARK  Name = 
REMARK  9 active torsions:
REMARK  status: ('A' for Active; 'I' for Inactive)
REMARK    1  A    between atoms: C_2  and  C_3
REMARK    2  A    between atoms: C_3  and  C_4
REMARK    3  A    between atoms: C_4  and  C_5
REMARK    4  A    between atoms: C_5  and  C_6
REMARK    5  A    between atoms: C_5  and  C_8
REMARK    6  A    between atoms: N_10  and  C_11
REMARK    7  A    between atoms: C_14  and  C_15
REMARK    8  A    between atoms: N_17  and  C_18
REMARK    9  A    between atoms: N_17  and  C_24
REMARK                            x       y       z     vdW  Elec       q    Type
REMARK                         _______ _______ _______ _____ _____    ______ ____
ROOT
ATOM      1  C   UNL     1      36.505   2.379  16.629  0.00  0.00    +0.000 A 
ATOM      2  C   UNL     1      36.073   1.913  15.413  0.00  0.00    +0.000 A 
ATOM      3  C   UNL     1      35.651   0.585  15.328  0.00  0.00    +0.000 A 
ATOM      4  C   UNL     1      35.640  -0.286  16.386  0.00  0.00    +0.000 A 
ATOM      5  C   UNL     1      36.083   0.209  17.611  0.00  0.00    +0.000 A 
ATOM      6  C   UNL     1      36.504   1.527  17.703  0.00  0.00    +0.000 A 
ENDROOT
BRANCH   1   9
ATOM      7  C   UNL     1      38.192   4.159  16.335  0.00  0.00    +0.000 C 
ATOM      8  O   UNL     1      38.936   3.346  15.771  0.00  0.00    +0.000 OA
ATOM      9  N   UNL     1      36.945   3.709  16.787  0.00  0.00    +0.000 NA
BRANCH   7  10
ATOM     10  C   UNL     1      38.595   5.656  16.558  0.00  0.00    +0.000 C 
BRANCH  10  11
ATOM     11  C   UNL     1      39.832   5.638  15.417  0.00  0.00    +0.000 C 
ATOM     12  C   UNL     1      40.945   6.333  16.172  0.00  0.00    +0.000 C 
ENDBRANCH  10  11
BRANCH  10  13
ATOM     13  C   UNL     1      39.622   5.458  17.776  0.00  0.00    +0.000 C 
BRANCH  13  14
ATOM     14  C   UNL     1      39.110   5.848  19.061  0.00  0.00    +0.000 C 
BRANCH  14  16
ATOM     15  C   UNL     1      41.354   6.328  20.042  0.00  0.00    +0.000 C 
ATOM     16  C   UNL     1      39.900   6.743  19.923  0.00  0.00    +0.000 C 
ENDBRANCH  14  16
ENDBRANCH  13  14
ENDBRANCH  10  13
ENDBRANCH   7  10
ENDBRANCH   1   9
BRANCH   4  17
ATOM     17  C   UNL     1      35.195  -1.669  16.284  0.00  0.00    +0.000 C 
ATOM     18  O   UNL     1      34.067  -1.958  16.771  0.00  0.00    +0.000 OA
ATOM     19  N   UNL     1      35.959  -2.669  15.678  0.00  0.00    +0.000 N 
BRANCH  19  20
ATOM     20  C   UNL     1      37.220  -2.335  15.136  0.00  0.00    +0.000 A 
ATOM     21  C   UNL     1      38.324  -2.143  15.916  0.00  0.00    +0.000 A 
ATOM     22  C   UNL     1      39.545  -1.812  15.331  0.00  0.00    +0.000 A 
ATOM     23  C   UNL     1      39.653  -1.675  13.964  0.00  0.00    +0.000 A 
ATOM     24  C   UNL     1      38.541  -1.869  13.184  0.00  0.00    +0.000 A 
ATOM     25  C   UNL     1      37.344  -2.195  13.775  0.00  0.00    +0.000 A 
ENDBRANCH  19  20
BRANCH  19  26
ATOM     26  C   UNL     1      35.456  -4.008  15.615  0.00  0.00    +0.000 A 
ATOM     27  C   UNL     1      36.031  -4.990  16.378  0.00  0.00    +0.000 A 
ATOM     28  C   UNL     1      35.552  -6.285  16.324  0.00  0.00    +0.000 A 
ATOM     29  C   UNL     1      34.496  -6.638  15.517  0.00  0.00    +0.000 A 
ATOM     30  C   UNL     1      33.926  -5.635  14.753  0.00  0.00    +0.000 A 
ATOM     31  C   UNL     1      34.403  -4.339  14.805  0.00  0.00    +0.000 A 
ENDBRANCH  19  26
ENDBRANCH   4  17
TORSDOF 9
ENDMDL
MODEL 2
REMARK VINA RESULT:      -7.0      1.690      3.114
REMARK  Name = 
REMARK  9 active torsions:
REMARK  status: ('A' for Active; 'I' for Inactive)
REMARK    1  A    between atoms: C_2  and  C_3
REMARK    2  A    between atoms: C_3  and  C_4
REMARK    3  A    between atoms: C_4  and  C_5
REMARK    4  A    between atoms: C_5  and  C_6
REMARK    5  A    between atoms: C_5  and  C_8
REMARK    6  A    between atoms: N_10  and  C_11
REMARK    7  A    between atoms: C_14  and  C_15
REMARK    8  A    between atoms: N_17  and  C_18
REMARK    9  A    between atoms: N_17  and  C_24
REMARK                            x       y       z     vdW  Elec       q    Type
REMARK                         _______ _______ _______ _____ _____    ______ ____
ROOT
ATOM      1  C   UNL     1      38.585   2.044  14.408  0.00  0.00    +0.000 A 
ATOM      2  C   UNL     1      39.386   1.006  14.807  0.00  0.00    +0.000 A 
ATOM      3  C   UNL     1      38.830  -0.274  14.859  0.00  0.00    +0.000 A 
ATOM      4  C   UNL     1      37.530  -0.559  14.535  0.00  0.00    +0.000 A 
ATOM      5  C   UNL     1      36.734   0.512  14.132  0.00  0.00    +0.000 A 
ATOM      6  C   UNL     1      37.279   1.785  14.078  0.00  0.00    +0.000 A 
ENDROOT
BRANCH   1   9
ATOM      7  C   UNL     1      39.034   4.258  15.408  0.00  0.00    +0.000 C 
ATOM      8  O   UNL     1      38.534   3.868  16.471  0.00  0.00    +0.000 OA
ATOM      9  N   UNL     1      39.080   3.362  14.332  0.00  0.00    +0.000 NA
BRANCH   7  10
ATOM     10  C   UNL     1      39.609   5.704  15.229  0.00  0.00    +0.000 C 
BRANCH  10  11
ATOM     11  C   UNL     1      40.781   5.251  14.111  0.00  0.00    +0.000 C 
ATOM     12  C   UNL     1      41.639   6.497  14.056  0.00  0.00    +0.000 C 
ENDBRANCH  10  11
BRANCH  10  13
ATOM     13  C   UNL     1      40.663   5.703  16.440  0.00  0.00    +0.000 C 
BRANCH  13  14
ATOM     14  C   UNL     1      40.369   6.636  17.492  0.00  0.00    +0.000 C 
BRANCH  14  16
ATOM     15  C   UNL     1      40.480   6.368  19.971  0.00  0.00    +0.000 C 
ATOM     16  C   UNL     1      41.227   6.685  18.689  0.00  0.00    +0.000 C 
ENDBRANCH  14  16
ENDBRANCH  13  14
ENDBRANCH  10  13
ENDBRANCH   7  10
ENDBRANCH   1   9
BRANCH   4  17
ATOM     17  C   UNL     1      36.963  -1.900  14.591  0.00  0.00    +0.000 C 
ATOM     18  O   UNL     1      37.130  -2.648  13.590  0.00  0.00    +0.000 OA
ATOM     19  N   UNL     1      36.251  -2.376  15.695  0.00  0.00    +0.000 N 
BRANCH  19  20
ATOM     20  C   UNL     1      36.069  -1.529  16.812  0.00  0.00    +0.000 A 
ATOM     21  C   UNL     1      35.033  -0.644  16.897  0.00  0.00    +0.000 A 
ATOM     22  C   UNL     1      34.901   0.172  18.020  0.00  0.00    +0.000 A 
ATOM     23  C   UNL     1      35.809   0.093  19.054  0.00  0.00    +0.000 A 
ATOM     24  C   UNL     1      36.848  -0.797  18.964  0.00  0.00    +0.000 A 
ATOM     25  C   UNL     1      36.966  -1.595  17.850  0.00  0.00    +0.000 A 
ENDBRANCH  19  20
BRANCH  19  26
ATOM     26  C   UNL     1      35.722  -3.707  15.679  0.00  0.00    +0.000 A 
ATOM     27  C   UNL     1      34.527  -3.958  15.058  0.00  0.00    +0.000 A 
ATOM     28  C   UNL     1      34.009  -5.239  15.037  0.00  0.00    +0.000 A 
ATOM     29  C   UNL     1      34.659  -6.297  15.628  0.00  0.00    +0.000 A 
ATOM     30  C   UNL     1      35.864  -6.026  16.251  0.00  0.00    +0.000 A 
ATOM     31  C   UNL     1      36.384  -4.746  16.273  0.00  0.00    +0.000 A 
ENDBRANCH  19  26
ENDBRANCH   4  17
TORSDOF 9
ENDMDL
MODEL 3
REMARK VINA RESULT:      -7.0      7.407     10.971
REMARK  Name = 
REMARK  9 active torsions:
REMARK  status: ('A' for Active; 'I' for Inactive)
REMARK    1  A    between atoms: C_2  and  C_3
REMARK    2  A    between atoms: C_3  and  C_4
REMARK    3  A    between atoms: C_4  and  C_5
REMARK    4  A    between atoms: C_5  and  C_6
REMARK    5  A    between atoms: C_5  and  C_8
REMARK    6  A    between atoms: N_10  and  C_11
REMARK    7  A    between atoms: C_14  and  C_15
REMARK    8  A    between atoms: N_17  and  C_18
REMARK    9  A    between atoms: N_17  and  C_24
REMARK                            x       y       z     vdW  Elec       q    Type
REMARK                         _______ _______ _______ _____ _____    ______ ____
ROOT
ATOM      1  C   UNL     1      37.455  10.239  18.597  0.00  0.00    +0.000 A 
ATOM      2  C   UNL     1      38.593  10.473  17.869  0.00  0.00    +0.000 A 
ATOM      3  C   UNL     1      39.790   9.910  18.317  0.00  0.00    +0.000 A 
ATOM      4  C   UNL     1      39.900   9.137  19.444  0.00  0.00    +0.000 A 
ATOM      5  C   UNL     1      38.730   8.914  20.168  0.00  0.00    +0.000 A 
ATOM      6  C   UNL     1      37.538   9.469  19.728  0.00  0.00    +0.000 A 
ENDROOT
BRANCH   1   9
ATOM      7  C   UNL     1      35.411  10.196  17.211  0.00  0.00    +0.000 C 
ATOM      8  O   UNL     1      35.818   9.164  16.661  0.00  0.00    +0.000 OA
ATOM      9  N   UNL     1      36.212  10.776  18.202  0.00  0.00    +0.000 NA
BRANCH   7  10
ATOM     10  C   UNL     1      34.045  10.865  16.838  0.00  0.00    +0.000 C 
BRANCH  10  11
ATOM     11  C   UNL     1      33.110   9.553  17.323  0.00  0.00    +0.000 C 
ATOM     12  C   UNL     1      32.208  10.194  18.356  0.00  0.00    +0.000 C 
ENDBRANCH  10  11
BRANCH  10  13
ATOM     13  C   UNL     1      33.971  10.435  15.293  0.00  0.00    +0.000 C 
BRANCH  13  14
ATOM     14  C   UNL     1      33.958  11.532  14.365  0.00  0.00    +0.000 C 
BRANCH  14  16
ATOM     15  C   UNL     1      32.378  13.454  14.558  0.00  0.00    +0.000 C 
ATOM     16  C   UNL     1      33.760  12.906  14.858  0.00  0.00    +0.000 C 
ENDBRANCH  14  16
ENDBRANCH  13  14
ENDBRANCH  10  13
ENDBRANCH   7  10
ENDBRANCH   1   9
BRANCH   4  17
ATOM     17  C   UNL     1      41.154   8.554  19.900  0.00  0.00    +0.000 C 
ATOM     18  O   UNL     1      41.867   9.239  20.684  0.00  0.00    +0.000 OA
ATOM     19  N   UNL     1      41.589   7.287  19.506  0.00  0.00    +0.000 N 
BRANCH  19  20
ATOM     20  C   UNL     1      40.783   6.528  18.627  0.00  0.00    +0.000 A 
ATOM     21  C   UNL     1      40.989   6.511  17.277  0.00  0.00    +0.000 A 
ATOM     22  C   UNL     1      40.163   5.747  16.453  0.00  0.00    +0.000 A 
ATOM     23  C   UNL     1      39.135   5.002  16.989  0.00  0.00    +0.000 A 
ATOM     24  C   UNL     1      38.932   5.022  18.346  0.00  0.00    +0.000 A 
ATOM     25  C   UNL     1      39.754   5.780  19.146  0.00  0.00    +0.000 A 
ENDBRANCH  19  20
BRANCH  19  26
ATOM     26  C   UNL     1      42.835   6.778  19.995  0.00  0.00    +0.000 A 
ATOM     27  C   UNL     1      42.870   6.073  21.170  0.00  0.00    +0.000 A 
ATOM     28  C   UNL     1      44.067   5.578  21.650  0.00  0.00    +0.000 A 
ATOM     29  C   UNL     1      45.254   5.767  20.981  0.00  0.00    +0.000 A 
ATOM     30  C   UNL     1      45.201   6.480  19.797  0.00  0.00    +0.000 A 
ATOM     31  C   UNL     1      44.005   6.977  19.315  0.00  0.00    +0.000 A 
ENDBRANCH  19  26
ENDBRANCH   4  17
TORSDOF 9
ENDMDL
MODEL 4
REMARK VINA RESULT:      -6.9      3.431     11.042
REMARK  Name = 
REMARK  9 active torsions:
REMARK  status: ('A' for Active; 'I' for Inactive)
REMARK    1  A    between atoms: C_2  and  C_3
REMARK    2  A    between atoms: C_3  and  C_4
REMARK    3  A    between atoms: C_4  and  C_5
REMARK    4  A    between atoms: C_5  and  C_6
REMARK    5  A    between atoms: C_5  and  C_8
REMARK    6  A    between atoms: N_10  and  C_11
REMARK    7  A    between atoms: C_14  and  C_15
REMARK    8  A    between atoms: N_17  and  C_18
REMARK    9  A    between atoms: N_17  and  C_24
REMARK                            x       y       z     vdW  Elec       q    Type
REMARK                         _______ _______ _______ _____ _____    ______ ____
ROOT
ATOM      1  C   UNL     1      38.266   4.618  16.774  0.00  0.00    +0.000 A 
ATOM      2  C   UNL     1      39.107   5.313  15.944  0.00  0.00    +0.000 A 
ATOM      3  C   UNL     1      40.155   6.033  16.520  0.00  0.00    +0.000 A 
ATOM      4  C   UNL     1      40.398   6.090  17.868  0.00  0.00    +0.000 A 
ATOM      5  C   UNL     1      39.531   5.375  18.692  0.00  0.00    +0.000 A 
ATOM      6  C   UNL     1      38.488   4.657  18.127  0.00  0.00    +0.000 A 
ENDROOT
BRANCH   1   9
ATOM      7  C   UNL     1      37.347   2.618  15.653  0.00  0.00    +0.000 C 
ATOM      8  O   UNL     1      38.492   2.153  15.566  0.00  0.00    +0.000 OA
ATOM      9  N   UNL     1      37.187   3.869  16.261  0.00  0.00    +0.000 NA
BRANCH   7  10
ATOM     10  C   UNL     1      36.088   1.860  15.111  0.00  0.00    +0.000 C 
BRANCH  10  11
ATOM     11  C   UNL     1      35.019   2.570  16.199  0.00  0.00    +0.000 C 
ATOM     12  C   UNL     1      34.104   3.332  15.264  0.00  0.00    +0.000 C 
ENDBRANCH  10  11
BRANCH  10  13
ATOM     13  C   UNL     1      36.206   0.522  15.992  0.00  0.00    +0.000 C 
BRANCH  13  14
ATOM     14  C   UNL     1      35.075   0.262  16.840  0.00  0.00    +0.000 C 
BRANCH  14  16
ATOM     15  C   UNL     1      35.659  -0.292  19.202  0.00  0.00    +0.000 C 
ATOM     16  C   UNL     1      35.154  -0.795  17.863  0.00  0.00    +0.000 C 
ENDBRANCH  14  16
ENDBRANCH  13  14
ENDBRANCH  10  13
ENDBRANCH   7  10
ENDBRANCH   1   9
BRANCH   4  17
ATOM     17  C   UNL     1      41.497   6.843  18.456  0.00  0.00    +0.000 C 
ATOM     18  O   UNL     1      42.663   6.381  18.318  0.00  0.00    +0.000 OA
ATOM     19  N   UNL     1      41.309   8.037  19.156  0.00  0.00    +0.000 N 
BRANCH  19  20
ATOM     20  C   UNL     1      39.998   8.546  19.305  0.00  0.00    +0.000 A 
ATOM     21  C   UNL     1      39.250   8.323  20.425  0.00  0.00    +0.000 A 
ATOM     22  C   UNL     1      37.961   8.845  20.520  0.00  0.00    +0.000 A 
ATOM     23  C   UNL     1      37.429   9.590  19.490  0.00  0.00    +0.000 A 
ATOM     24  C   UNL     1      38.184   9.811  18.367  0.00  0.00    +0.000 A 
ATOM     25  C   UNL     1      39.454   9.290  18.286  0.00  0.00    +0.000 A 
ENDBRANCH  19  20
BRANCH  19  26
ATOM     26  C   UNL     1      42.438   8.724  19.707  0.00  0.00    +0.000 A 
ATOM     27  C   UNL     1      42.919   8.367  20.939  0.00  0.00    +0.000 A 
ATOM     28  C   UNL     1      44.008   9.023  21.479  0.00  0.00    +0.000 A 
ATOM     29  C   UNL     1      44.645  10.045  20.815  0.00  0.00    +0.000 A 
ATOM     30  C   UNL     1      44.147  10.393  19.572  0.00  0.00    +0.000 A 
ATOM     31  C   UNL     1      43.058   9.738  19.030  0.00  0.00    +0.000 A 
ENDBRANCH  19  26
ENDBRANCH   4  17
TORSDOF 9
ENDMDL
MODEL 5
REMARK VINA RESULT:      -6.5      4.341      7.757
REMARK  Name = 
REMARK  9 active torsions:
REMARK  status: ('A' for Active; 'I' for Inactive)
REMARK    1  A    between atoms: C_2  and  C_3
REMARK    2  A    between atoms: C_3  and  C_4
REMARK    3  A    between atoms: C_4  and  C_5
REMARK    4  A    between atoms: C_5  and  C_6
REMARK    5  A    between atoms: C_5  and  C_8
REMARK    6  A    between atoms: N_10  and  C_11
REMARK    7  A    between atoms: C_14  and  C_15
REMARK    8  A    between atoms: N_17  and  C_18
REMARK    9  A    between atoms: N_17  and  C_24
REMARK                            x       y       z     vdW  Elec       q    Type
REMARK                         _______ _______ _______ _____ _____    ______ ____
ROOT
ATOM      1  C   UNL     1      39.311  -0.678  15.175  0.00  0.00    +0.000 A 
ATOM      2  C   UNL     1      39.631  -2.006  15.291  0.00  0.00    +0.000 A 
ATOM      3  C   UNL     1      40.887  -2.423  14.845  0.00  0.00    +0.000 A 
ATOM      4  C   UNL     1      41.824  -1.586  14.297  0.00  0.00    +0.000 A 
ATOM      5  C   UNL     1      41.476  -0.241  14.190  0.00  0.00    +0.000 A 
ATOM      6  C   UNL     1      40.231   0.181  14.631  0.00  0.00    +0.000 A 
ENDROOT
BRANCH   1   9
ATOM      7  C   UNL     1      36.957  -0.062  14.753  0.00  0.00    +0.000 C 
ATOM      8  O   UNL     1      37.091  -0.399  13.569  0.00  0.00    +0.000 OA
ATOM      9  N   UNL     1      38.061  -0.187  15.605  0.00  0.00    +0.000 NA
BRANCH   7  10
ATOM     10  C   UNL     1      35.607   0.495  15.321  0.00  0.00    +0.000 C 
BRANCH  10  11
ATOM     11  C   UNL     1      36.317   1.798  16.114  0.00  0.00    +0.000 C 
ATOM     12  C   UNL     1      36.137   2.902  15.094  0.00  0.00    +0.000 C 
ENDBRANCH  10  11
BRANCH  10  13
ATOM     13  C   UNL     1      35.530  -0.373  16.670  0.00  0.00    +0.000 C 
BRANCH  13  14
ATOM     14  C   UNL     1      35.336   0.397  17.868  0.00  0.00    +0.000 C 
BRANCH  14  16
ATOM     15  C   UNL     1      36.943  -1.125  19.020  0.00  0.00    +0.000 C 
ATOM     16  C   UNL     1      35.809  -0.128  19.160  0.00  0.00    +0.000 C 
ENDBRANCH  14  16
ENDBRANCH  13  14
ENDBRANCH  10  13
ENDBRANCH   7  10
ENDBRANCH   1   9
BRANCH   4  17
ATOM     17  C   UNL     1      43.132  -2.033  13.838  0.00  0.00    +0.000 C 
ATOM     18  O   UNL     1      44.051  -2.130  14.696  0.00  0.00    +0.000 OA
ATOM     19  N   UNL     1      43.399  -2.353  12.505  0.00  0.00    +0.000 N 
BRANCH  19  20
ATOM     20  C   UNL     1      42.361  -2.241  11.552  0.00  0.00    +0.000 A 
ATOM     21  C   UNL     1      41.470  -3.250  11.319  0.00  0.00    +0.000 A 
ATOM     22  C   UNL     1      40.467  -3.090  10.365  0.00  0.00    +0.000 A 
ATOM     23  C   UNL     1      40.361  -1.918   9.648  0.00  0.00    +0.000 A 
ATOM     24  C   UNL     1      41.259  -0.908   9.885  0.00  0.00    +0.000 A 
ATOM     25  C   UNL     1      42.243  -1.079  10.829  0.00  0.00    +0.000 A 
ENDBRANCH  19  20
BRANCH  19  26
ATOM     26  C   UNL     1      44.710  -2.786  12.126  0.00  0.00    +0.000 A 
ATOM     27  C   UNL     1      45.012  -4.123  12.123  0.00  0.00    +0.000 A 
ATOM     28  C   UNL     1      46.274  -4.551  11.758  0.00  0.00    +0.000 A 
ATOM     29  C   UNL     1      47.264  -3.670  11.390  0.00  0.00    +0.000 A 
ATOM     30  C   UNL     1      46.942  -2.324  11.398  0.00  0.00    +0.000 A 
ATOM     31  C   UNL     1      45.680  -1.894  11.763  0.00  0.00    +0.000 A 
ENDBRANCH  19  26
ENDBRANCH   4  17
TORSDOF 9
ENDMDL
MODEL 6
REMARK VINA RESULT:      -6.4      3.518     10.953
REMARK  Name = 
REMARK  9 active torsions:
REMARK  status: ('A' for Active; 'I' for Inactive)
REMARK    1  A    between atoms: C_2  and  C_3
REMARK    2  A    between atoms: C_3  and  C_4
REMARK    3  A    between atoms: C_4  and  C_5
REMARK    4  A    between atoms: C_5  and  C_6
REMARK    5  A    between atoms: C_5  and  C_8
REMARK    6  A    between atoms: N_10  and  C_11
REMARK    7  A    between atoms: C_14  and  C_15
REMARK    8  A    between atoms: N_17  and  C_18
REMARK    9  A    between atoms: N_17  and  C_24
REMARK                            x       y       z     vdW  Elec       q    Type
REMARK                         _______ _______ _______ _____ _____    ______ ____
ROOT
ATOM      1  C   UNL     1      38.065   4.381  16.358  0.00  0.00    +0.000 A 
ATOM      2  C   UNL     1      38.937   5.070  15.556  0.00  0.00    +0.000 A 
ATOM      3  C   UNL     1      39.945   5.819  16.167  0.00  0.00    +0.000 A 
ATOM      4  C   UNL     1      40.118   5.909  17.523  0.00  0.00    +0.000 A 
ATOM      5  C   UNL     1      39.220   5.201  18.319  0.00  0.00    +0.000 A 
ATOM      6  C   UNL     1      38.217   4.454  17.719  0.00  0.00    +0.000 A 
ENDROOT
BRANCH   1   9
ATOM      7  C   UNL     1      37.196   2.275  15.404  0.00  0.00    +0.000 C 
ATOM      8  O   UNL     1      38.316   1.763  15.539  0.00  0.00    +0.000 OA
ATOM      9  N   UNL     1      37.024   3.604  15.809  0.00  0.00    +0.000 NA
BRANCH   7  10
ATOM     10  C   UNL     1      35.980   1.491  14.803  0.00  0.00    +0.000 C 
BRANCH  10  11
ATOM     11  C   UNL     1      35.879   0.394  16.075  0.00  0.00    +0.000 C 
ATOM     12  C   UNL     1      34.842   1.056  16.958  0.00  0.00    +0.000 C 
ENDBRANCH  10  11
BRANCH  10  13
ATOM     13  C   UNL     1      36.786   0.453  13.881  0.00  0.00    +0.000 C 
BRANCH  13  14
ATOM     14  C   UNL     1      36.707   0.717  12.471  0.00  0.00    +0.000 C 
BRANCH  14  16
ATOM     15  C   UNL     1      37.568   2.929  11.703  0.00  0.00    +0.000 C 
ATOM     16  C   UNL     1      37.803   1.433  11.797  0.00  0.00    +0.000 C 
ENDBRANCH  14  16
ENDBRANCH  13  14
ENDBRANCH  10  13
ENDBRANCH   7  10
ENDBRANCH   1   9
BRANCH   4  17
ATOM     17  C   UNL     1      41.175   6.693  18.148  0.00  0.00    +0.000 C 
ATOM     18  O   UNL     1      42.355   6.255  18.065  0.00  0.00    +0.000 OA
ATOM     19  N   UNL     1      40.932   7.890  18.825  0.00  0.00    +0.000 N 
BRANCH  19  20
ATOM     20  C   UNL     1      39.606   8.372  18.913  0.00  0.00    +0.000 A 
ATOM     21  C   UNL     1      38.968   8.952  17.854  0.00  0.00    +0.000 A 
ATOM     22  C   UNL     1      37.660   9.414  17.994  0.00  0.00    +0.000 A 
ATOM     23  C   UNL     1      36.998   9.292  19.196  0.00  0.00    +0.000 A 
ATOM     24  C   UNL     1      37.644   8.709  20.257  0.00  0.00    +0.000 A 
ATOM     25  C   UNL     1      38.934   8.258  20.105  0.00  0.00    +0.000 A 
ENDBRANCH  19  20
BRANCH  19  26
ATOM     26  C   UNL     1      42.022   8.607  19.416  0.00  0.00    +0.000 A 
ATOM     27  C   UNL     1      42.529   8.205  20.623  0.00  0.00    +0.000 A 
ATOM     28  C   UNL     1      43.581   8.890  21.201  0.00  0.00    +0.000 A 
ATOM     29  C   UNL     1      44.155   9.985  20.598  0.00  0.00    +0.000 A 
ATOM     30  C   UNL     1      43.632  10.378  19.379  0.00  0.00    +0.000 A 
ATOM     31  C   UNL     1      42.579   9.694  18.800  0.00  0.00    +0.000 A 
ENDBRANCH  19  26
ENDBRANCH   4  17
TORSDOF 9
ENDMDL
MODEL 7
REMARK VINA RESULT:      -6.3      7.767     11.129
REMARK  Name = 
REMARK  9 active torsions:
REMARK  status: ('A' for Active; 'I' for Inactive)
REMARK    1  A    between atoms: C_2  and  C_3
REMARK    2  A    between atoms: C_3  and  C_4
REMARK    3  A    between atoms: C_4  and  C_5
REMARK    4  A    between atoms: C_5  and  C_6
REMARK    5  A    between atoms: C_5  and  C_8
REMARK    6  A    between atoms: N_10  and  C_11
REMARK    7  A    between atoms: C_14  and  C_15
REMARK    8  A    between atoms: N_17  and  C_18
REMARK    9  A    between atoms: N_17  and  C_24
REMARK                            x       y       z     vdW  Elec       q    Type
REMARK                         _______ _______ _______ _____ _____    ______ ____
ROOT
ATOM      1  C   UNL     1      38.288  10.835  18.583  0.00  0.00    +0.000 A 
ATOM      2  C   UNL     1      38.168  10.072  19.716  0.00  0.00    +0.000 A 
ATOM      3  C   UNL     1      39.298   9.390  20.174  0.00  0.00    +0.000 A 
ATOM      4  C   UNL     1      40.522   9.435  19.561  0.00  0.00    +0.000 A 
ATOM      5  C   UNL     1      40.620  10.216  18.412  0.00  0.00    +0.000 A 
ATOM      6  C   UNL     1      39.504  10.897  17.951  0.00  0.00    +0.000 A 
ENDROOT
BRANCH   1   9
ATOM      7  C   UNL     1      36.499  11.158  16.911  0.00  0.00    +0.000 C 
ATOM      8  O   UNL     1      36.876  10.134  16.325  0.00  0.00    +0.000 OA
ATOM      9  N   UNL     1      37.189  11.550  18.065  0.00  0.00    +0.000 NA
BRANCH   7  10
ATOM     10  C   UNL     1      35.290  12.017  16.409  0.00  0.00    +0.000 C 
BRANCH  10  11
ATOM     11  C   UNL     1      34.886  12.595  17.937  0.00  0.00    +0.000 C 
ATOM     12  C   UNL     1      34.548  14.038  17.630  0.00  0.00    +0.000 C 
ENDBRANCH  10  11
BRANCH  10  13
ATOM     13  C   UNL     1      34.147  10.890  16.458  0.00  0.00    +0.000 C 
BRANCH  13  14
ATOM     14  C   UNL     1      33.727  10.518  17.781  0.00  0.00    +0.000 C 
BRANCH  14  16
ATOM     15  C   UNL     1      31.975   9.547  19.269  0.00  0.00    +0.000 C 
ATOM     16  C   UNL     1      32.735   9.444  17.960  0.00  0.00    +0.000 C 
ENDBRANCH  14  16
ENDBRANCH  13  14
ENDBRANCH  10  13
ENDBRANCH   7  10
ENDBRANCH   1   9
BRANCH   4  17
ATOM     17  C   UNL     1      41.693   8.720  20.051  0.00  0.00    +0.000 C 
ATOM     18  O   UNL     1      42.480   9.341  20.817  0.00  0.00    +0.000 OA
ATOM     19  N   UNL     1      41.972   7.395  19.708  0.00  0.00    +0.000 N 
BRANCH  19  20
ATOM     20  C   UNL     1      41.084   6.708  18.849  0.00  0.00    +0.000 A 
ATOM     21  C   UNL     1      41.263   6.663  17.496  0.00  0.00    +0.000 A 
ATOM     22  C   UNL     1      40.356   5.974  16.693  0.00  0.00    +0.000 A 
ATOM     23  C   UNL     1      39.272   5.331  17.252  0.00  0.00    +0.000 A 
ATOM     24  C   UNL     1      39.096   5.379  18.612  0.00  0.00    +0.000 A 
ATOM     25  C   UNL     1      39.999   6.063  19.391  0.00  0.00    +0.000 A 
ENDBRANCH  19  20
BRANCH  19  26
ATOM     26  C   UNL     1      43.143   6.757  20.228  0.00  0.00    +0.000 A 
ATOM     27  C   UNL     1      44.330   6.852  19.551  0.00  0.00    +0.000 A 
ATOM     28  C   UNL     1      45.466   6.240  20.046  0.00  0.00    +0.000 A 
ATOM     29  C   UNL     1      45.454   5.521  21.218  0.00  0.00    +0.000 A 
ATOM     30  C   UNL     1      44.247   5.435  21.890  0.00  0.00    +0.000 A 
ATOM     31  C   UNL     1      43.110   6.046  21.397  0.00  0.00    +0.000 A 
ENDBRANCH  19  26
ENDBRANCH   4  17
TORSDOF 9
ENDMDL
MODEL 8
REMARK VINA RESULT:      -6.3      3.060     11.033
REMARK  Name = 
REMARK  9 active torsions:
REMARK  status: ('A' for Active; 'I' for Inactive)
REMARK    1  A    between atoms: C_2  and  C_3
REMARK    2  A    between atoms: C_3  and  C_4
REMARK    3  A    between atoms: C_4  and  C_5
REMARK    4  A    between atoms: C_5  and  C_6
REMARK    5  A    between atoms: C_5  and  C_8
REMARK    6  A    between atoms: N_10  and  C_11
REMARK    7  A    between atoms: C_14  and  C_15
REMARK    8  A    between atoms: N_17  and  C_18
REMARK    9  A    between atoms: N_17  and  C_24
REMARK                            x       y       z     vdW  Elec       q    Type
REMARK                         _______ _______ _______ _____ _____    ______ ____
ROOT
ATOM      1  C   UNL     1      38.250   4.489  16.624  0.00  0.00    +0.000 A 
ATOM      2  C   UNL     1      38.046   5.602  15.851  0.00  0.00    +0.000 A 
ATOM      3  C   UNL     1      38.119   6.855  16.464  0.00  0.00    +0.000 A 
ATOM      4  C   UNL     1      38.382   7.042  17.796  0.00  0.00    +0.000 A 
ATOM      5  C   UNL     1      38.586   5.896  18.563  0.00  0.00    +0.000 A 
ATOM      6  C   UNL     1      38.516   4.649  17.960  0.00  0.00    +0.000 A 
ENDROOT
BRANCH   1   9
ATOM      7  C   UNL     1      37.004   2.457  15.975  0.00  0.00    +0.000 C 
ATOM      8  O   UNL     1      35.961   2.974  16.399  0.00  0.00    +0.000 OA
ATOM      9  N   UNL     1      38.191   3.194  16.070  0.00  0.00    +0.000 NA
BRANCH   7  10
ATOM     10  C   UNL     1      37.037   1.024  15.345  0.00  0.00    +0.000 C 
BRANCH  10  11
ATOM     11  C   UNL     1      36.444   1.516  13.849  0.00  0.00    +0.000 C 
ATOM     12  C   UNL     1      37.124   0.533  12.920  0.00  0.00    +0.000 C 
ENDBRANCH  10  11
BRANCH  10  13
ATOM     13  C   UNL     1      35.593   0.509  15.825  0.00  0.00    +0.000 C 
BRANCH  13  14
ATOM     14  C   UNL     1      35.597  -0.783  16.455  0.00  0.00    +0.000 C 
BRANCH  14  16
ATOM     15  C   UNL     1      35.942  -2.775  14.991  0.00  0.00    +0.000 C 
ATOM     16  C   UNL     1      36.543  -1.816  16.001  0.00  0.00    +0.000 C 
ENDBRANCH  14  16
ENDBRANCH  13  14
ENDBRANCH  10  13
ENDBRANCH   7  10
ENDBRANCH   1   9
BRANCH   4  17
ATOM     17  C   UNL     1      38.458   8.354  18.424  0.00  0.00    +0.000 C 
ATOM     18  O   UNL     1      37.405   9.047  18.459  0.00  0.00    +0.000 OA
ATOM     19  N   UNL     1      39.635   8.863  18.978  0.00  0.00    +0.000 N 
BRANCH  19  20
ATOM     20  C   UNL     1      40.809   8.078  18.933  0.00  0.00    +0.000 A 
ATOM     21  C   UNL     1      41.549   7.932  17.794  0.00  0.00    +0.000 A 
ATOM     22  C   UNL     1      42.698   7.144  17.803  0.00  0.00    +0.000 A 
ATOM     23  C   UNL     1      43.101   6.505  18.956  0.00  0.00    +0.000 A 
ATOM     24  C   UNL     1      42.355   6.654  20.097  0.00  0.00    +0.000 A 
ATOM     25  C   UNL     1      41.224   7.434  20.074  0.00  0.00    +0.000 A 
ENDBRANCH  19  20
BRANCH  19  26
ATOM     26  C   UNL     1      39.634  10.162  19.580  0.00  0.00    +0.000 A 
ATOM     27  C   UNL     1      39.130  10.329  20.843  0.00  0.00    +0.000 A 
ATOM     28  C   UNL     1      39.126  11.579  21.432  0.00  0.00    +0.000 A 
ATOM     29  C   UNL     1      39.619  12.689  20.788  0.00  0.00    +0.000 A 
ATOM     30  C   UNL     1      40.125  12.504  19.513  0.00  0.00    +0.000 A 
ATOM     31  C   UNL     1      40.130  11.254  18.922  0.00  0.00    +0.000 A 
ENDBRANCH  19  26
ENDBRANCH   4  17
TORSDOF 9
ENDMDL
MODEL 9
REMARK VINA RESULT:      -6.1     22.572     24.982
REMARK  Name = 
REMARK  9 active torsions:
REMARK  status: ('A' for Active; 'I' for Inactive)
REMARK    1  A    between atoms: C_2  and  C_3
REMARK    2  A    between atoms: C_3  and  C_4
REMARK    3  A    between atoms: C_4  and  C_5
REMARK    4  A    between atoms: C_5  and  C_6
REMARK    5  A    between atoms: C_5  and  C_8
REMARK    6  A    between atoms: N_10  and  C_11
REMARK    7  A    between atoms: C_14  and  C_15
REMARK    8  A    between atoms: N_17  and  C_18
REMARK    9  A    between atoms: N_17  and  C_24
REMARK                            x       y       z     vdW  Elec       q    Type
REMARK                         _______ _______ _______ _____ _____    ______ ____
ROOT
ATOM      1  C   UNL     1      17.013  -1.070   4.920  0.00  0.00    +0.000 A 
ATOM      2  C   UNL     1      15.914  -0.961   5.733  0.00  0.00    +0.000 A 
ATOM      3  C   UNL     1      15.441  -2.115   6.361  0.00  0.00    +0.000 A 
ATOM      4  C   UNL     1      16.007  -3.355   6.215  0.00  0.00    +0.000 A 
ATOM      5  C   UNL     1      17.122  -3.441   5.384  0.00  0.00    +0.000 A 
ATOM      6  C   UNL     1      17.598  -2.299   4.758  0.00  0.00    +0.000 A 
ENDROOT
BRANCH   1   9
ATOM      7  C   UNL     1      17.257   0.357   2.919  0.00  0.00    +0.000 C 
ATOM      8  O   UNL     1      16.501  -0.402   2.298  0.00  0.00    +0.000 OA
ATOM      9  N   UNL     1      17.544   0.054   4.256  0.00  0.00    +0.000 NA
BRANCH   7  10
ATOM     10  C   UNL     1      17.896   1.629   2.264  0.00  0.00    +0.000 C 
BRANCH  10  11
ATOM     11  C   UNL     1      17.890   1.000   0.704  0.00  0.00    +0.000 C 
ATOM     12  C   UNL     1      17.238   2.127  -0.069  0.00  0.00    +0.000 C 
ENDBRANCH  10  11
BRANCH  10  13
ATOM     13  C   UNL     1      19.446   1.266   2.479  0.00  0.00    +0.000 C 
BRANCH  13  14
ATOM     14  C   UNL     1      19.972   0.308   1.545  0.00  0.00    +0.000 C 
BRANCH  14  16
ATOM     15  C   UNL     1      19.835  -2.174   1.773  0.00  0.00    +0.000 C 
ATOM     16  C   UNL     1      20.632  -0.911   2.042  0.00  0.00    +0.000 C 
ENDBRANCH  14  16
ENDBRANCH  13  14
ENDBRANCH  10  13
ENDBRANCH   7  10
ENDBRANCH   1   9
BRANCH   4  17
ATOM     17  C   UNL     1      15.505  -4.551   6.877  0.00  0.00    +0.000 C 
ATOM     18  O   UNL     1      16.083  -4.920   7.936  0.00  0.00    +0.000 OA
ATOM     19  N   UNL     1      14.426  -5.292   6.389  0.00  0.00    +0.000 N 
BRANCH  19  20
ATOM     20  C   UNL     1      13.785  -4.870   5.202  0.00  0.00    +0.000 A 
ATOM     21  C   UNL     1      14.234  -5.226   3.962  0.00  0.00    +0.000 A 
ATOM     22  C   UNL     1      13.567  -4.780   2.822  0.00  0.00    +0.000 A 
ATOM     23  C   UNL     1      12.451  -3.979   2.932  0.00  0.00    +0.000 A 
ATOM     24  C   UNL     1      12.004  -3.623   4.179  0.00  0.00    +0.000 A 
ATOM     25  C   UNL     1      12.672  -4.070   5.294  0.00  0.00    +0.000 A 
ENDBRANCH  19  20
BRANCH  19  26
ATOM     26  C   UNL     1      13.987  -6.458   7.094  0.00  0.00    +0.000 A 
ATOM     27  C   UNL     1      13.065  -6.340   8.100  0.00  0.00    +0.000 A 
ATOM     28  C   UNL     1      12.635  -7.460   8.786  0.00  0.00    +0.000 A 
ATOM     29  C   UNL     1      13.104  -8.719   8.492  0.00  0.00    +0.000 A 
ATOM     30  C   UNL     1      14.035  -8.821   7.472  0.00  0.00    +0.000 A 
ATOM     31  C   UNL     1      14.466  -7.702   6.786  0.00  0.00    +0.000 A 
ENDBRANCH  19  26
ENDBRANCH   4  17
TORSDOF 9
ENDMDL
MODEL 10
REMARK VINA RESULT:      -6.1     16.965     22.403
REMARK  Name = 
REMARK  9 active torsions:
REMARK  status: ('A' for Active; 'I' for Inactive)
REMARK    1  A    between atoms: C_2  and  C_3
REMARK    2  A    between atoms: C_3  and  C_4
REMARK    3  A    between atoms: C_4  and  C_5
REMARK    4  A    between atoms: C_5  and  C_6
REMARK    5  A    between atoms: C_5  and  C_8
REMARK    6  A    between atoms: N_10  and  C_11
REMARK    7  A    between atoms: C_14  and  C_15
REMARK    8  A    between atoms: N_17  and  C_18
REMARK    9  A    between atoms: N_17  and  C_24
REMARK                            x       y       z     vdW  Elec       q    Type
REMARK                         _______ _______ _______ _____ _____    ______ ____
ROOT
ATOM      1  C   UNL     1      33.037 -16.079  30.975  0.00  0.00    +0.000 A 
ATOM      2  C   UNL     1      32.731 -14.750  30.838  0.00  0.00    +0.000 A 
ATOM      3  C   UNL     1      33.148 -14.093  29.677  0.00  0.00    +0.000 A 
ATOM      4  C   UNL     1      33.846 -14.696  28.664  0.00  0.00    +0.000 A 
ATOM      5  C   UNL     1      34.145 -16.048  28.825  0.00  0.00    +0.000 A 
ATOM      6  C   UNL     1      33.734 -16.706  29.974  0.00  0.00    +0.000 A 
ENDROOT
BRANCH   1   9
ATOM      7  C   UNL     1      31.440 -17.510  32.202  0.00  0.00    +0.000 C 
ATOM      8  O   UNL     1      30.686 -17.493  31.220  0.00  0.00    +0.000 OA
ATOM      9  N   UNL     1      32.647 -16.804  32.120  0.00  0.00    +0.000 NA
BRANCH   7  10
ATOM     10  C   UNL     1      31.091 -18.286  33.517  0.00  0.00    +0.000 C 
BRANCH  10  11
ATOM     11  C   UNL     1      31.613 -17.059  34.544  0.00  0.00    +0.000 C 
ATOM     12  C   UNL     1      30.339 -16.740  35.298  0.00  0.00    +0.000 C 
ENDBRANCH  10  11
BRANCH  10  13
ATOM     13  C   UNL     1      32.460 -19.107  33.690  0.00  0.00    +0.000 C 
BRANCH  13  14
ATOM     14  C   UNL     1      32.366 -20.504  33.368  0.00  0.00    +0.000 C 
BRANCH  14  16
ATOM     15  C   UNL     1      30.377 -21.510  32.246  0.00  0.00    +0.000 C 
ATOM     16  C   UNL     1      31.089 -21.214  33.552  0.00  0.00    +0.000 C 
ENDBRANCH  14  16
ENDBRANCH  13  14
ENDBRANCH  10  13
ENDBRANCH   7  10
ENDBRANCH   1   9
BRANCH   4  17
ATOM     17  C   UNL     1      34.273 -14.001  27.457  0.00  0.00    +0.000 C 
ATOM     18  O   UNL     1      35.373 -13.385  27.496  0.00  0.00    +0.000 OA
ATOM     19  N   UNL     1      33.520 -13.992  26.281  0.00  0.00    +0.000 N 
BRANCH  19  20
ATOM     20  C   UNL     1      32.289 -14.685  26.248  0.00  0.00    +0.000 A 
ATOM     21  C   UNL     1      31.132 -14.144  26.730  0.00  0.00    +0.000 A 
ATOM     22  C   UNL     1      29.944 -14.872  26.677  0.00  0.00    +0.000 A 
ATOM     23  C   UNL     1      29.923 -16.140  26.139  0.00  0.00    +0.000 A 
ATOM     24  C   UNL     1      31.088 -16.680  25.657  0.00  0.00    +0.000 A 
ATOM     25  C   UNL     1      32.252 -15.951  25.716  0.00  0.00    +0.000 A 
ENDBRANCH  19  20
BRANCH  19  26
ATOM     26  C   UNL     1      34.004 -13.286  25.132  0.00  0.00    +0.000 A 
ATOM     27  C   UNL     1      33.463 -12.073  24.799  0.00  0.00    +0.000 A 
ATOM     28  C   UNL     1      33.923 -11.384  23.693  0.00  0.00    +0.000 A 
ATOM     29  C   UNL     1      34.928 -11.878  22.894  0.00  0.00    +0.000 A 
ATOM     30  C   UNL     1      35.465 -13.104  23.245  0.00  0.00    +0.000 A 
ATOM     31  C   UNL     1      35.005 -13.795  24.351  0.00  0.00    +0.000 A 
ENDBRANCH  19  26
ENDBRANCH   4  17
TORSDOF 9
ENDMDL
