MODEL 1
REMARK VINA RESULT:      -7.7      0.000      0.000
REMARK  Name = 
REMARK  7 active torsions:
REMARK  status: ('A' for Active; 'I' for Inactive)
REMARK    1  A    between atoms: C_2  and  O_3
REMARK    2  A    between atoms: O_3  and  C_4
REMARK    3  A    between atoms: C_7  and  N_8
REMARK    4  A    between atoms: C_11  and  N_12
REMARK    5  A    between atoms: N_12  and  C_13
REMARK    6  A    between atoms: C_21  and  S_22
REMARK    7  A    between atoms: S_22  and  C_23
REMARK                            x       y       z     vdW  Elec       q    Type
REMARK                         _______ _______ _______ _____ _____    ______ ____
ROOT
ATOM      1  N   UNL     1      38.020   3.653  15.971  0.00  0.00    +0.000 N 
ATOM      2  C   UNL     1      36.959   2.724  16.164  0.00  0.00    +0.000 C 
ATOM      3  O   UNL     1      36.116   2.797  17.098  0.00  0.00    +0.000 OA
ATOM      4  C   UNL     1      37.059   1.729  15.103  0.00  0.00    +0.000 C 
ATOM      5  C   UNL     1      38.080   1.987  14.305  0.00  0.00    +0.000 C 
ATOM      6  C   UNL     1      38.730   3.213  14.820  0.00  0.00    +0.000 C 
ATOM      7  O   UNL     1      39.741   3.770  14.321  0.00  0.00    +0.000 OA
ENDROOT
BRANCH   1  11
ATOM      8  C   UNL     1      39.001   6.977  18.351  0.00  0.00    +0.000 A 
ATOM      9  C   UNL     1      39.184   5.703  18.858  0.00  0.00    +0.000 A 
ATOM     10  C   UNL     1      38.847   4.650  18.039  0.00  0.00    +0.000 A 
ATOM     11  C   UNL     1      38.345   4.812  16.755  0.00  0.00    +0.000 A 
ATOM     12  C   UNL     1      38.186   6.096  16.310  0.00  0.00    +0.000 A 
ATOM     13  C   UNL     1      38.503   7.199  17.077  0.00  0.00    +0.000 A 
BRANCH   8  14
ATOM     14  O   UNL     1      39.336   8.042  19.164  0.00  0.00    +0.000 OA
BRANCH  14  16
ATOM     15  C   UNL     1      37.429   8.979  20.349  0.00  0.00    +0.000 C 
ATOM     16  C   UNL     1      38.770   8.267  20.419  0.00  0.00    +0.000 C 
ENDBRANCH  14  16
ENDBRANCH   8  14
ENDBRANCH   1  11
BRANCH   4  17
ATOM     17  N   UNL     1      36.153   0.618  14.955  0.00  0.00    +0.000 NA
BRANCH  17  18
ATOM     18  C   UNL     1      36.558  -0.682  15.395  0.00  0.00    +0.000 A 
ATOM     19  C   UNL     1      36.341  -1.785  14.597  0.00  0.00    +0.000 A 
ATOM     20  C   UNL     1      36.756  -3.013  15.073  0.00  0.00    +0.000 A 
ATOM     21  C   UNL     1      37.366  -3.113  16.304  0.00  0.00    +0.000 A 
ATOM     22  C   UNL     1      37.783  -4.492  16.740  0.00  0.00    +0.000 C 
ATOM     23  C   UNL     1      37.591  -2.023  17.113  0.00  0.00    +0.000 A 
ATOM     24  C   UNL     1      38.250  -2.160  18.435  0.00  0.00    +0.000 C 
ATOM     25  C   UNL     1      37.168  -0.783  16.624  0.00  0.00    +0.000 A 
ENDBRANCH  17  18
ENDBRANCH   4  17
BRANCH   5  26
ATOM     26  S   UNL     1      38.659   1.106  12.866  0.00  0.00    +0.000 S 
BRANCH  26  27
ATOM     27  C   UNL     1      39.406  -0.414  13.389  0.00  0.00    +0.000 A 
ATOM     28  C   UNL     1      40.109  -0.528  14.554  0.00  0.00    +0.000 A 
ATOM     29  C   UNL     1      40.676  -1.713  14.919  0.00  0.00    +0.000 A 
ATOM     30  C   UNL     1      40.560  -2.848  14.121  0.00  0.00    +0.000 A 
ATOM     31  C   UNL     1      39.850  -2.727  12.947  0.00  0.00    +0.000 A 
ATOM     32  C   UNL     1      39.286  -1.536  12.590  0.00  0.00    +0.000 A 
ENDBRANCH  26  27
ENDBRANCH   5  26
TORSDOF 7
ENDMDL
MODEL 2
REMARK VINA RESULT:      -7.4      1.270      3.479
REMARK  Name = 
REMARK  7 active torsions:
REMARK  status: ('A' for Active; 'I' for Inactive)
REMARK    1  A    between atoms: C_2  and  O_3
REMARK    2  A    between atoms: O_3  and  C_4
REMARK    3  A    between atoms: C_7  and  N_8
REMARK    4  A    between atoms: C_11  and  N_12
REMARK    5  A    between atoms: N_12  and  C_13
REMARK    6  A    between atoms: C_21  and  S_22
REMARK    7  A    between atoms: S_22  and  C_23
REMARK                            x       y       z     vdW  Elec       q    Type
REMARK                         _______ _______ _______ _____ _____    ______ ____
ROOT
ATOM      1  N   UNL     1      38.305   4.026  16.040  0.00  0.00    +0.000 N 
ATOM      2  C   UNL     1      39.063   3.719  14.875  0.00  0.00    +0.000 C 
ATOM      3  O   UNL     1      40.072   4.372  14.495  0.00  0.00    +0.000 OA
ATOM      4  C   UNL     1      38.450   2.551  14.256  0.00  0.00    +0.000 C 
ATOM      5  C   UNL     1      37.401   2.142  14.950  0.00  0.00    +0.000 C 
ATOM      6  C   UNL     1      37.267   3.057  16.105  0.00  0.00    +0.000 C 
ATOM      7  O   UNL     1      36.380   2.987  16.995  0.00  0.00    +0.000 OA
ENDROOT
BRANCH   1  11
ATOM      8  C   UNL     1      38.867   7.208  18.730  0.00  0.00    +0.000 A 
ATOM      9  C   UNL     1      38.299   7.458  17.493  0.00  0.00    +0.000 A 
ATOM     10  C   UNL     1      38.138   6.382  16.650  0.00  0.00    +0.000 A 
ATOM     11  C   UNL     1      38.512   5.088  16.985  0.00  0.00    +0.000 A 
ATOM     12  C   UNL     1      39.068   4.904  18.221  0.00  0.00    +0.000 A 
ATOM     13  C   UNL     1      39.260   5.936  19.118  0.00  0.00    +0.000 A 
BRANCH   8  14
ATOM     14  O   UNL     1      39.034   8.280  19.585  0.00  0.00    +0.000 OA
BRANCH  14  16
ATOM     15  C   UNL     1      38.397  10.114  21.051  0.00  0.00    +0.000 C 
ATOM     16  C   UNL     1      38.010   8.812  20.369  0.00  0.00    +0.000 C 
ENDBRANCH  14  16
ENDBRANCH   8  14
ENDBRANCH   1  11
BRANCH   4  17
ATOM     17  N   UNL     1      38.936   1.931  13.050  0.00  0.00    +0.000 NA
BRANCH  17  18
ATOM     18  C   UNL     1      39.683   0.713  13.138  0.00  0.00    +0.000 A 
ATOM     19  C   UNL     1      40.582   0.521  14.166  0.00  0.00    +0.000 A 
ATOM     20  C   UNL     1      41.271  -0.674  14.201  0.00  0.00    +0.000 A 
ATOM     21  C   UNL     1      41.055  -1.632  13.233  0.00  0.00    +0.000 A 
ATOM     22  C   UNL     1      41.852  -2.902  13.352  0.00  0.00    +0.000 C 
ATOM     23  C   UNL     1      40.163  -1.457  12.201  0.00  0.00    +0.000 A 
ATOM     24  C   UNL     1      39.950  -2.505  11.172  0.00  0.00    +0.000 C 
ATOM     25  C   UNL     1      39.468  -0.244  12.173  0.00  0.00    +0.000 A 
ENDBRANCH  17  18
ENDBRANCH   4  17
BRANCH   5  26
ATOM     26  S   UNL     1      36.293   0.776  14.651  0.00  0.00    +0.000 S 
BRANCH  26  27
ATOM     27  C   UNL     1      37.137  -0.736  15.026  0.00  0.00    +0.000 A 
ATOM     28  C   UNL     1      37.936  -0.884  16.124  0.00  0.00    +0.000 A 
ATOM     29  C   UNL     1      38.575  -2.061  16.374  0.00  0.00    +0.000 A 
ATOM     30  C   UNL     1      38.439  -3.154  15.524  0.00  0.00    +0.000 A 
ATOM     31  C   UNL     1      37.632  -3.001  14.417  0.00  0.00    +0.000 A 
ATOM     32  C   UNL     1      36.996  -1.817  14.175  0.00  0.00    +0.000 A 
ENDBRANCH  26  27
ENDBRANCH   5  26
TORSDOF 7
ENDMDL
MODEL 3
REMARK VINA RESULT:      -7.0      3.224      8.445
REMARK  Name = 
REMARK  7 active torsions:
REMARK  status: ('A' for Active; 'I' for Inactive)
REMARK    1  A    between atoms: C_2  and  O_3
REMARK    2  A    between atoms: O_3  and  C_4
REMARK    3  A    between atoms: C_7  and  N_8
REMARK    4  A    between atoms: C_11  and  N_12
REMARK    5  A    between atoms: N_12  and  C_13
REMARK    6  A    between atoms: C_21  and  S_22
REMARK    7  A    between atoms: S_22  and  C_23
REMARK                            x       y       z     vdW  Elec       q    Type
REMARK                         _______ _______ _______ _____ _____    ______ ____
ROOT
ATOM      1  N   UNL     1      36.767   2.012  15.484  0.00  0.00    +0.000 N 
ATOM      2  C   UNL     1      37.062   3.122  16.325  0.00  0.00    +0.000 C 
ATOM      3  O   UNL     1      37.124   3.060  17.583  0.00  0.00    +0.000 OA
ATOM      4  C   UNL     1      37.264   4.278  15.461  0.00  0.00    +0.000 C 
ATOM      5  C   UNL     1      37.115   3.951  14.188  0.00  0.00    +0.000 C 
ATOM      6  C   UNL     1      36.795   2.507  14.151  0.00  0.00    +0.000 C 
ATOM      7  O   UNL     1      36.584   1.830  13.111  0.00  0.00    +0.000 OA
ENDROOT
BRANCH   1  11
ATOM      8  C   UNL     1      36.062  -1.992  16.552  0.00  0.00    +0.000 A 
ATOM      9  C   UNL     1      37.271  -1.647  15.974  0.00  0.00    +0.000 A 
ATOM     10  C   UNL     1      37.451  -0.324  15.643  0.00  0.00    +0.000 A 
ATOM     11  C   UNL     1      36.491   0.655  15.862  0.00  0.00    +0.000 A 
ATOM     12  C   UNL     1      35.316   0.253  16.436  0.00  0.00    +0.000 A 
ATOM     13  C   UNL     1      35.067  -1.057  16.794  0.00  0.00    +0.000 A 
BRANCH   8  14
ATOM     14  O   UNL     1      35.870  -3.318  16.889  0.00  0.00    +0.000 OA
BRANCH  14  16
ATOM     15  C   UNL     1      34.646  -4.038  14.913  0.00  0.00    +0.000 C 
ATOM     16  C   UNL     1      35.714  -4.340  15.952  0.00  0.00    +0.000 C 
ENDBRANCH  14  16
ENDBRANCH   8  14
ENDBRANCH   1  11
BRANCH   4  17
ATOM     17  N   UNL     1      37.587   5.597  15.943  0.00  0.00    +0.000 NA
BRANCH  17  18
ATOM     18  C   UNL     1      38.883   5.844  16.496  0.00  0.00    +0.000 A 
ATOM     19  C   UNL     1      39.992   5.889  15.678  0.00  0.00    +0.000 A 
ATOM     20  C   UNL     1      41.215   6.134  16.267  0.00  0.00    +0.000 A 
ATOM     21  C   UNL     1      41.307   6.325  17.629  0.00  0.00    +0.000 A 
ATOM     22  C   UNL     1      42.682   6.585  18.182  0.00  0.00    +0.000 C 
ATOM     23  C   UNL     1      40.212   6.284  18.460  0.00  0.00    +0.000 A 
ATOM     24  C   UNL     1      40.339   6.494  19.924  0.00  0.00    +0.000 C 
ATOM     25  C   UNL     1      38.976   6.036  17.856  0.00  0.00    +0.000 A 
ENDBRANCH  17  18
ENDBRANCH   4  17
BRANCH   5  26
ATOM     26  S   UNL     1      37.247   4.961  12.723  0.00  0.00    +0.000 S 
BRANCH  26  27
ATOM     27  C   UNL     1      35.736   5.862  12.514  0.00  0.00    +0.000 A 
ATOM     28  C   UNL     1      35.364   6.415  11.321  0.00  0.00    +0.000 A 
ATOM     29  C   UNL     1      34.197   7.108  11.202  0.00  0.00    +0.000 A 
ATOM     30  C   UNL     1      33.342   7.280  12.286  0.00  0.00    +0.000 A 
ATOM     31  C   UNL     1      33.721   6.722  13.487  0.00  0.00    +0.000 A 
ATOM     32  C   UNL     1      34.892   6.029  13.597  0.00  0.00    +0.000 A 
ENDBRANCH  26  27
ENDBRANCH   5  26
TORSDOF 7
ENDMDL
MODEL 4
REMARK VINA RESULT:      -7.0      3.644      8.618
REMARK  Name = 
REMARK  7 active torsions:
REMARK  status: ('A' for Active; 'I' for Inactive)
REMARK    1  A    between atoms: C_2  and  O_3
REMARK    2  A    between atoms: O_3  and  C_4
REMARK    3  A    between atoms: C_7  and  N_8
REMARK    4  A    between atoms: C_11  and  N_12
REMARK    5  A    between atoms: N_12  and  C_13
REMARK    6  A    between atoms: C_21  and  S_22
REMARK    7  A    between atoms: S_22  and  C_23
REMARK                            x       y       z     vdW  Elec       q    Type
REMARK                         _______ _______ _______ _____ _____    ______ ____
ROOT
ATOM      1  N   UNL     1      36.485   2.210  15.228  0.00  0.00    +0.000 N 
ATOM      2  C   UNL     1      35.598   3.299  14.994  0.00  0.00    +0.000 C 
ATOM      3  O   UNL     1      34.344   3.189  14.934  0.00  0.00    +0.000 OA
ATOM      4  C   UNL     1      36.415   4.497  14.847  0.00  0.00    +0.000 C 
ATOM      5  C   UNL     1      37.700   4.214  14.973  0.00  0.00    +0.000 C 
ATOM      6  C   UNL     1      37.797   2.758  15.220  0.00  0.00    +0.000 C 
ATOM      7  O   UNL     1      38.865   2.115  15.392  0.00  0.00    +0.000 OA
ENDROOT
BRANCH   1  11
ATOM      8  C   UNL     1      35.602  -1.868  15.744  0.00  0.00    +0.000 A 
ATOM      9  C   UNL     1      36.381  -1.473  14.671  0.00  0.00    +0.000 A 
ATOM     10  C   UNL     1      36.640  -0.127  14.548  0.00  0.00    +0.000 A 
ATOM     11  C   UNL     1      36.163   0.826  15.436  0.00  0.00    +0.000 A 
ATOM     12  C   UNL     1      35.398   0.375  16.477  0.00  0.00    +0.000 A 
ATOM     13  C   UNL     1      35.098  -0.960  16.663  0.00  0.00    +0.000 A 
BRANCH   8  14
ATOM     14  O   UNL     1      35.335  -3.216  15.878  0.00  0.00    +0.000 OA
BRANCH  14  16
ATOM     15  C   UNL     1      33.447  -4.381  14.880  0.00  0.00    +0.000 C 
ATOM     16  C   UNL     1      34.925  -4.034  14.824  0.00  0.00    +0.000 C 
ENDBRANCH  14  16
ENDBRANCH   8  14
ENDBRANCH   1  11
BRANCH   4  17
ATOM     17  N   UNL     1      35.877   5.811  14.601  0.00  0.00    +0.000 NA
BRANCH  17  18
ATOM     18  C   UNL     1      35.428   6.151  13.285  0.00  0.00    +0.000 A 
ATOM     19  C   UNL     1      34.261   6.864  13.111  0.00  0.00    +0.000 A 
ATOM     20  C   UNL     1      33.879   7.165  11.819  0.00  0.00    +0.000 A 
ATOM     21  C   UNL     1      34.651   6.759  10.752  0.00  0.00    +0.000 A 
ATOM     22  C   UNL     1      34.155   7.131   9.381  0.00  0.00    +0.000 C 
ATOM     23  C   UNL     1      35.817   6.047  10.907  0.00  0.00    +0.000 A 
ATOM     24  C   UNL     1      36.630   5.623   9.740  0.00  0.00    +0.000 C 
ATOM     25  C   UNL     1      36.198   5.747  12.219  0.00  0.00    +0.000 A 
ENDBRANCH  17  18
ENDBRANCH   4  17
BRANCH   5  26
ATOM     26  S   UNL     1      39.122   5.287  14.883  0.00  0.00    +0.000 S 
BRANCH  26  27
ATOM     27  C   UNL     1      39.671   5.647  16.530  0.00  0.00    +0.000 A 
ATOM     28  C   UNL     1      40.904   6.171  16.800  0.00  0.00    +0.000 A 
ATOM     29  C   UNL     1      41.292   6.426  18.080  0.00  0.00    +0.000 A 
ATOM     30  C   UNL     1      40.452   6.165  19.159  0.00  0.00    +0.000 A 
ATOM     31  C   UNL     1      39.210   5.637  18.881  0.00  0.00    +0.000 A 
ATOM     32  C   UNL     1      38.829   5.384  17.595  0.00  0.00    +0.000 A 
ENDBRANCH  26  27
ENDBRANCH   5  26
TORSDOF 7
ENDMDL
MODEL 5
REMARK VINA RESULT:      -6.9      3.641      8.941
REMARK  Name = 
REMARK  7 active torsions:
REMARK  status: ('A' for Active; 'I' for Inactive)
REMARK    1  A    between atoms: C_2  and  O_3
REMARK    2  A    between atoms: O_3  and  C_4
REMARK    3  A    between atoms: C_7  and  N_8
REMARK    4  A    between atoms: C_11  and  N_12
REMARK    5  A    between atoms: N_12  and  C_13
REMARK    6  A    between atoms: C_21  and  S_22
REMARK    7  A    between atoms: S_22  and  C_23
REMARK                            x       y       z     vdW  Elec       q    Type
REMARK                         _______ _______ _______ _____ _____    ______ ____
ROOT
ATOM      1  N   UNL     1      36.205  -2.824  15.622  0.00  0.00    +0.000 N 
ATOM      2  C   UNL     1      35.818  -1.707  16.414  0.00  0.00    +0.000 C 
ATOM      3  O   UNL     1      34.776  -1.669  17.123  0.00  0.00    +0.000 OA
ATOM      4  C   UNL     1      36.833  -0.677  16.233  0.00  0.00    +0.000 C 
ATOM      5  C   UNL     1      37.782  -1.086  15.409  0.00  0.00    +0.000 C 
ATOM      6  C   UNL     1      37.425  -2.459  14.989  0.00  0.00    +0.000 C 
ATOM      7  O   UNL     1      38.090  -3.180  14.202  0.00  0.00    +0.000 OA
ENDROOT
BRANCH   1  11
ATOM      8  C   UNL     1      34.163  -6.461  15.089  0.00  0.00    +0.000 A 
ATOM      9  C   UNL     1      33.766  -5.348  14.368  0.00  0.00    +0.000 A 
ATOM     10  C   UNL     1      34.467  -4.183  14.580  0.00  0.00    +0.000 A 
ATOM     11  C   UNL     1      35.531  -4.083  15.466  0.00  0.00    +0.000 A 
ATOM     12  C   UNL     1      35.877  -5.217  16.149  0.00  0.00    +0.000 A 
ATOM     13  C   UNL     1      35.218  -6.419  15.987  0.00  0.00    +0.000 A 
BRANCH   8  14
ATOM     14  O   UNL     1      33.467  -7.636  14.885  0.00  0.00    +0.000 OA
BRANCH  14  16
ATOM     15  C   UNL     1      31.694  -7.829  16.539  0.00  0.00    +0.000 C 
ATOM     16  C   UNL     1      32.949  -8.419  15.917  0.00  0.00    +0.000 C 
ENDBRANCH  14  16
ENDBRANCH   8  14
ENDBRANCH   1  11
BRANCH   4  17
ATOM     17  N   UNL     1      36.797   0.611  16.880  0.00  0.00    +0.000 NA
BRANCH  17  18
ATOM     18  C   UNL     1      36.396   1.761  16.129  0.00  0.00    +0.000 A 
ATOM     19  C   UNL     1      35.236   1.738  15.385  0.00  0.00    +0.000 A 
ATOM     20  C   UNL     1      34.899   2.878  14.685  0.00  0.00    +0.000 A 
ATOM     21  C   UNL     1      35.707   3.993  14.739  0.00  0.00    +0.000 A 
ATOM     22  C   UNL     1      35.260   5.189  13.942  0.00  0.00    +0.000 C 
ATOM     23  C   UNL     1      36.868   4.035  15.475  0.00  0.00    +0.000 A 
ATOM     24  C   UNL     1      37.720   5.249  15.516  0.00  0.00    +0.000 C 
ATOM     25  C   UNL     1      37.202   2.876  16.183  0.00  0.00    +0.000 A 
ENDBRANCH  17  18
ENDBRANCH   4  17
BRANCH   5  26
ATOM     26  S   UNL     1      39.247  -0.241  14.840  0.00  0.00    +0.000 S 
BRANCH  26  27
ATOM     27  C   UNL     1      38.770   1.007  13.676  0.00  0.00    +0.000 A 
ATOM     28  C   UNL     1      37.687   0.875  12.853  0.00  0.00    +0.000 A 
ATOM     29  C   UNL     1      37.357   1.854  11.965  0.00  0.00    +0.000 A 
ATOM     30  C   UNL     1      38.107   3.022  11.861  0.00  0.00    +0.000 A 
ATOM     31  C   UNL     1      39.198   3.150  12.692  0.00  0.00    +0.000 A 
ATOM     32  C   UNL     1      39.522   2.164  13.579  0.00  0.00    +0.000 A 
ENDBRANCH  26  27
ENDBRANCH   5  26
TORSDOF 7
ENDMDL
MODEL 6
REMARK VINA RESULT:      -6.7      3.080      8.951
REMARK  Name = 
REMARK  7 active torsions:
REMARK  status: ('A' for Active; 'I' for Inactive)
REMARK    1  A    between atoms: C_2  and  O_3
REMARK    2  A    between atoms: O_3  and  C_4
REMARK    3  A    between atoms: C_7  and  N_8
REMARK    4  A    between atoms: C_11  and  N_12
REMARK    5  A    between atoms: N_12  and  C_13
REMARK    6  A    between atoms: C_21  and  S_22
REMARK    7  A    between atoms: S_22  and  C_23
REMARK                            x       y       z     vdW  Elec       q    Type
REMARK                         _______ _______ _______ _____ _____    ______ ____
ROOT
ATOM      1  N   UNL     1      36.740   3.738  15.362  0.00  0.00    +0.000 N 
ATOM      2  C   UNL     1      36.048   4.797  14.708  0.00  0.00    +0.000 C 
ATOM      3  O   UNL     1      34.878   4.699  14.250  0.00  0.00    +0.000 OA
ATOM      4  C   UNL     1      36.939   5.949  14.689  0.00  0.00    +0.000 C 
ATOM      5  C   UNL     1      38.092   5.668  15.271  0.00  0.00    +0.000 C 
ATOM      6  C   UNL     1      38.015   4.260  15.720  0.00  0.00    +0.000 C 
ATOM      7  O   UNL     1      38.925   3.631  16.318  0.00  0.00    +0.000 OA
ENDROOT
BRANCH   1  11
ATOM      8  C   UNL     1      35.468  -0.209  16.049  0.00  0.00    +0.000 A 
ATOM      9  C   UNL     1      36.359   0.047  15.022  0.00  0.00    +0.000 A 
ATOM     10  C   UNL     1      36.743   1.355  14.839  0.00  0.00    +0.000 A 
ATOM     11  C   UNL     1      36.284   2.402  15.626  0.00  0.00    +0.000 A 
ATOM     12  C   UNL     1      35.405   2.087  16.626  0.00  0.00    +0.000 A 
ATOM     13  C   UNL     1      34.976   0.797  16.867  0.00  0.00    +0.000 A 
BRANCH   8  14
ATOM     14  O   UNL     1      35.075  -1.519  16.243  0.00  0.00    +0.000 OA
BRANCH  14  16
ATOM     15  C   UNL     1      36.415  -3.549  16.293  0.00  0.00    +0.000 C 
ATOM     16  C   UNL     1      35.553  -2.591  15.488  0.00  0.00    +0.000 C 
ENDBRANCH  14  16
ENDBRANCH   8  14
ENDBRANCH   1  11
BRANCH   4  17
ATOM     17  N   UNL     1      36.593   7.224  14.112  0.00  0.00    +0.000 NA
BRANCH  17  18
ATOM     18  C   UNL     1      35.773   8.131  14.856  0.00  0.00    +0.000 A 
ATOM     19  C   UNL     1      34.422   8.220  14.597  0.00  0.00    +0.000 A 
ATOM     20  C   UNL     1      33.682   9.111  15.347  0.00  0.00    +0.000 A 
ATOM     21  C   UNL     1      34.289   9.877  16.319  0.00  0.00    +0.000 A 
ATOM     22  C   UNL     1      33.403  10.820  17.086  0.00  0.00    +0.000 C 
ATOM     23  C   UNL     1      35.635   9.801  16.591  0.00  0.00    +0.000 A 
ATOM     24  C   UNL     1      36.264  10.638  17.643  0.00  0.00    +0.000 C 
ATOM     25  C   UNL     1      36.378   8.896  15.826  0.00  0.00    +0.000 A 
ENDBRANCH  17  18
ENDBRANCH   4  17
BRANCH   5  26
ATOM     26  S   UNL     1      39.529   6.695  15.523  0.00  0.00    +0.000 S 
BRANCH  26  27
ATOM     27  C   UNL     1      40.004   6.604  17.227  0.00  0.00    +0.000 A 
ATOM     28  C   UNL     1      41.303   6.455  17.625  0.00  0.00    +0.000 A 
ATOM     29  C   UNL     1      41.628   6.380  18.946  0.00  0.00    +0.000 A 
ATOM     30  C   UNL     1      40.654   6.453  19.938  0.00  0.00    +0.000 A 
ATOM     31  C   UNL     1      39.346   6.603  19.532  0.00  0.00    +0.000 A 
ATOM     32  C   UNL     1      39.030   6.676  18.205  0.00  0.00    +0.000 A 
ENDBRANCH  26  27
ENDBRANCH   5  26
TORSDOF 7
ENDMDL
MODEL 7
REMARK VINA RESULT:      -6.7      3.261      8.543
REMARK  Name = 
REMARK  7 active torsions:
REMARK  status: ('A' for Active; 'I' for Inactive)
REMARK    1  A    between atoms: C_2  and  O_3
REMARK    2  A    between atoms: O_3  and  C_4
REMARK    3  A    between atoms: C_7  and  N_8
REMARK    4  A    between atoms: C_11  and  N_12
REMARK    5  A    between atoms: N_12  and  C_13
REMARK    6  A    between atoms: C_21  and  S_22
REMARK    7  A    between atoms: S_22  and  C_23
REMARK                            x       y       z     vdW  Elec       q    Type
REMARK                         _______ _______ _______ _____ _____    ______ ____
ROOT
ATOM      1  N   UNL     1      37.457   3.018  15.321  0.00  0.00    +0.000 N 
ATOM      2  C   UNL     1      37.700   3.866  16.439  0.00  0.00    +0.000 C 
ATOM      3  O   UNL     1      37.796   3.458  17.627  0.00  0.00    +0.000 OA
ATOM      4  C   UNL     1      37.805   5.228  15.933  0.00  0.00    +0.000 C 
ATOM      5  C   UNL     1      37.647   5.261  14.621  0.00  0.00    +0.000 C 
ATOM      6  C   UNL     1      37.420   3.867  14.180  0.00  0.00    +0.000 C 
ATOM      7  O   UNL     1      37.228   3.496  12.993  0.00  0.00    +0.000 OA
ENDROOT
BRANCH   1  11
ATOM      8  C   UNL     1      36.831  -1.139  15.311  0.00  0.00    +0.000 A 
ATOM      9  C   UNL     1      35.816  -0.301  15.738  0.00  0.00    +0.000 A 
ATOM     10  C   UNL     1      36.072   1.050  15.722  0.00  0.00    +0.000 A 
ATOM     11  C   UNL     1      37.279   1.593  15.303  0.00  0.00    +0.000 A 
ATOM     12  C   UNL     1      38.244   0.715  14.892  0.00  0.00    +0.000 A 
ATOM     13  C   UNL     1      38.057  -0.653  14.882  0.00  0.00    +0.000 A 
BRANCH   8  14
ATOM     14  O   UNL     1      36.585  -2.498  15.322  0.00  0.00    +0.000 OA
BRANCH  14  16
ATOM     15  C   UNL     1      36.302  -4.737  16.229  0.00  0.00    +0.000 C 
ATOM     16  C   UNL     1      36.410  -3.244  16.488  0.00  0.00    +0.000 C 
ENDBRANCH  14  16
ENDBRANCH   8  14
ENDBRANCH   1  11
BRANCH   4  17
ATOM     17  N   UNL     1      38.054   6.378  16.765  0.00  0.00    +0.000 NA
BRANCH  17  18
ATOM     18  C   UNL     1      39.204   6.393  17.616  0.00  0.00    +0.000 A 
ATOM     19  C   UNL     1      39.059   6.320  18.984  0.00  0.00    +0.000 A 
ATOM     20  C   UNL     1      40.205   6.336  19.753  0.00  0.00    +0.000 A 
ATOM     21  C   UNL     1      41.444   6.422  19.156  0.00  0.00    +0.000 A 
ATOM     22  C   UNL     1      42.636   6.434  20.075  0.00  0.00    +0.000 C 
ATOM     23  C   UNL     1      41.608   6.496  17.793  0.00  0.00    +0.000 A 
ATOM     24  C   UNL     1      42.954   6.587  17.176  0.00  0.00    +0.000 C 
ATOM     25  C   UNL     1      40.442   6.479  17.020  0.00  0.00    +0.000 A 
ENDBRANCH  17  18
ENDBRANCH   4  17
BRANCH   5  26
ATOM     26  S   UNL     1      37.677   6.648  13.498  0.00  0.00    +0.000 S 
BRANCH  26  27
ATOM     27  C   UNL     1      36.071   6.829  12.772  0.00  0.00    +0.000 A 
ATOM     28  C   UNL     1      35.878   6.946  11.424  0.00  0.00    +0.000 A 
ATOM     29  C   UNL     1      34.627   7.092  10.904  0.00  0.00    +0.000 A 
ATOM     30  C   UNL     1      33.502   7.128  11.722  0.00  0.00    +0.000 A 
ATOM     31  C   UNL     1      33.701   7.011  13.080  0.00  0.00    +0.000 A 
ATOM     32  C   UNL     1      34.959   6.865  13.592  0.00  0.00    +0.000 A 
ENDBRANCH  26  27
ENDBRANCH   5  26
TORSDOF 7
ENDMDL
MODEL 8
REMARK VINA RESULT:      -6.6      3.061      5.130
REMARK  Name = 
REMARK  7 active torsions:
REMARK  status: ('A' for Active; 'I' for Inactive)
REMARK    1  A    between atoms: C_2  and  O_3
REMARK    2  A    between atoms: O_3  and  C_4
REMARK    3  A    between atoms: C_7  and  N_8
REMARK    4  A    between atoms: C_11  and  N_12
REMARK    5  A    between atoms: N_12  and  C_13
REMARK    6  A    between atoms: C_21  and  S_22
REMARK    7  A    between atoms: S_22  and  C_23
REMARK                            x       y       z     vdW  Elec       q    Type
REMARK                         _______ _______ _______ _____ _____    ______ ____
ROOT
ATOM      1  N   UNL     1      38.753   5.114  16.702  0.00  0.00    +0.000 N 
ATOM      2  C   UNL     1      37.863   4.022  16.902  0.00  0.00    +0.000 C 
ATOM      3  O   UNL     1      37.712   3.426  18.002  0.00  0.00    +0.000 OA
ATOM      4  C   UNL     1      37.205   3.761  15.628  0.00  0.00    +0.000 C 
ATOM      5  C   UNL     1      37.626   4.599  14.696  0.00  0.00    +0.000 C 
ATOM      6  C   UNL     1      38.621   5.489  15.336  0.00  0.00    +0.000 C 
ATOM      7  O   UNL     1      39.244   6.420  14.764  0.00  0.00    +0.000 OA
ENDROOT
BRANCH   1  11
ATOM      8  C   UNL     1      41.220   6.953  19.566  0.00  0.00    +0.000 A 
ATOM      9  C   UNL     1      39.908   6.660  19.890  0.00  0.00    +0.000 A 
ATOM     10  C   UNL     1      39.143   6.059  18.917  0.00  0.00    +0.000 A 
ATOM     11  C   UNL     1      39.625   5.742  17.655  0.00  0.00    +0.000 A 
ATOM     12  C   UNL     1      40.931   6.056  17.394  0.00  0.00    +0.000 A 
ATOM     13  C   UNL     1      41.756   6.659  18.322  0.00  0.00    +0.000 A 
BRANCH   8  14
ATOM     14  O   UNL     1      41.998   7.556  20.535  0.00  0.00    +0.000 OA
BRANCH  14  16
ATOM     15  C   UNL     1      43.373   5.778  21.465  0.00  0.00    +0.000 C 
ATOM     16  C   UNL     1      43.301   7.161  20.840  0.00  0.00    +0.000 C 
ENDBRANCH  14  16
ENDBRANCH   8  14
ENDBRANCH   1  11
BRANCH   4  17
ATOM     17  N   UNL     1      36.224   2.725  15.427  0.00  0.00    +0.000 NA
BRANCH  17  18
ATOM     18  C   UNL     1      36.642   1.357  15.405  0.00  0.00    +0.000 A 
ATOM     19  C   UNL     1      37.873   1.014  14.888  0.00  0.00    +0.000 A 
ATOM     20  C   UNL     1      38.223  -0.321  14.896  0.00  0.00    +0.000 A 
ATOM     21  C   UNL     1      37.358  -1.265  15.407  0.00  0.00    +0.000 A 
ATOM     22  C   UNL     1      37.825  -2.695  15.372  0.00  0.00    +0.000 C 
ATOM     23  C   UNL     1      36.127  -0.941  15.926  0.00  0.00    +0.000 A 
ATOM     24  C   UNL     1      35.216  -1.978  16.471  0.00  0.00    +0.000 C 
ATOM     25  C   UNL     1      35.780   0.413  15.916  0.00  0.00    +0.000 A 
ENDBRANCH  17  18
ENDBRANCH   4  17
BRANCH   5  26
ATOM     26  S   UNL     1      37.161   4.729  12.979  0.00  0.00    +0.000 S 
BRANCH  26  27
ATOM     27  C   UNL     1      35.696   5.717  12.856  0.00  0.00    +0.000 A 
ATOM     28  C   UNL     1      35.296   6.305  11.690  0.00  0.00    +0.000 A 
ATOM     29  C   UNL     1      34.166   7.065  11.637  0.00  0.00    +0.000 A 
ATOM     30  C   UNL     1      33.379   7.271  12.766  0.00  0.00    +0.000 A 
ATOM     31  C   UNL     1      33.786   6.677  13.940  0.00  0.00    +0.000 A 
ATOM     32  C   UNL     1      34.919   5.917  13.983  0.00  0.00    +0.000 A 
ENDBRANCH  26  27
ENDBRANCH   5  26
TORSDOF 7
ENDMDL
MODEL 9
REMARK VINA RESULT:      -6.6      4.120      8.111
REMARK  Name = 
REMARK  7 active torsions:
REMARK  status: ('A' for Active; 'I' for Inactive)
REMARK    1  A    between atoms: C_2  and  O_3
REMARK    2  A    between atoms: O_3  and  C_4
REMARK    3  A    between atoms: C_7  and  N_8
REMARK    4  A    between atoms: C_11  and  N_12
REMARK    5  A    between atoms: N_12  and  C_13
REMARK    6  A    between atoms: C_21  and  S_22
REMARK    7  A    between atoms: S_22  and  C_23
REMARK                            x       y       z     vdW  Elec       q    Type
REMARK                         _______ _______ _______ _____ _____    ______ ____
ROOT
ATOM      1  N   UNL     1      40.645  -2.021  14.065  0.00  0.00    +0.000 N 
ATOM      2  C   UNL     1      39.721  -1.249  13.307  0.00  0.00    +0.000 C 
ATOM      3  O   UNL     1      40.053  -0.442  12.397  0.00  0.00    +0.000 OA
ATOM      4  C   UNL     1      38.385  -1.577  13.789  0.00  0.00    +0.000 C 
ATOM      5  C   UNL     1      38.438  -2.472  14.760  0.00  0.00    +0.000 C 
ATOM      6  C   UNL     1      39.867  -2.790  14.975  0.00  0.00    +0.000 C 
ATOM      7  O   UNL     1      40.317  -3.604  15.822  0.00  0.00    +0.000 OA
ENDROOT
BRANCH   1  11
ATOM      8  C   UNL     1      44.829  -2.185  13.693  0.00  0.00    +0.000 A 
ATOM      9  C   UNL     1      44.045  -2.990  12.886  0.00  0.00    +0.000 A 
ATOM     10  C   UNL     1      42.681  -2.899  13.048  0.00  0.00    +0.000 A 
ATOM     11  C   UNL     1      42.077  -2.050  13.966  0.00  0.00    +0.000 A 
ATOM     12  C   UNL     1      42.905  -1.279  14.735  0.00  0.00    +0.000 A 
ATOM     13  C   UNL     1      44.281  -1.319  14.626  0.00  0.00    +0.000 A 
BRANCH   8  14
ATOM     14  O   UNL     1      46.199  -2.268  13.539  0.00  0.00    +0.000 OA
BRANCH  14  16
ATOM     15  C   UNL     1      46.824  -4.178  14.910  0.00  0.00    +0.000 C 
ATOM     16  C   UNL     1      46.911  -3.468  13.570  0.00  0.00    +0.000 C 
ENDBRANCH  14  16
ENDBRANCH   8  14
ENDBRANCH   1  11
BRANCH   4  17
ATOM     17  N   UNL     1      37.175  -0.998  13.262  0.00  0.00    +0.000 NA
BRANCH  17  18
ATOM     18  C   UNL     1      36.848   0.357  13.583  0.00  0.00    +0.000 A 
ATOM     19  C   UNL     1      37.227   1.382  12.743  0.00  0.00    +0.000 A 
ATOM     20  C   UNL     1      36.881   2.669  13.103  0.00  0.00    +0.000 A 
ATOM     21  C   UNL     1      36.180   2.902  14.266  0.00  0.00    +0.000 A 
ATOM     22  C   UNL     1      35.848   4.336  14.577  0.00  0.00    +0.000 C 
ATOM     23  C   UNL     1      35.794   1.892  15.116  0.00  0.00    +0.000 A 
ATOM     24  C   UNL     1      35.040   2.172  16.363  0.00  0.00    +0.000 C 
ATOM     25  C   UNL     1      36.148   0.591  14.744  0.00  0.00    +0.000 A 
ENDBRANCH  17  18
ENDBRANCH   4  17
BRANCH   5  26
ATOM     26  S   UNL     1      37.119  -3.221  15.700  0.00  0.00    +0.000 S 
BRANCH  26  27
ATOM     27  C   UNL     1      36.720  -2.163  17.065  0.00  0.00    +0.000 A 
ATOM     28  C   UNL     1      37.651  -1.749  17.976  0.00  0.00    +0.000 A 
ATOM     29  C   UNL     1      37.304  -0.941  19.017  0.00  0.00    +0.000 A 
ATOM     30  C   UNL     1      35.993  -0.509  19.193  0.00  0.00    +0.000 A 
ATOM     31  C   UNL     1      35.058  -0.930  18.273  0.00  0.00    +0.000 A 
ATOM     32  C   UNL     1      35.415  -1.739  17.233  0.00  0.00    +0.000 A 
ENDBRANCH  26  27
ENDBRANCH   5  26
TORSDOF 7
ENDMDL
MODEL 10
REMARK VINA RESULT:      -6.5      3.086      9.070
REMARK  Name = 
REMARK  7 active torsions:
REMARK  status: ('A' for Active; 'I' for Inactive)
REMARK    1  A    between atoms: C_2  and  O_3
REMARK    2  A    between atoms: O_3  and  C_4
REMARK    3  A    between atoms: C_7  and  N_8
REMARK    4  A    between atoms: C_11  and  N_12
REMARK    5  A    between atoms: N_12  and  C_13
REMARK    6  A    between atoms: C_21  and  S_22
REMARK    7  A    between atoms: S_22  and  C_23
REMARK                            x       y       z     vdW  Elec       q    Type
REMARK                         _______ _______ _______ _____ _____    ______ ____
ROOT
ATOM      1  N   UNL     1      37.426   3.623  15.805  0.00  0.00    +0.000 N 
ATOM      2  C   UNL     1      37.827   4.280  17.003  0.00  0.00    +0.000 C 
ATOM      3  O   UNL     1      38.039   3.690  18.096  0.00  0.00    +0.000 OA
ATOM      4  C   UNL     1      37.931   5.702  16.701  0.00  0.00    +0.000 C 
ATOM      5  C   UNL     1      37.628   5.943  15.437  0.00  0.00    +0.000 C 
ATOM      6  C   UNL     1      37.297   4.640  14.819  0.00  0.00    +0.000 C 
ATOM      7  O   UNL     1      36.959   4.464  13.620  0.00  0.00    +0.000 OA
ENDROOT
BRANCH   1  11
ATOM      8  C   UNL     1      36.835  -0.484  15.131  0.00  0.00    +0.000 A 
ATOM      9  C   UNL     1      38.024   0.103  14.739  0.00  0.00    +0.000 A 
ATOM     10  C   UNL     1      38.168   1.450  14.982  0.00  0.00    +0.000 A 
ATOM     11  C   UNL     1      37.189   2.223  15.591  0.00  0.00    +0.000 A 
ATOM     12  C   UNL     1      36.034   1.587  15.956  0.00  0.00    +0.000 A 
ATOM     13  C   UNL     1      35.822   0.239  15.744  0.00  0.00    +0.000 A 
BRANCH   8  14
ATOM     14  O   UNL     1      36.679  -1.836  14.892  0.00  0.00    +0.000 OA
BRANCH  14  16
ATOM     15  C   UNL     1      37.822  -3.393  13.414  0.00  0.00    +0.000 C 
ATOM     16  C   UNL     1      37.745  -2.729  14.779  0.00  0.00    +0.000 C 
ENDBRANCH  14  16
ENDBRANCH   8  14
ENDBRANCH   1  11
BRANCH   4  17
ATOM     17  N   UNL     1      38.318   6.702  17.665  0.00  0.00    +0.000 NA
BRANCH  17  18
ATOM     18  C   UNL     1      39.617   6.637  18.260  0.00  0.00    +0.000 A 
ATOM     19  C   UNL     1      39.752   6.485  19.623  0.00  0.00    +0.000 A 
ATOM     20  C   UNL     1      41.030   6.426  20.140  0.00  0.00    +0.000 A 
ATOM     21  C   UNL     1      42.123   6.518  19.306  0.00  0.00    +0.000 A 
ATOM     22  C   UNL     1      43.477   6.444  19.959  0.00  0.00    +0.000 C 
ATOM     23  C   UNL     1      42.009   6.670  17.944  0.00  0.00    +0.000 A 
ATOM     24  C   UNL     1      43.203   6.766  17.070  0.00  0.00    +0.000 C 
ATOM     25  C   UNL     1      40.710   6.728  17.428  0.00  0.00    +0.000 A 
ENDBRANCH  17  18
ENDBRANCH   4  17
BRANCH   5  26
ATOM     26  S   UNL     1      37.590   7.487  14.543  0.00  0.00    +0.000 S 
BRANCH  26  27
ATOM     27  C   UNL     1      36.165   8.407  15.055  0.00  0.00    +0.000 A 
ATOM     28  C   UNL     1      34.954   8.302  14.430  0.00  0.00    +0.000 A 
ATOM     29  C   UNL     1      33.883   9.033  14.848  0.00  0.00    +0.000 A 
ATOM     30  C   UNL     1      33.979   9.911  15.924  0.00  0.00    +0.000 A 
ATOM     31  C   UNL     1      35.202  10.013  16.551  0.00  0.00    +0.000 A 
ATOM     32  C   UNL     1      36.270   9.277  16.124  0.00  0.00    +0.000 A 
ENDBRANCH  26  27
ENDBRANCH   5  26
TORSDOF 7
ENDMDL
