MODEL 1
REMARK VINA RESULT:      -7.2      0.000      0.000
REMARK  Name = 
REMARK  1 active torsions:
REMARK  status: ('A' for Active; 'I' for Inactive)
REMARK    1  A    between atoms: C_2  and  C_11
REMARK                            x       y       z     vdW  Elec       q    Type
REMARK                         _______ _______ _______ _____ _____    ______ ____
ROOT
ATOM      1  O   UNL     1      17.065  10.964  33.762  0.00  0.00    +0.000 OA
ATOM      2  C   UNL     1      15.975  11.582  33.833  0.00  0.00    +0.000 C 
ATOM      3  N   UNL     1      15.364  11.679  35.111  0.00  0.00    +0.000 NA
ATOM      4  C   UNL     1      15.932  11.112  36.283  0.00  0.00    +0.000 A 
ATOM      5  N   UNL     1      17.103  10.452  36.188  0.00  0.00    +0.000 NA
ATOM      6  C   UNL     1      17.709   9.887  37.239  0.00  0.00    +0.000 A 
ATOM      7  C   UNL     1      17.074  10.006  38.474  0.00  0.00    +0.000 A 
ATOM      8  C   UNL     1      15.866  10.682  38.593  0.00  0.00    +0.000 A 
ATOM      9  C   UNL     1      15.286  11.246  37.476  0.00  0.00    +0.000 A 
ATOM     10  O   UNL     1      14.076  11.938  37.519  0.00  0.00    +0.000 OA
ENDROOT
BRANCH   2  11
ATOM     11  C   UNL     1      15.393  12.164  32.627  0.00  0.00    +0.000 C 
ATOM     12  C   UNL     1      16.530  12.621  31.730  0.00  0.00    +0.000 C 
ATOM     13  C   UNL     1      16.013  13.270  30.466  0.00  0.00    +0.000 C 
ATOM     14  C   UNL     1      15.181  12.268  29.660  0.00  0.00    +0.000 C 
ATOM     15  C   UNL     1      14.071  11.795  30.586  0.00  0.00    +0.000 C 
ATOM     16  C   UNL     1      13.190  13.001  30.860  0.00  0.00    +0.000 C 
ATOM     17  C   UNL     1      14.023  13.964  31.689  0.00  0.00    +0.000 C 
ATOM     18  C   UNL     1      15.189  14.471  30.867  0.00  0.00    +0.000 C 
ATOM     19  C   UNL     1      14.472  13.306  32.972  0.00  0.00    +0.000 C 
ATOM     20  C   UNL     1      14.587  11.160  31.834  0.00  0.00    +0.000 C 
ENDBRANCH   2  11
TORSDOF 1
ENDMDL
MODEL 2
REMARK VINA RESULT:      -7.0     27.384     30.050
REMARK  Name = 
REMARK  1 active torsions:
REMARK  status: ('A' for Active; 'I' for Inactive)
REMARK    1  A    between atoms: C_2  and  C_11
REMARK                            x       y       z     vdW  Elec       q    Type
REMARK                         _______ _______ _______ _____ _____    ______ ____
ROOT
ATOM      1  O   UNL     1      31.406  22.871  11.452  0.00  0.00    +0.000 OA
ATOM      2  C   UNL     1      30.721  22.353  10.537  0.00  0.00    +0.000 C 
ATOM      3  N   UNL     1      29.315  22.299  10.728  0.00  0.00    +0.000 NA
ATOM      4  C   UNL     1      28.674  22.798  11.893  0.00  0.00    +0.000 A 
ATOM      5  N   UNL     1      29.425  23.352  12.865  0.00  0.00    +0.000 NA
ATOM      6  C   UNL     1      28.906  23.848  13.995  0.00  0.00    +0.000 A 
ATOM      7  C   UNL     1      27.522  23.773  14.141  0.00  0.00    +0.000 A 
ATOM      8  C   UNL     1      26.730  23.207  13.149  0.00  0.00    +0.000 A 
ATOM      9  C   UNL     1      27.319  22.711  12.005  0.00  0.00    +0.000 A 
ATOM     10  O   UNL     1      26.588  22.129  10.969  0.00  0.00    +0.000 OA
ENDROOT
BRANCH   2  11
ATOM     11  C   UNL     1      31.381  21.839   9.341  0.00  0.00    +0.000 C 
ATOM     12  C   UNL     1      32.768  21.362   9.738  0.00  0.00    +0.000 C 
ATOM     13  C   UNL     1      33.539  20.841   8.547  0.00  0.00    +0.000 C 
ATOM     14  C   UNL     1      32.812  19.643   7.930  0.00  0.00    +0.000 C 
ATOM     15  C   UNL     1      31.416  20.130   7.573  0.00  0.00    +0.000 C 
ATOM     16  C   UNL     1      31.584  21.170   6.480  0.00  0.00    +0.000 C 
ATOM     17  C   UNL     1      32.275  22.361   7.122  0.00  0.00    +0.000 C 
ATOM     18  C   UNL     1      33.673  21.972   7.554  0.00  0.00    +0.000 C 
ATOM     19  C   UNL     1      31.450  22.896   8.269  0.00  0.00    +0.000 C 
ATOM     20  C   UNL     1      30.661  20.647   8.752  0.00  0.00    +0.000 C 
ENDBRANCH   2  11
TORSDOF 1
ENDMDL
MODEL 3
REMARK VINA RESULT:      -6.6     19.434     21.202
REMARK  Name = 
REMARK  1 active torsions:
REMARK  status: ('A' for Active; 'I' for Inactive)
REMARK    1  A    between atoms: C_2  and  C_11
REMARK                            x       y       z     vdW  Elec       q    Type
REMARK                         _______ _______ _______ _____ _____    ______ ____
ROOT
ATOM      1  O   UNL     1      23.746   4.839  18.450  0.00  0.00    +0.000 OA
ATOM      2  C   UNL     1      24.581   4.421  17.613  0.00  0.00    +0.000 C 
ATOM      3  N   UNL     1      24.211   3.296  16.830  0.00  0.00    +0.000 NA
ATOM      4  C   UNL     1      22.957   2.643  16.961  0.00  0.00    +0.000 A 
ATOM      5  N   UNL     1      22.071   3.106  17.865  0.00  0.00    +0.000 NA
ATOM      6  C   UNL     1      20.867   2.553  18.056  0.00  0.00    +0.000 A 
ATOM      7  C   UNL     1      20.545   1.451  17.267  0.00  0.00    +0.000 A 
ATOM      8  C   UNL     1      21.445   0.959  16.329  0.00  0.00    +0.000 A 
ATOM      9  C   UNL     1      22.672   1.568  16.174  0.00  0.00    +0.000 A 
ATOM     10  O   UNL     1      23.624   1.129  15.254  0.00  0.00    +0.000 OA
ENDROOT
BRANCH   2  11
ATOM     11  C   UNL     1      25.870   5.093  17.479  0.00  0.00    +0.000 C 
ATOM     12  C   UNL     1      26.600   4.977  18.807  0.00  0.00    +0.000 C 
ATOM     13  C   UNL     1      27.939   5.678  18.769  0.00  0.00    +0.000 C 
ATOM     14  C   UNL     1      28.838   5.041  17.706  0.00  0.00    +0.000 C 
ATOM     15  C   UNL     1      28.077   5.134  16.393  0.00  0.00    +0.000 C 
ATOM     16  C   UNL     1      27.959   6.611  16.061  0.00  0.00    +0.000 C 
ATOM     17  C   UNL     1      27.036   7.214  17.106  0.00  0.00    +0.000 C 
ATOM     18  C   UNL     1      27.686   7.138  18.471  0.00  0.00    +0.000 C 
ATOM     19  C   UNL     1      25.688   6.534  17.077  0.00  0.00    +0.000 C 
ATOM     20  C   UNL     1      26.754   4.444  16.438  0.00  0.00    +0.000 C 
ENDBRANCH   2  11
TORSDOF 1
ENDMDL
MODEL 4
REMARK VINA RESULT:      -6.3     21.324     23.963
REMARK  Name = 
REMARK  1 active torsions:
REMARK  status: ('A' for Active; 'I' for Inactive)
REMARK    1  A    between atoms: C_2  and  C_11
REMARK                            x       y       z     vdW  Elec       q    Type
REMARK                         _______ _______ _______ _____ _____    ______ ____
ROOT
ATOM      1  O   UNL     1      29.796  24.956  20.328  0.00  0.00    +0.000 OA
ATOM      2  C   UNL     1      29.281  25.713  21.185  0.00  0.00    +0.000 C 
ATOM      3  N   UNL     1      29.297  27.107  20.917  0.00  0.00    +0.000 NA
ATOM      4  C   UNL     1      29.864  27.659  19.738  0.00  0.00    +0.000 A 
ATOM      5  N   UNL     1      30.412  26.832  18.826  0.00  0.00    +0.000 NA
ATOM      6  C   UNL     1      30.967  27.265  17.688  0.00  0.00    +0.000 A 
ATOM      7  C   UNL     1      30.961  28.640  17.465  0.00  0.00    +0.000 A 
ATOM      8  C   UNL     1      30.401  29.510  18.393  0.00  0.00    +0.000 A 
ATOM      9  C   UNL     1      29.842  29.009  19.549  0.00  0.00    +0.000 A 
ATOM     10  O   UNL     1      29.262  29.821  20.524  0.00  0.00    +0.000 OA
ENDROOT
BRANCH   2  11
ATOM     11  C   UNL     1      28.700  25.143  22.397  0.00  0.00    +0.000 C 
ATOM     12  C   UNL     1      27.814  26.200  23.035  0.00  0.00    +0.000 C 
ATOM     13  C   UNL     1      27.194  25.704  24.322  0.00  0.00    +0.000 C 
ATOM     14  C   UNL     1      26.310  24.484  24.046  0.00  0.00    +0.000 C 
ATOM     15  C   UNL     1      27.205  23.453  23.375  0.00  0.00    +0.000 C 
ATOM     16  C   UNL     1      28.239  23.039  24.407  0.00  0.00    +0.000 C 
ATOM     17  C   UNL     1      29.125  24.252  24.638  0.00  0.00    +0.000 C 
ATOM     18  C   UNL     1      28.318  25.363  25.273  0.00  0.00    +0.000 C 
ATOM     19  C   UNL     1      29.777  24.685  23.346  0.00  0.00    +0.000 C 
ATOM     20  C   UNL     1      27.817  23.950  22.109  0.00  0.00    +0.000 C 
ENDBRANCH   2  11
TORSDOF 1
ENDMDL
MODEL 5
REMARK VINA RESULT:      -6.3      4.151      7.317
REMARK  Name = 
REMARK  1 active torsions:
REMARK  status: ('A' for Active; 'I' for Inactive)
REMARK    1  A    between atoms: C_2  and  C_11
REMARK                            x       y       z     vdW  Elec       q    Type
REMARK                         _______ _______ _______ _____ _____    ______ ____
ROOT
ATOM      1  O   UNL     1      16.541  10.063  39.276  0.00  0.00    +0.000 OA
ATOM      2  C   UNL     1      17.207  10.743  38.459  0.00  0.00    +0.000 C 
ATOM      3  N   UNL     1      16.484  11.514  37.512  0.00  0.00    +0.000 NA
ATOM      4  C   UNL     1      15.064  11.541  37.460  0.00  0.00    +0.000 A 
ATOM      5  N   UNL     1      14.365  10.805  38.346  0.00  0.00    +0.000 NA
ATOM      6  C   UNL     1      13.027  10.770  38.370  0.00  0.00    +0.000 A 
ATOM      7  C   UNL     1      12.357  11.541  37.423  0.00  0.00    +0.000 A 
ATOM      8  C   UNL     1      13.061  12.307  36.501  0.00  0.00    +0.000 A 
ATOM      9  C   UNL     1      14.439  12.306  36.522  0.00  0.00    +0.000 A 
ATOM     10  O   UNL     1      15.210  13.049  35.628  0.00  0.00    +0.000 OA
ENDROOT
BRANCH   2  11
ATOM     11  C   UNL     1      18.666  10.715  38.513  0.00  0.00    +0.000 C 
ATOM     12  C   UNL     1      19.076  10.281  39.910  0.00  0.00    +0.000 C 
ATOM     13  C   UNL     1      20.580  10.256  40.065  0.00  0.00    +0.000 C 
ATOM     14  C   UNL     1      21.195   9.253  39.085  0.00  0.00    +0.000 C 
ATOM     15  C   UNL     1      20.744   9.682  37.697  0.00  0.00    +0.000 C 
ATOM     16  C   UNL     1      21.386  11.032  37.429  0.00  0.00    +0.000 C 
ATOM     17  C   UNL     1      20.736  12.016  38.386  0.00  0.00    +0.000 C 
ATOM     18  C   UNL     1      21.093  11.655  39.813  0.00  0.00    +0.000 C 
ATOM     19  C   UNL     1      19.243  12.063  38.164  0.00  0.00    +0.000 C 
ATOM     20  C   UNL     1      19.259   9.709  37.551  0.00  0.00    +0.000 C 
ENDBRANCH   2  11
TORSDOF 1
ENDMDL
MODEL 6
REMARK VINA RESULT:      -6.3     22.044     24.538
REMARK  Name = 
REMARK  1 active torsions:
REMARK  status: ('A' for Active; 'I' for Inactive)
REMARK    1  A    between atoms: C_2  and  C_11
REMARK                            x       y       z     vdW  Elec       q    Type
REMARK                         _______ _______ _______ _____ _____    ______ ____
ROOT
ATOM      1  O   UNL     1      32.965  -4.669  34.363  0.00  0.00    +0.000 OA
ATOM      2  C   UNL     1      33.394  -4.332  33.234  0.00  0.00    +0.000 C 
ATOM      3  N   UNL     1      33.676  -2.956  33.028  0.00  0.00    +0.000 NA
ATOM      4  C   UNL     1      33.492  -1.971  34.034  0.00  0.00    +0.000 A 
ATOM      5  N   UNL     1      33.031  -2.351  35.242  0.00  0.00    +0.000 NA
ATOM      6  C   UNL     1      32.828  -1.491  36.248  0.00  0.00    +0.000 A 
ATOM      7  C   UNL     1      33.118  -0.151  36.003  0.00  0.00    +0.000 A 
ATOM      8  C   UNL     1      33.594   0.260  34.764  0.00  0.00    +0.000 A 
ATOM      9  C   UNL     1      33.785  -0.669  33.763  0.00  0.00    +0.000 A 
ATOM     10  O   UNL     1      34.259  -0.330  32.496  0.00  0.00    +0.000 OA
ENDROOT
BRANCH   2  11
ATOM     11  C   UNL     1      33.582  -5.346  32.199  0.00  0.00    +0.000 C 
ATOM     12  C   UNL     1      33.010  -4.803  30.901  0.00  0.00    +0.000 C 
ATOM     13  C   UNL     1      33.133  -5.807  29.777  0.00  0.00    +0.000 C 
ATOM     14  C   UNL     1      34.607  -6.131  29.517  0.00  0.00    +0.000 C 
ATOM     15  C   UNL     1      35.170  -6.637  30.836  0.00  0.00    +0.000 C 
ATOM     16  C   UNL     1      34.463  -7.947  31.136  0.00  0.00    +0.000 C 
ATOM     17  C   UNL     1      33.013  -7.598  31.425  0.00  0.00    +0.000 C 
ATOM     18  C   UNL     1      32.361  -7.043  30.176  0.00  0.00    +0.000 C 
ATOM     19  C   UNL     1      32.921  -6.642  32.591  0.00  0.00    +0.000 C 
ATOM     20  C   UNL     1      35.042  -5.644  31.942  0.00  0.00    +0.000 C 
ENDBRANCH   2  11
TORSDOF 1
ENDMDL
MODEL 7
REMARK VINA RESULT:      -6.2     18.035     19.021
REMARK  Name = 
REMARK  1 active torsions:
REMARK  status: ('A' for Active; 'I' for Inactive)
REMARK    1  A    between atoms: C_2  and  C_11
REMARK                            x       y       z     vdW  Elec       q    Type
REMARK                         _______ _______ _______ _____ _____    ______ ____
ROOT
ATOM      1  O   UNL     1      30.161  22.407  25.752  0.00  0.00    +0.000 OA
ATOM      2  C   UNL     1      29.146  22.980  26.215  0.00  0.00    +0.000 C 
ATOM      3  N   UNL     1      29.068  23.128  27.625  0.00  0.00    +0.000 NA
ATOM      4  C   UNL     1      30.077  22.660  28.508  0.00  0.00    +0.000 A 
ATOM      5  N   UNL     1      31.162  22.048  27.994  0.00  0.00    +0.000 NA
ATOM      6  C   UNL     1      32.161  21.577  28.750  0.00  0.00    +0.000 A 
ATOM      7  C   UNL     1      32.043  21.744  30.128  0.00  0.00    +0.000 A 
ATOM      8  C   UNL     1      30.933  22.373  30.678  0.00  0.00    +0.000 A 
ATOM      9  C   UNL     1      29.933  22.840  29.851  0.00  0.00    +0.000 A 
ATOM     10  O   UNL     1      28.791  23.480  30.331  0.00  0.00    +0.000 OA
ENDROOT
BRANCH   2  11
ATOM     11  C   UNL     1      28.108  23.459  25.307  0.00  0.00    +0.000 C 
ATOM     12  C   UNL     1      28.023  24.970  25.446  0.00  0.00    +0.000 C 
ATOM     13  C   UNL     1      26.944  25.550  24.560  0.00  0.00    +0.000 C 
ATOM     14  C   UNL     1      27.251  25.252  23.090  0.00  0.00    +0.000 C 
ATOM     15  C   UNL     1      27.369  23.740  22.978  0.00  0.00    +0.000 C 
ATOM     16  C   UNL     1      25.993  23.173  23.277  0.00  0.00    +0.000 C 
ATOM     17  C   UNL     1      25.725  23.448  24.747  0.00  0.00    +0.000 C 
ATOM     18  C   UNL     1      25.626  24.941  24.980  0.00  0.00    +0.000 C 
ATOM     19  C   UNL     1      26.785  22.804  25.608  0.00  0.00    +0.000 C 
ATOM     20  C   UNL     1      28.433  23.172  23.858  0.00  0.00    +0.000 C 
ENDBRANCH   2  11
TORSDOF 1
ENDMDL
MODEL 8
REMARK VINA RESULT:      -6.2     22.093     23.311
REMARK  Name = 
REMARK  1 active torsions:
REMARK  status: ('A' for Active; 'I' for Inactive)
REMARK    1  A    between atoms: C_2  and  C_11
REMARK                            x       y       z     vdW  Elec       q    Type
REMARK                         _______ _______ _______ _____ _____    ______ ____
ROOT
ATOM      1  O   UNL     1      22.117  -6.128  24.272  0.00  0.00    +0.000 OA
ATOM      2  C   UNL     1      22.163  -7.365  24.474  0.00  0.00    +0.000 C 
ATOM      3  N   UNL     1      21.157  -7.927  25.303  0.00  0.00    +0.000 NA
ATOM      4  C   UNL     1      20.124  -7.153  25.897  0.00  0.00    +0.000 A 
ATOM      5  N   UNL     1      20.090  -5.826  25.669  0.00  0.00    +0.000 NA
ATOM      6  C   UNL     1      19.155  -5.020  26.187  0.00  0.00    +0.000 A 
ATOM      7  C   UNL     1      18.187  -5.613  26.995  0.00  0.00    +0.000 A 
ATOM      8  C   UNL     1      18.205  -6.981  27.242  0.00  0.00    +0.000 A 
ATOM      9  C   UNL     1      19.192  -7.763  26.681  0.00  0.00    +0.000 A 
ATOM     10  O   UNL     1      19.273  -9.141  26.885  0.00  0.00    +0.000 OA
ENDROOT
BRANCH   2  11
ATOM     11  C   UNL     1      23.225  -8.160  23.864  0.00  0.00    +0.000 C 
ATOM     12  C   UNL     1      23.578  -9.286  24.820  0.00  0.00    +0.000 C 
ATOM     13  C   UNL     1      24.700 -10.144  24.279  0.00  0.00    +0.000 C 
ATOM     14  C   UNL     1      24.277 -10.793  22.958  0.00  0.00    +0.000 C 
ATOM     15  C   UNL     1      23.892  -9.654  22.027  0.00  0.00    +0.000 C 
ATOM     16  C   UNL     1      25.161  -8.865  21.759  0.00  0.00    +0.000 C 
ATOM     17  C   UNL     1      25.541  -8.201  23.072  0.00  0.00    +0.000 C 
ATOM     18  C   UNL     1      25.909  -9.258  24.093  0.00  0.00    +0.000 C 
ATOM     19  C   UNL     1      24.426  -7.304  23.554  0.00  0.00    +0.000 C 
ATOM     20  C   UNL     1      22.789  -8.808  22.569  0.00  0.00    +0.000 C 
ENDBRANCH   2  11
TORSDOF 1
ENDMDL
MODEL 9
REMARK VINA RESULT:      -6.1     19.503     21.174
REMARK  Name = 
REMARK  1 active torsions:
REMARK  status: ('A' for Active; 'I' for Inactive)
REMARK    1  A    between atoms: C_2  and  C_11
REMARK                            x       y       z     vdW  Elec       q    Type
REMARK                         _______ _______ _______ _____ _____    ______ ____
ROOT
ATOM      1  O   UNL     1      25.236   2.852  16.013  0.00  0.00    +0.000 OA
ATOM      2  C   UNL     1      25.052   3.773  16.845  0.00  0.00    +0.000 C 
ATOM      3  N   UNL     1      23.795   3.815  17.502  0.00  0.00    +0.000 NA
ATOM      4  C   UNL     1      22.763   2.871  17.255  0.00  0.00    +0.000 A 
ATOM      5  N   UNL     1      22.977   1.888  16.360  0.00  0.00    +0.000 NA
ATOM      6  C   UNL     1      22.062   0.957  16.065  0.00  0.00    +0.000 A 
ATOM      7  C   UNL     1      20.842   1.035  16.734  0.00  0.00    +0.000 A 
ATOM      8  C   UNL     1      20.601   2.042  17.661  0.00  0.00    +0.000 A 
ATOM      9  C   UNL     1      21.581   2.975  17.926  0.00  0.00    +0.000 A 
ATOM     10  O   UNL     1      21.411   4.012  18.843  0.00  0.00    +0.000 OA
ENDROOT
BRANCH   2  11
ATOM     11  C   UNL     1      26.114   4.743  17.097  0.00  0.00    +0.000 C 
ATOM     12  C   UNL     1      27.313   4.358  16.247  0.00  0.00    +0.000 C 
ATOM     13  C   UNL     1      28.478   5.296  16.473  0.00  0.00    +0.000 C 
ATOM     14  C   UNL     1      28.089   6.724  16.080  0.00  0.00    +0.000 C 
ATOM     15  C   UNL     1      26.867   7.077  16.913  0.00  0.00    +0.000 C 
ATOM     16  C   UNL     1      27.323   7.113  18.360  0.00  0.00    +0.000 C 
ATOM     17  C   UNL     1      27.669   5.682  18.738  0.00  0.00    +0.000 C 
ATOM     18  C   UNL     1      28.861   5.213  17.932  0.00  0.00    +0.000 C 
ATOM     19  C   UNL     1      26.469   4.783  18.561  0.00  0.00    +0.000 C 
ATOM     20  C   UNL     1      25.723   6.146  16.690  0.00  0.00    +0.000 C 
ENDBRANCH   2  11
TORSDOF 1
ENDMDL
MODEL 10
REMARK VINA RESULT:      -6.1      4.813      8.117
REMARK  Name = 
REMARK  1 active torsions:
REMARK  status: ('A' for Active; 'I' for Inactive)
REMARK    1  A    between atoms: C_2  and  C_11
REMARK                            x       y       z     vdW  Elec       q    Type
REMARK                         _______ _______ _______ _____ _____    ______ ____
ROOT
ATOM      1  O   UNL     1      19.856   9.683  39.311  0.00  0.00    +0.000 OA
ATOM      2  C   UNL     1      20.199  10.222  38.231  0.00  0.00    +0.000 C 
ATOM      3  N   UNL     1      19.173  10.788  37.430  0.00  0.00    +0.000 NA
ATOM      4  C   UNL     1      17.802  10.764  37.802  0.00  0.00    +0.000 A 
ATOM      5  N   UNL     1      17.451  10.183  38.965  0.00  0.00    +0.000 NA
ATOM      6  C   UNL     1      16.185  10.115  39.394  0.00  0.00    +0.000 A 
ATOM      7  C   UNL     1      15.209  10.683  38.577  0.00  0.00    +0.000 A 
ATOM      8  C   UNL     1      15.552  11.288  37.373  0.00  0.00    +0.000 A 
ATOM      9  C   UNL     1      16.873  11.329  36.981  0.00  0.00    +0.000 A 
ATOM     10  O   UNL     1      17.290  11.918  35.788  0.00  0.00    +0.000 OA
ENDROOT
BRANCH   2  11
ATOM     11  C   UNL     1      21.609  10.244  37.850  0.00  0.00    +0.000 C 
ATOM     12  C   UNL     1      22.350   9.253  38.731  0.00  0.00    +0.000 C 
ATOM     13  C   UNL     1      23.830   9.235  38.425  0.00  0.00    +0.000 C 
ATOM     14  C   UNL     1      24.064   8.808  36.973  0.00  0.00    +0.000 C 
ATOM     15  C   UNL     1      23.286   9.789  36.110  0.00  0.00    +0.000 C 
ATOM     16  C   UNL     1      23.942  11.146  36.295  0.00  0.00    +0.000 C 
ATOM     17  C   UNL     1      23.667  11.565  37.729  0.00  0.00    +0.000 C 
ATOM     18  C   UNL     1      24.370  10.623  38.683  0.00  0.00    +0.000 C 
ATOM     19  C   UNL     1      22.180  11.632  37.985  0.00  0.00    +0.000 C 
ATOM     20  C   UNL     1      21.826   9.805  36.419  0.00  0.00    +0.000 C 
ENDBRANCH   2  11
TORSDOF 1
ENDMDL
