MODEL 1
REMARK VINA RESULT:      -7.5      0.000      0.000
REMARK  Name = 
REMARK  6 active torsions:
REMARK  status: ('A' for Active; 'I' for Inactive)
REMARK    1  A    between atoms: O_2  and  C_3
REMARK    2  A    between atoms: C_6  and  N_7
REMARK    3  A    between atoms: C_8  and  C_10
REMARK    4  A    between atoms: C_11  and  N_12
REMARK    5  A    between atoms: C_13  and  C_15
REMARK    6  A    between atoms: C_15  and  C_16
REMARK                            x       y       z     vdW  Elec       q    Type
REMARK                         _______ _______ _______ _____ _____    ______ ____
ROOT
ATOM      1  C   UNL     1      36.580   2.090  14.529  0.00  0.00    +0.000 A 
ATOM      2  C   UNL     1      35.496   1.700  15.269  0.00  0.00    +0.000 A 
ATOM      3  S   UNL     1      34.552   3.122  15.374  0.00  0.00    +0.000 S 
ATOM      4  C   UNL     1      35.543   4.173  14.485  0.00  0.00    +0.000 A 
ATOM      5  C   UNL     1      36.590   3.392  14.124  0.00  0.00    +0.000 A 
ATOM      6  C   UNL     1      37.750   3.924  13.299  0.00  0.00    +0.000 C 
ATOM      7  C   UNL     1      37.211   4.379  11.971  0.00  0.00    +0.000 C 
ATOM      8  C   UNL     1      36.664   5.784  12.147  0.00  0.00    +0.000 C 
ATOM      9  C   UNL     1      35.257   5.777  12.704  0.00  0.00    +0.000 C 
ATOM     10  C   UNL     1      35.249   5.621  14.210  0.00  0.00    +0.000 C 
ENDROOT
BRANCH   1  12
ATOM     11  N   UNL     1      38.813   0.962  15.016  0.00  0.00    +0.000 NA
ATOM     12  C   UNL     1      37.661   1.119  14.207  0.00  0.00    +0.000 C 
ATOM     13  O   UNL     1      37.550   0.420  13.194  0.00  0.00    +0.000 OA
BRANCH  11  17
ATOM     14  C   UNL     1      41.892  -1.823  14.074  0.00  0.00    +0.000 A 
ATOM     15  C   UNL     1      41.952  -0.509  13.664  0.00  0.00    +0.000 A 
ATOM     16  C   UNL     1      40.955   0.395  13.967  0.00  0.00    +0.000 A 
ATOM     17  C   UNL     1      39.845   0.029  14.700  0.00  0.00    +0.000 A 
ATOM     18  C   UNL     1      39.789  -1.289  15.109  0.00  0.00    +0.000 A 
ATOM     19  C   UNL     1      40.786  -2.194  14.806  0.00  0.00    +0.000 A 
BRANCH  14  21
ATOM     20  C   UNL     1      43.340  -2.964  12.462  0.00  0.00    +0.000 C 
ATOM     21  O   UNL     1      42.901  -2.737  13.765  0.00  0.00    +0.000 OA
ENDBRANCH  14  21
ENDBRANCH  11  17
ENDBRANCH   1  12
BRANCH   2  22
ATOM     22  N   UNL     1      35.216   0.391  15.829  0.00  0.00    +0.000 NA
ATOM     23  C   UNL     1      35.402   0.217  17.214  0.00  0.00    +0.000 C 
ATOM     24  O   UNL     1      35.799   1.200  17.891  0.00  0.00    +0.000 OA
BRANCH  23  25
ATOM     25  C   UNL     1      35.143  -1.095  17.900  0.00  0.00    +0.000 C 
BRANCH  25  26
ATOM     26  C   UNL     1      36.369  -1.916  17.847  0.00  0.00    +0.000 A 
ATOM     27  C   UNL     1      36.475  -2.948  16.917  0.00  0.00    +0.000 A 
ATOM     28  C   UNL     1      37.588  -3.749  16.818  0.00  0.00    +0.000 A 
ATOM     29  C   UNL     1      38.638  -3.509  17.679  0.00  0.00    +0.000 A 
ATOM     30  C   UNL     1      38.579  -2.499  18.616  0.00  0.00    +0.000 A 
ATOM     31  C   UNL     1      37.445  -1.719  18.683  0.00  0.00    +0.000 A 
ENDBRANCH  25  26
ENDBRANCH  23  25
ENDBRANCH   2  22
TORSDOF 6
ENDMDL
MODEL 2
REMARK VINA RESULT:      -7.0      3.256      5.992
REMARK  Name = 
REMARK  6 active torsions:
REMARK  status: ('A' for Active; 'I' for Inactive)
REMARK    1  A    between atoms: O_2  and  C_3
REMARK    2  A    between atoms: C_6  and  N_7
REMARK    3  A    between atoms: C_8  and  C_10
REMARK    4  A    between atoms: C_11  and  N_12
REMARK    5  A    between atoms: C_13  and  C_15
REMARK    6  A    between atoms: C_15  and  C_16
REMARK                            x       y       z     vdW  Elec       q    Type
REMARK                         _______ _______ _______ _____ _____    ______ ____
ROOT
ATOM      1  C   UNL     1      37.295   0.982  15.276  0.00  0.00    +0.000 A 
ATOM      2  C   UNL     1      37.061   2.258  15.716  0.00  0.00    +0.000 A 
ATOM      3  S   UNL     1      35.622   2.109  16.627  0.00  0.00    +0.000 S 
ATOM      4  C   UNL     1      35.349   0.446  16.436  0.00  0.00    +0.000 A 
ATOM      5  C   UNL     1      36.386   0.041  15.664  0.00  0.00    +0.000 A 
ATOM      6  C   UNL     1      36.555  -1.405  15.229  0.00  0.00    +0.000 C 
ATOM      7  C   UNL     1      36.719  -2.250  16.462  0.00  0.00    +0.000 C 
ATOM      8  C   UNL     1      35.333  -2.554  17.005  0.00  0.00    +0.000 C 
ATOM      9  C   UNL     1      34.803  -1.424  17.861  0.00  0.00    +0.000 C 
ATOM     10  C   UNL     1      34.196  -0.319  17.023  0.00  0.00    +0.000 C 
ENDROOT
BRANCH   1  12
ATOM     11  N   UNL     1      39.677   0.133  14.958  0.00  0.00    +0.000 NA
ATOM     12  C   UNL     1      38.481   0.681  14.431  0.00  0.00    +0.000 C 
ATOM     13  O   UNL     1      38.423   0.916  13.218  0.00  0.00    +0.000 OA
BRANCH  11  17
ATOM     14  C   UNL     1      43.058  -0.718  12.515  0.00  0.00    +0.000 A 
ATOM     15  C   UNL     1      42.232  -1.716  12.984  0.00  0.00    +0.000 A 
ATOM     16  C   UNL     1      41.136  -1.442  13.776  0.00  0.00    +0.000 A 
ATOM     17  C   UNL     1      40.810  -0.152  14.140  0.00  0.00    +0.000 A 
ATOM     18  C   UNL     1      41.640   0.845  13.668  0.00  0.00    +0.000 A 
ATOM     19  C   UNL     1      42.737   0.573  12.875  0.00  0.00    +0.000 A 
BRANCH  14  21
ATOM     20  C   UNL     1      44.460  -2.276  11.250  0.00  0.00    +0.000 C 
ATOM     21  O   UNL     1      44.167  -0.996  11.715  0.00  0.00    +0.000 OA
ENDBRANCH  14  21
ENDBRANCH  11  17
ENDBRANCH   1  12
BRANCH   2  22
ATOM     22  N   UNL     1      37.848   3.451  15.465  0.00  0.00    +0.000 NA
ATOM     23  C   UNL     1      38.315   4.174  16.579  0.00  0.00    +0.000 C 
ATOM     24  O   UNL     1      38.028   3.752  17.729  0.00  0.00    +0.000 OA
BRANCH  23  25
ATOM     25  C   UNL     1      39.138   5.424  16.437  0.00  0.00    +0.000 C 
BRANCH  25  26
ATOM     26  C   UNL     1      39.216   6.101  17.747  0.00  0.00    +0.000 A 
ATOM     27  C   UNL     1      38.287   7.086  18.076  0.00  0.00    +0.000 A 
ATOM     28  C   UNL     1      38.305   7.754  19.278  0.00  0.00    +0.000 A 
ATOM     29  C   UNL     1      39.287   7.424  20.188  0.00  0.00    +0.000 A 
ATOM     30  C   UNL     1      40.228   6.456  19.907  0.00  0.00    +0.000 A 
ATOM     31  C   UNL     1      40.176   5.810  18.690  0.00  0.00    +0.000 A 
ENDBRANCH  25  26
ENDBRANCH  23  25
ENDBRANCH   2  22
TORSDOF 6
ENDMDL
MODEL 3
REMARK VINA RESULT:      -6.9      2.476      6.558
REMARK  Name = 
REMARK  6 active torsions:
REMARK  status: ('A' for Active; 'I' for Inactive)
REMARK    1  A    between atoms: O_2  and  C_3
REMARK    2  A    between atoms: C_6  and  N_7
REMARK    3  A    between atoms: C_8  and  C_10
REMARK    4  A    between atoms: C_11  and  N_12
REMARK    5  A    between atoms: C_13  and  C_15
REMARK    6  A    between atoms: C_15  and  C_16
REMARK                            x       y       z     vdW  Elec       q    Type
REMARK                         _______ _______ _______ _____ _____    ______ ____
ROOT
ATOM      1  C   UNL     1      39.905  -0.088  14.008  0.00  0.00    +0.000 A 
ATOM      2  C   UNL     1      39.666  -1.289  14.621  0.00  0.00    +0.000 A 
ATOM      3  S   UNL     1      40.946  -2.280  14.071  0.00  0.00    +0.000 S 
ATOM      4  C   UNL     1      41.752  -1.161  13.084  0.00  0.00    +0.000 A 
ATOM      5  C   UNL     1      41.005  -0.037  13.204  0.00  0.00    +0.000 A 
ATOM      6  C   UNL     1      41.358   1.250  12.477  0.00  0.00    +0.000 C 
ATOM      7  C   UNL     1      42.709   1.705  12.956  0.00  0.00    +0.000 C 
ATOM      8  C   UNL     1      43.762   0.947  12.168  0.00  0.00    +0.000 C 
ATOM      9  C   UNL     1      44.027  -0.423  12.753  0.00  0.00    +0.000 C 
ATOM     10  C   UNL     1      43.001  -1.439  12.295  0.00  0.00    +0.000 C 
ENDROOT
BRANCH   1  12
ATOM     11  N   UNL     1      37.843   1.299  13.440  0.00  0.00    +0.000 NA
ATOM     12  C   UNL     1      38.995   1.067  14.233  0.00  0.00    +0.000 C 
ATOM     13  O   UNL     1      39.252   1.857  15.148  0.00  0.00    +0.000 OA
BRANCH  11  17
ATOM     14  C   UNL     1      35.254   4.612  14.104  0.00  0.00    +0.000 A 
ATOM     15  C   UNL     1      36.345   4.700  13.267  0.00  0.00    +0.000 A 
ATOM     16  C   UNL     1      37.185   3.628  13.052  0.00  0.00    +0.000 A 
ATOM     17  C   UNL     1      36.976   2.409  13.663  0.00  0.00    +0.000 A 
ATOM     18  C   UNL     1      35.881   2.325  14.500  0.00  0.00    +0.000 A 
ATOM     19  C   UNL     1      35.039   3.397  14.717  0.00  0.00    +0.000 A 
BRANCH  14  21
ATOM     20  C   UNL     1      34.146   6.662  13.350  0.00  0.00    +0.000 C 
ATOM     21  O   UNL     1      34.405   5.698  14.322  0.00  0.00    +0.000 OA
ENDBRANCH  14  21
ENDBRANCH  11  17
ENDBRANCH   1  12
BRANCH   2  22
ATOM     22  N   UNL     1      38.583  -1.636  15.523  0.00  0.00    +0.000 NA
ATOM     23  C   UNL     1      37.422  -2.206  14.965  0.00  0.00    +0.000 C 
ATOM     24  O   UNL     1      37.384  -2.384  13.720  0.00  0.00    +0.000 OA
BRANCH  23  25
ATOM     25  C   UNL     1      36.241  -2.603  15.804  0.00  0.00    +0.000 C 
BRANCH  25  26
ATOM     26  C   UNL     1      36.075  -1.623  16.897  0.00  0.00    +0.000 A 
ATOM     27  C   UNL     1      36.552  -1.919  18.172  0.00  0.00    +0.000 A 
ATOM     28  C   UNL     1      36.429  -1.051  19.232  0.00  0.00    +0.000 A 
ATOM     29  C   UNL     1      35.808   0.160  19.010  0.00  0.00    +0.000 A 
ATOM     30  C   UNL     1      35.320   0.496  17.764  0.00  0.00    +0.000 A 
ATOM     31  C   UNL     1      35.464  -0.402  16.728  0.00  0.00    +0.000 A 
ENDBRANCH  25  26
ENDBRANCH  23  25
ENDBRANCH   2  22
TORSDOF 6
ENDMDL
MODEL 4
REMARK VINA RESULT:      -6.9      3.895      5.839
REMARK  Name = 
REMARK  6 active torsions:
REMARK  status: ('A' for Active; 'I' for Inactive)
REMARK    1  A    between atoms: O_2  and  C_3
REMARK    2  A    between atoms: C_6  and  N_7
REMARK    3  A    between atoms: C_8  and  C_10
REMARK    4  A    between atoms: C_11  and  N_12
REMARK    5  A    between atoms: C_13  and  C_15
REMARK    6  A    between atoms: C_15  and  C_16
REMARK                            x       y       z     vdW  Elec       q    Type
REMARK                         _______ _______ _______ _____ _____    ______ ____
ROOT
ATOM      1  C   UNL     1      38.070   3.185  13.952  0.00  0.00    +0.000 A 
ATOM      2  C   UNL     1      37.643   4.204  14.761  0.00  0.00    +0.000 A 
ATOM      3  S   UNL     1      37.283   5.463  13.662  0.00  0.00    +0.000 S 
ATOM      4  C   UNL     1      37.677   4.679  12.211  0.00  0.00    +0.000 A 
ATOM      5  C   UNL     1      38.082   3.451  12.614  0.00  0.00    +0.000 A 
ATOM      6  C   UNL     1      38.539   2.387  11.630  0.00  0.00    +0.000 C 
ATOM      7  C   UNL     1      37.389   2.066  10.716  0.00  0.00    +0.000 C 
ATOM      8  C   UNL     1      37.368   3.108   9.612  0.00  0.00    +0.000 C 
ATOM      9  C   UNL     1      36.660   4.373  10.043  0.00  0.00    +0.000 C 
ATOM     10  C   UNL     1      37.570   5.285  10.839  0.00  0.00    +0.000 C 
ENDROOT
BRANCH   1  12
ATOM     11  N   UNL     1      37.613   0.770  14.624  0.00  0.00    +0.000 NA
ATOM     12  C   UNL     1      38.487   1.882  14.535  0.00  0.00    +0.000 C 
ATOM     13  O   UNL     1      39.642   1.761  14.959  0.00  0.00    +0.000 OA
BRANCH  11  17
ATOM     14  C   UNL     1      38.828  -2.951  16.297  0.00  0.00    +0.000 A 
ATOM     15  C   UNL     1      38.030  -2.070  16.993  0.00  0.00    +0.000 A 
ATOM     16  C   UNL     1      37.636  -0.863  16.452  0.00  0.00    +0.000 A 
ATOM     17  C   UNL     1      38.020  -0.477  15.185  0.00  0.00    +0.000 A 
ATOM     18  C   UNL     1      38.820  -1.364  14.492  0.00  0.00    +0.000 A 
ATOM     19  C   UNL     1      39.216  -2.571  15.031  0.00  0.00    +0.000 A 
BRANCH  14  21
ATOM     20  C   UNL     1      38.379  -4.969  17.611  0.00  0.00    +0.000 C 
ATOM     21  O   UNL     1      39.228  -4.171  16.845  0.00  0.00    +0.000 OA
ENDBRANCH  14  21
ENDBRANCH  11  17
ENDBRANCH   1  12
BRANCH   2  22
ATOM     22  N   UNL     1      37.525   4.210  16.208  0.00  0.00    +0.000 NA
ATOM     23  C   UNL     1      38.634   4.653  16.954  0.00  0.00    +0.000 C 
ATOM     24  O   UNL     1      39.665   5.018  16.332  0.00  0.00    +0.000 OA
BRANCH  23  25
ATOM     25  C   UNL     1      38.623   4.702  18.456  0.00  0.00    +0.000 C 
BRANCH  25  26
ATOM     26  C   UNL     1      39.040   6.048  18.897  0.00  0.00    +0.000 A 
ATOM     27  C   UNL     1      38.269   7.159  18.559  0.00  0.00    +0.000 A 
ATOM     28  C   UNL     1      38.602   8.438  18.937  0.00  0.00    +0.000 A 
ATOM     29  C   UNL     1      39.747   8.616  19.684  0.00  0.00    +0.000 A 
ATOM     30  C   UNL     1      40.541   7.547  20.043  0.00  0.00    +0.000 A 
ATOM     31  C   UNL     1      40.173   6.280  19.643  0.00  0.00    +0.000 A 
ENDBRANCH  25  26
ENDBRANCH  23  25
ENDBRANCH   2  22
TORSDOF 6
ENDMDL
MODEL 5
REMARK VINA RESULT:      -6.7      2.732      7.818
REMARK  Name = 
REMARK  6 active torsions:
REMARK  status: ('A' for Active; 'I' for Inactive)
REMARK    1  A    between atoms: O_2  and  C_3
REMARK    2  A    between atoms: C_6  and  N_7
REMARK    3  A    between atoms: C_8  and  C_10
REMARK    4  A    between atoms: C_11  and  N_12
REMARK    5  A    between atoms: C_13  and  C_15
REMARK    6  A    between atoms: C_15  and  C_16
REMARK                            x       y       z     vdW  Elec       q    Type
REMARK                         _______ _______ _______ _____ _____    ______ ____
ROOT
ATOM      1  C   UNL     1      36.921  -2.702  15.801  0.00  0.00    +0.000 A 
ATOM      2  C   UNL     1      38.211  -3.067  16.082  0.00  0.00    +0.000 A 
ATOM      3  S   UNL     1      38.071  -4.708  16.542  0.00  0.00    +0.000 S 
ATOM      4  C   UNL     1      36.394  -4.896  16.369  0.00  0.00    +0.000 A 
ATOM      5  C   UNL     1      35.978  -3.675  15.957  0.00  0.00    +0.000 A 
ATOM      6  C   UNL     1      34.517  -3.372  15.671  0.00  0.00    +0.000 C 
ATOM      7  C   UNL     1      34.062  -4.265  14.550  0.00  0.00    +0.000 C 
ATOM      8  C   UNL     1      33.687  -5.609  15.150  0.00  0.00    +0.000 C 
ATOM      9  C   UNL     1      34.898  -6.494  15.352  0.00  0.00    +0.000 C 
ATOM     10  C   UNL     1      35.629  -6.163  16.636  0.00  0.00    +0.000 C 
ENDROOT
BRANCH   1  12
ATOM     11  N   UNL     1      36.334  -0.265  16.262  0.00  0.00    +0.000 NA
ATOM     12  C   UNL     1      36.610  -1.318  15.354  0.00  0.00    +0.000 C 
ATOM     13  O   UNL     1      36.593  -1.073  14.143  0.00  0.00    +0.000 OA
BRANCH  11  17
ATOM     14  C   UNL     1      35.447   3.689  14.959  0.00  0.00    +0.000 A 
ATOM     15  C   UNL     1      34.556   2.957  15.712  0.00  0.00    +0.000 A 
ATOM     16  C   UNL     1      34.841   1.675  16.134  0.00  0.00    +0.000 A 
ATOM     17  C   UNL     1      36.036   1.060  15.825  0.00  0.00    +0.000 A 
ATOM     18  C   UNL     1      36.927   1.797  15.071  0.00  0.00    +0.000 A 
ATOM     19  C   UNL     1      36.643   3.080  14.647  0.00  0.00    +0.000 A 
BRANCH  14  21
ATOM     20  C   UNL     1      35.631   5.507  13.328  0.00  0.00    +0.000 C 
ATOM     21  O   UNL     1      35.157   4.985  14.530  0.00  0.00    +0.000 OA
ENDBRANCH  14  21
ENDBRANCH  11  17
ENDBRANCH   1  12
BRANCH   2  22
ATOM     22  N   UNL     1      39.410  -2.253  16.007  0.00  0.00    +0.000 NA
ATOM     23  C   UNL     1      40.109  -2.226  14.784  0.00  0.00    +0.000 C 
ATOM     24  O   UNL     1      39.660  -2.905  13.825  0.00  0.00    +0.000 OA
BRANCH  23  25
ATOM     25  C   UNL     1      41.361  -1.418  14.594  0.00  0.00    +0.000 C 
BRANCH  25  26
ATOM     26  C   UNL     1      41.058  -0.254  13.737  0.00  0.00    +0.000 A 
ATOM     27  C   UNL     1      40.430   0.864  14.281  0.00  0.00    +0.000 A 
ATOM     28  C   UNL     1      40.119   1.978  13.537  0.00  0.00    +0.000 A 
ATOM     29  C   UNL     1      40.451   1.977  12.199  0.00  0.00    +0.000 A 
ATOM     30  C   UNL     1      41.074   0.893  11.616  0.00  0.00    +0.000 A 
ATOM     31  C   UNL     1      41.367  -0.205  12.397  0.00  0.00    +0.000 A 
ENDBRANCH  25  26
ENDBRANCH  23  25
ENDBRANCH   2  22
TORSDOF 6
ENDMDL
MODEL 6
REMARK VINA RESULT:      -6.7      3.762      6.239
REMARK  Name = 
REMARK  6 active torsions:
REMARK  status: ('A' for Active; 'I' for Inactive)
REMARK    1  A    between atoms: O_2  and  C_3
REMARK    2  A    between atoms: C_6  and  N_7
REMARK    3  A    between atoms: C_8  and  C_10
REMARK    4  A    between atoms: C_11  and  N_12
REMARK    5  A    between atoms: C_13  and  C_15
REMARK    6  A    between atoms: C_15  and  C_16
REMARK                            x       y       z     vdW  Elec       q    Type
REMARK                         _______ _______ _______ _____ _____    ______ ____
ROOT
ATOM      1  C   UNL     1      37.116   1.245  15.315  0.00  0.00    +0.000 A 
ATOM      2  C   UNL     1      36.541   2.389  15.800  0.00  0.00    +0.000 A 
ATOM      3  S   UNL     1      35.221   1.812  16.721  0.00  0.00    +0.000 S 
ATOM      4  C   UNL     1      35.425   0.146  16.475  0.00  0.00    +0.000 A 
ATOM      5  C   UNL     1      36.518   0.074  15.679  0.00  0.00    +0.000 A 
ATOM      6  C   UNL     1      37.080  -1.252  15.194  0.00  0.00    +0.000 C 
ATOM      7  C   UNL     1      37.499  -2.052  16.395  0.00  0.00    +0.000 C 
ATOM      8  C   UNL     1      36.267  -2.751  16.942  0.00  0.00    +0.000 C 
ATOM      9  C   UNL     1      35.457  -1.843  17.842  0.00  0.00    +0.000 C 
ATOM     10  C   UNL     1      34.546  -0.931  17.048  0.00  0.00    +0.000 C 
ENDROOT
BRANCH   1  12
ATOM     11  N   UNL     1      38.246   1.326  13.031  0.00  0.00    +0.000 NA
ATOM     12  C   UNL     1      38.322   1.317  14.447  0.00  0.00    +0.000 C 
ATOM     13  O   UNL     1      39.436   1.374  14.979  0.00  0.00    +0.000 OA
BRANCH  11  17
ATOM     14  C   UNL     1      41.713   1.532  10.570  0.00  0.00    +0.000 A 
ATOM     15  C   UNL     1      41.055   2.667  10.992  0.00  0.00    +0.000 A 
ATOM     16  C   UNL     1      39.931   2.602  11.789  0.00  0.00    +0.000 A 
ATOM     17  C   UNL     1      39.408   1.395  12.206  0.00  0.00    +0.000 A 
ATOM     18  C   UNL     1      40.071   0.262  11.782  0.00  0.00    +0.000 A 
ATOM     19  C   UNL     1      41.196   0.325  10.984  0.00  0.00    +0.000 A 
BRANCH  14  21
ATOM     20  C   UNL     1      43.453   2.804   9.406  0.00  0.00    +0.000 C 
ATOM     21  O   UNL     1      42.850   1.599   9.763  0.00  0.00    +0.000 OA
ENDBRANCH  14  21
ENDBRANCH  11  17
ENDBRANCH   1  12
BRANCH   2  22
ATOM     22  N   UNL     1      36.954   3.763  15.582  0.00  0.00    +0.000 NA
ATOM     23  C   UNL     1      37.791   4.357  16.546  0.00  0.00    +0.000 C 
ATOM     24  O   UNL     1      38.135   3.670  17.542  0.00  0.00    +0.000 OA
BRANCH  23  25
ATOM     25  C   UNL     1      38.279   5.773  16.422  0.00  0.00    +0.000 C 
BRANCH  25  26
ATOM     26  C   UNL     1      39.311   6.018  17.449  0.00  0.00    +0.000 A 
ATOM     27  C   UNL     1      40.647   6.144  17.075  0.00  0.00    +0.000 A 
ATOM     28  C   UNL     1      41.655   6.372  17.981  0.00  0.00    +0.000 A 
ATOM     29  C   UNL     1      41.317   6.480  19.314  0.00  0.00    +0.000 A 
ATOM     30  C   UNL     1      40.008   6.362  19.732  0.00  0.00    +0.000 A 
ATOM     31  C   UNL     1      39.027   6.133  18.791  0.00  0.00    +0.000 A 
ENDBRANCH  25  26
ENDBRANCH  23  25
ENDBRANCH   2  22
TORSDOF 6
ENDMDL
MODEL 7
REMARK VINA RESULT:      -6.5     28.752     31.653
REMARK  Name = 
REMARK  6 active torsions:
REMARK  status: ('A' for Active; 'I' for Inactive)
REMARK    1  A    between atoms: O_2  and  C_3
REMARK    2  A    between atoms: C_6  and  N_7
REMARK    3  A    between atoms: C_8  and  C_10
REMARK    4  A    between atoms: C_11  and  N_12
REMARK    5  A    between atoms: C_13  and  C_15
REMARK    6  A    between atoms: C_15  and  C_16
REMARK                            x       y       z     vdW  Elec       q    Type
REMARK                         _______ _______ _______ _____ _____    ______ ____
ROOT
ATOM      1  C   UNL     1      23.848  16.974  39.459  0.00  0.00    +0.000 A 
ATOM      2  C   UNL     1      24.162  17.305  38.168  0.00  0.00    +0.000 A 
ATOM      3  S   UNL     1      23.639  18.928  38.033  0.00  0.00    +0.000 S 
ATOM      4  C   UNL     1      23.039  19.152  39.603  0.00  0.00    +0.000 A 
ATOM      5  C   UNL     1      23.259  17.956  40.200  0.00  0.00    +0.000 A 
ATOM      6  C   UNL     1      22.871  17.690  41.645  0.00  0.00    +0.000 C 
ATOM      7  C   UNL     1      23.643  18.637  42.521  0.00  0.00    +0.000 C 
ATOM      8  C   UNL     1      22.899  19.961  42.544  0.00  0.00    +0.000 C 
ATOM      9  C   UNL     1      23.233  20.816  41.341  0.00  0.00    +0.000 C 
ATOM     10  C   UNL     1      22.422  20.419  40.125  0.00  0.00    +0.000 C 
ENDROOT
BRANCH   1  12
ATOM     11  N   UNL     1      25.345  15.315  40.685  0.00  0.00    +0.000 NA
ATOM     12  C   UNL     1      24.150  15.616  39.984  0.00  0.00    +0.000 C 
ATOM     13  O   UNL     1      23.327  14.712  39.805  0.00  0.00    +0.000 OA
BRANCH  11  17
ATOM     14  C   UNL     1      26.187  11.419  42.179  0.00  0.00    +0.000 A 
ATOM     15  C   UNL     1      26.600  11.820  40.928  0.00  0.00    +0.000 A 
ATOM     16  C   UNL     1      26.327  13.082  40.441  0.00  0.00    +0.000 A 
ATOM     17  C   UNL     1      25.627  14.009  41.185  0.00  0.00    +0.000 A 
ATOM     18  C   UNL     1      25.215  13.603  42.438  0.00  0.00    +0.000 A 
ATOM     19  C   UNL     1      25.487  12.340  42.927  0.00  0.00    +0.000 A 
BRANCH  14  21
ATOM     20  C   UNL     1      26.983   9.123  41.874  0.00  0.00    +0.000 C 
ATOM     21  O   UNL     1      26.462  10.142  42.670  0.00  0.00    +0.000 OA
ENDBRANCH  14  21
ENDBRANCH  11  17
ENDBRANCH   1  12
BRANCH   2  22
ATOM     22  N   UNL     1      24.790  16.475  37.156  0.00  0.00    +0.000 NA
ATOM     23  C   UNL     1      26.189  16.549  37.023  0.00  0.00    +0.000 C 
ATOM     24  O   UNL     1      26.822  17.326  37.784  0.00  0.00    +0.000 OA
BRANCH  23  25
ATOM     25  C   UNL     1      26.942  15.734  36.009  0.00  0.00    +0.000 C 
BRANCH  25  26
ATOM     26  C   UNL     1      26.194  15.739  34.736  0.00  0.00    +0.000 A 
ATOM     27  C   UNL     1      25.981  14.544  34.052  0.00  0.00    +0.000 A 
ATOM     28  C   UNL     1      25.294  14.480  32.862  0.00  0.00    +0.000 A 
ATOM     29  C   UNL     1      24.798  15.655  32.336  0.00  0.00    +0.000 A 
ATOM     30  C   UNL     1      24.984  16.861  32.978  0.00  0.00    +0.000 A 
ATOM     31  C   UNL     1      25.679  16.882  34.169  0.00  0.00    +0.000 A 
ENDBRANCH  25  26
ENDBRANCH  23  25
ENDBRANCH   2  22
TORSDOF 6
ENDMDL
MODEL 8
REMARK VINA RESULT:      -6.5      2.304      6.555
REMARK  Name = 
REMARK  6 active torsions:
REMARK  status: ('A' for Active; 'I' for Inactive)
REMARK    1  A    between atoms: O_2  and  C_3
REMARK    2  A    between atoms: C_6  and  N_7
REMARK    3  A    between atoms: C_8  and  C_10
REMARK    4  A    between atoms: C_11  and  N_12
REMARK    5  A    between atoms: C_13  and  C_15
REMARK    6  A    between atoms: C_15  and  C_16
REMARK                            x       y       z     vdW  Elec       q    Type
REMARK                         _______ _______ _______ _____ _____    ______ ____
ROOT
ATOM      1  C   UNL     1      37.033   0.052  15.121  0.00  0.00    +0.000 A 
ATOM      2  C   UNL     1      36.263   1.161  14.895  0.00  0.00    +0.000 A 
ATOM      3  S   UNL     1      35.147   1.143  16.191  0.00  0.00    +0.000 S 
ATOM      4  C   UNL     1      35.677  -0.258  16.986  0.00  0.00    +0.000 A 
ATOM      5  C   UNL     1      36.712  -0.684  16.224  0.00  0.00    +0.000 A 
ATOM      6  C   UNL     1      37.507  -1.934  16.563  0.00  0.00    +0.000 C 
ATOM      7  C   UNL     1      38.153  -1.730  17.905  0.00  0.00    +0.000 C 
ATOM      8  C   UNL     1      37.127  -2.068  18.972  0.00  0.00    +0.000 C 
ATOM      9  C   UNL     1      36.201  -0.905  19.252  0.00  0.00    +0.000 C 
ATOM     10  C   UNL     1      35.075  -0.825  18.242  0.00  0.00    +0.000 C 
ENDROOT
BRANCH   1  12
ATOM     11  N   UNL     1      37.950  -1.069  13.023  0.00  0.00    +0.000 NA
ATOM     12  C   UNL     1      38.144  -0.295  14.195  0.00  0.00    +0.000 C 
ATOM     13  O   UNL     1      39.284   0.108  14.455  0.00  0.00    +0.000 OA
BRANCH  11  17
ATOM     14  C   UNL     1      41.149  -2.049  10.391  0.00  0.00    +0.000 A 
ATOM     15  C   UNL     1      40.460  -0.861  10.284  0.00  0.00    +0.000 A 
ATOM     16  C   UNL     1      39.422  -0.542  11.135  0.00  0.00    +0.000 A 
ATOM     17  C   UNL     1      39.022  -1.398  12.140  0.00  0.00    +0.000 A 
ATOM     18  C   UNL     1      39.715  -2.587  12.244  0.00  0.00    +0.000 A 
ATOM     19  C   UNL     1      40.753  -2.908  11.393  0.00  0.00    +0.000 A 
BRANCH  14  21
ATOM     20  C   UNL     1      42.021  -2.537   8.155  0.00  0.00    +0.000 C 
ATOM     21  O   UNL     1      42.197  -2.372   9.528  0.00  0.00    +0.000 OA
ENDBRANCH  14  21
ENDBRANCH  11  17
ENDBRANCH   1  12
BRANCH   2  22
ATOM     22  N   UNL     1      36.369   2.122  13.812  0.00  0.00    +0.000 NA
ATOM     23  C   UNL     1      37.117   3.292  14.045  0.00  0.00    +0.000 C 
ATOM     24  O   UNL     1      37.653   3.444  15.173  0.00  0.00    +0.000 OA
BRANCH  23  25
ATOM     25  C   UNL     1      37.293   4.353  12.996  0.00  0.00    +0.000 C 
BRANCH  25  26
ATOM     26  C   UNL     1      36.106   5.232  12.996  0.00  0.00    +0.000 A 
ATOM     27  C   UNL     1      35.777   5.955  11.852  0.00  0.00    +0.000 A 
ATOM     28  C   UNL     1      34.687   6.790  11.787  0.00  0.00    +0.000 A 
ATOM     29  C   UNL     1      33.892   6.906  12.908  0.00  0.00    +0.000 A 
ATOM     30  C   UNL     1      34.178   6.210  14.063  0.00  0.00    +0.000 A 
ATOM     31  C   UNL     1      35.281   5.383  14.087  0.00  0.00    +0.000 A 
ENDBRANCH  25  26
ENDBRANCH  23  25
ENDBRANCH   2  22
TORSDOF 6
ENDMDL
MODEL 9
REMARK VINA RESULT:      -6.4      4.575      7.334
REMARK  Name = 
REMARK  6 active torsions:
REMARK  status: ('A' for Active; 'I' for Inactive)
REMARK    1  A    between atoms: O_2  and  C_3
REMARK    2  A    between atoms: C_6  and  N_7
REMARK    3  A    between atoms: C_8  and  C_10
REMARK    4  A    between atoms: C_11  and  N_12
REMARK    5  A    between atoms: C_13  and  C_15
REMARK    6  A    between atoms: C_15  and  C_16
REMARK                            x       y       z     vdW  Elec       q    Type
REMARK                         _______ _______ _______ _____ _____    ______ ____
ROOT
ATOM      1  C   UNL     1      36.182   7.390  13.750  0.00  0.00    +0.000 A 
ATOM      2  C   UNL     1      36.046   8.444  14.614  0.00  0.00    +0.000 A 
ATOM      3  S   UNL     1      35.979   9.803  13.579  0.00  0.00    +0.000 S 
ATOM      4  C   UNL     1      36.123   9.015  12.084  0.00  0.00    +0.000 A 
ATOM      5  C   UNL     1      36.221   7.707  12.423  0.00  0.00    +0.000 A 
ATOM      6  C   UNL     1      36.370   6.611  11.382  0.00  0.00    +0.000 C 
ATOM      7  C   UNL     1      35.150   6.628  10.503  0.00  0.00    +0.000 C 
ATOM      8  C   UNL     1      35.358   7.693   9.441  0.00  0.00    +0.000 C 
ATOM      9  C   UNL     1      35.000   9.073   9.948  0.00  0.00    +0.000 C 
ATOM     10  C   UNL     1      36.132   9.692  10.742  0.00  0.00    +0.000 C 
ENDROOT
BRANCH   1  12
ATOM     11  N   UNL     1      35.239   5.048  14.097  0.00  0.00    +0.000 NA
ATOM     12  C   UNL     1      36.277   5.999  14.266  0.00  0.00    +0.000 C 
ATOM     13  O   UNL     1      37.301   5.655  14.865  0.00  0.00    +0.000 OA
BRANCH  11  17
ATOM     14  C   UNL     1      35.534   1.070  15.582  0.00  0.00    +0.000 A 
ATOM     15  C   UNL     1      34.797   2.034  16.234  0.00  0.00    +0.000 A 
ATOM     16  C   UNL     1      34.700   3.324  15.754  0.00  0.00    +0.000 A 
ATOM     17  C   UNL     1      35.338   3.715  14.596  0.00  0.00    +0.000 A 
ATOM     18  C   UNL     1      36.075   2.745  13.946  0.00  0.00    +0.000 A 
ATOM     19  C   UNL     1      36.173   1.454  14.424  0.00  0.00    +0.000 A 
BRANCH  14  21
ATOM     20  C   UNL     1      36.835  -0.792  16.498  0.00  0.00    +0.000 C 
ATOM     21  O   UNL     1      35.632  -0.235  16.069  0.00  0.00    +0.000 OA
ENDBRANCH  14  21
ENDBRANCH  11  17
ENDBRANCH   1  12
BRANCH   2  22
ATOM     22  N   UNL     1      35.975   8.412  16.063  0.00  0.00    +0.000 NA
ATOM     23  C   UNL     1      37.134   8.759  16.784  0.00  0.00    +0.000 C 
ATOM     24  O   UNL     1      38.165   9.078  16.139  0.00  0.00    +0.000 OA
BRANCH  23  25
ATOM     25  C   UNL     1      37.174   8.760  18.286  0.00  0.00    +0.000 C 
BRANCH  25  26
ATOM     26  C   UNL     1      38.206   7.807  18.741  0.00  0.00    +0.000 A 
ATOM     27  C   UNL     1      39.083   8.168  19.762  0.00  0.00    +0.000 A 
ATOM     28  C   UNL     1      40.065   7.328  20.230  0.00  0.00    +0.000 A 
ATOM     29  C   UNL     1      40.176   6.078  19.659  0.00  0.00    +0.000 A 
ATOM     30  C   UNL     1      39.331   5.677  18.646  0.00  0.00    +0.000 A 
ATOM     31  C   UNL     1      38.359   6.549  18.204  0.00  0.00    +0.000 A 
ENDBRANCH  25  26
ENDBRANCH  23  25
ENDBRANCH   2  22
TORSDOF 6
ENDMDL
MODEL 10
REMARK VINA RESULT:      -6.4     24.345     27.540
REMARK  Name = 
REMARK  6 active torsions:
REMARK  status: ('A' for Active; 'I' for Inactive)
REMARK    1  A    between atoms: O_2  and  C_3
REMARK    2  A    between atoms: C_6  and  N_7
REMARK    3  A    between atoms: C_8  and  C_10
REMARK    4  A    between atoms: C_11  and  N_12
REMARK    5  A    between atoms: C_13  and  C_15
REMARK    6  A    between atoms: C_15  and  C_16
REMARK                            x       y       z     vdW  Elec       q    Type
REMARK                         _______ _______ _______ _____ _____    ______ ____
ROOT
ATOM      1  C   UNL     1      12.739   0.523  28.045  0.00  0.00    +0.000 A 
ATOM      2  C   UNL     1      12.247  -0.440  28.885  0.00  0.00    +0.000 A 
ATOM      3  S   UNL     1      10.967   0.353  29.696  0.00  0.00    +0.000 S 
ATOM      4  C   UNL     1      11.080   1.876  28.959  0.00  0.00    +0.000 A 
ATOM      5  C   UNL     1      12.114   1.735  28.095  0.00  0.00    +0.000 A 
ATOM      6  C   UNL     1      12.583   2.872  27.202  0.00  0.00    +0.000 C 
ATOM      7  C   UNL     1      11.449   3.252  26.291  0.00  0.00    +0.000 C 
ATOM      8  C   UNL     1      10.539   4.199  27.053  0.00  0.00    +0.000 C 
ATOM      9  C   UNL     1       9.564   3.454  27.939  0.00  0.00    +0.000 C 
ATOM     10  C   UNL     1      10.194   3.054  29.256  0.00  0.00    +0.000 C 
ENDROOT
BRANCH   1  12
ATOM     11  N   UNL     1      15.222   0.566  27.472  0.00  0.00    +0.000 NA
ATOM     12  C   UNL     1      13.885   0.226  27.145  0.00  0.00    +0.000 C 
ATOM     13  O   UNL     1      13.666  -0.343  26.070  0.00  0.00    +0.000 OA
BRANCH  11  17
ATOM     14  C   UNL     1      18.488  -0.299  24.883  0.00  0.00    +0.000 A 
ATOM     15  C   UNL     1      18.159   0.993  25.228  0.00  0.00    +0.000 A 
ATOM     16  C   UNL     1      17.101   1.275  26.067  0.00  0.00    +0.000 A 
ATOM     17  C   UNL     1      16.316   0.276  26.604  0.00  0.00    +0.000 A 
ATOM     18  C   UNL     1      16.649  -1.017  26.255  0.00  0.00    +0.000 A 
ATOM     19  C   UNL     1      17.708  -1.302  25.416  0.00  0.00    +0.000 A 
BRANCH  14  21
ATOM     20  C   UNL     1      20.538   0.354  23.714  0.00  0.00    +0.000 C 
ATOM     21  O   UNL     1      19.558  -0.584  24.033  0.00  0.00    +0.000 OA
ENDBRANCH  14  21
ENDBRANCH  11  17
ENDBRANCH   1  12
BRANCH   2  22
ATOM     22  N   UNL     1      12.706  -1.807  29.048  0.00  0.00    +0.000 NA
ATOM     23  C   UNL     1      12.043  -2.812  28.317  0.00  0.00    +0.000 C 
ATOM     24  O   UNL     1      11.093  -2.475  27.564  0.00  0.00    +0.000 OA
BRANCH  23  25
ATOM     25  C   UNL     1      12.434  -4.260  28.409  0.00  0.00    +0.000 C 
BRANCH  25  26
ATOM     26  C   UNL     1      12.276  -4.714  29.805  0.00  0.00    +0.000 A 
ATOM     27  C   UNL     1      13.367  -5.243  30.491  0.00  0.00    +0.000 A 
ATOM     28  C   UNL     1      13.286  -5.683  31.791  0.00  0.00    +0.000 A 
ATOM     29  C   UNL     1      12.069  -5.590  32.433  0.00  0.00    +0.000 A 
ATOM     30  C   UNL     1      10.961  -5.074  31.794  0.00  0.00    +0.000 A 
ATOM     31  C   UNL     1      11.084  -4.643  30.490  0.00  0.00    +0.000 A 
ENDBRANCH  25  26
ENDBRANCH  23  25
ENDBRANCH   2  22
TORSDOF 6
ENDMDL
