MODEL 1
REMARK VINA RESULT:      -7.0      0.000      0.000
REMARK  Name = 
REMARK  3 active torsions:
REMARK  status: ('A' for Active; 'I' for Inactive)
REMARK    1  A    between atoms: C_2  and  C_15
REMARK    2  A    between atoms: N_3  and  N_4
REMARK    3  A    between atoms: C_5  and  C_6
REMARK                            x       y       z     vdW  Elec       q    Type
REMARK                         _______ _______ _______ _____ _____    ______ ____
ROOT
ATOM      1  N   UNL     1      16.612  10.962  35.976  0.00  0.00    +0.000 NA
ATOM      2  C   UNL     1      16.641  10.367  34.854  0.00  0.00    +0.000 C 
ENDROOT
BRANCH   2   3
ATOM      3  C   UNL     1      16.131  10.986  33.635  0.00  0.00    +0.000 A 
ATOM      4  C   UNL     1      16.490  10.511  32.391  0.00  0.00    +0.000 A 
ATOM      5  C   UNL     1      15.994  11.112  31.244  0.00  0.00    +0.000 A 
ATOM      6  C   UNL     1      15.127  12.200  31.294  0.00  0.00    +0.000 A 
ATOM      7  C   UNL     1      14.768  12.674  32.535  0.00  0.00    +0.000 A 
ATOM      8  C   UNL     1      15.274  12.060  33.675  0.00  0.00    +0.000 A 
ATOM      9  C   UNL     1      13.847  13.825  32.314  0.00  0.00    +0.000 C 
ATOM     10  C   UNL     1      13.435  13.693  30.843  0.00  0.00    +0.000 C 
ATOM     11  N   UNL     1      14.533  12.925  30.241  0.00  0.00    +0.000 NA
ENDBRANCH   2   3
BRANCH   1  14
ATOM     12  O   UNL     1      15.227  10.955  38.424  0.00  0.00    +0.000 OA
ATOM     13  C   UNL     1      16.364  10.445  38.367  0.00  0.00    +0.000 C 
ATOM     14  N   UNL     1      17.080  10.429  37.176  0.00  0.00    +0.000 NA
BRANCH  13  15
ATOM     15  C   UNL     1      16.899   9.867  39.615  0.00  0.00    +0.000 A 
ATOM     16  C   UNL     1      16.207   9.481  40.730  0.00  0.00    +0.000 A 
ATOM     17  C   UNL     1      16.912   8.980  41.746  0.00  0.00    +0.000 A 
ATOM     18  C   UNL     1      18.262   8.888  41.604  0.00  0.00    +0.000 A 
ATOM     19  S   UNL     1      18.513   9.510  40.037  0.00  0.00    +0.000 S 
ENDBRANCH  13  15
ENDBRANCH   1  14
TORSDOF 3
ENDMDL
MODEL 2
REMARK VINA RESULT:      -6.7      2.872      8.420
REMARK  Name = 
REMARK  3 active torsions:
REMARK  status: ('A' for Active; 'I' for Inactive)
REMARK    1  A    between atoms: C_2  and  C_15
REMARK    2  A    between atoms: N_3  and  N_4
REMARK    3  A    between atoms: C_5  and  C_6
REMARK                            x       y       z     vdW  Elec       q    Type
REMARK                         _______ _______ _______ _____ _____    ______ ____
ROOT
ATOM      1  N   UNL     1      16.672  10.272  35.523  0.00  0.00    +0.000 NA
ATOM      2  C   UNL     1      17.332  10.802  36.472  0.00  0.00    +0.000 C 
ENDROOT
BRANCH   2   3
ATOM      3  C   UNL     1      17.596  10.096  37.721  0.00  0.00    +0.000 A 
ATOM      4  C   UNL     1      18.709   9.295  37.866  0.00  0.00    +0.000 A 
ATOM      5  C   UNL     1      18.943   8.632  39.061  0.00  0.00    +0.000 A 
ATOM      6  C   UNL     1      18.082   8.744  40.150  0.00  0.00    +0.000 A 
ATOM      7  C   UNL     1      16.971   9.543  40.007  0.00  0.00    +0.000 A 
ATOM      8  C   UNL     1      16.751  10.199  38.801  0.00  0.00    +0.000 A 
ATOM      9  C   UNL     1      16.226   9.492  41.296  0.00  0.00    +0.000 C 
ATOM     10  C   UNL     1      17.235   8.895  42.284  0.00  0.00    +0.000 C 
ATOM     11  N   UNL     1      18.165   8.149  41.426  0.00  0.00    +0.000 NA
ENDBRANCH   2   3
BRANCH   1  14
ATOM     12  O   UNL     1      14.515  12.008  35.031  0.00  0.00    +0.000 OA
ATOM     13  C   UNL     1      15.307  11.744  34.104  0.00  0.00    +0.000 C 
ATOM     14  N   UNL     1      16.385  10.891  34.308  0.00  0.00    +0.000 NA
BRANCH  13  15
ATOM     15  C   UNL     1      15.040  12.379  32.800  0.00  0.00    +0.000 A 
ATOM     16  C   UNL     1      14.117  13.343  32.504  0.00  0.00    +0.000 A 
ATOM     17  C   UNL     1      14.058  13.769  31.241  0.00  0.00    +0.000 A 
ATOM     18  C   UNL     1      14.914  13.217  30.339  0.00  0.00    +0.000 A 
ATOM     19  S   UNL     1      15.789  12.107  31.291  0.00  0.00    +0.000 S 
ENDBRANCH  13  15
ENDBRANCH   1  14
TORSDOF 3
ENDMDL
MODEL 3
REMARK VINA RESULT:      -6.3      4.976      7.649
REMARK  Name = 
REMARK  3 active torsions:
REMARK  status: ('A' for Active; 'I' for Inactive)
REMARK    1  A    between atoms: C_2  and  C_15
REMARK    2  A    between atoms: N_3  and  N_4
REMARK    3  A    between atoms: C_5  and  C_6
REMARK                            x       y       z     vdW  Elec       q    Type
REMARK                         _______ _______ _______ _____ _____    ______ ____
ROOT
ATOM      1  N   UNL     1      18.231  10.801  37.319  0.00  0.00    +0.000 NA
ATOM      2  C   UNL     1      19.028  11.201  38.224  0.00  0.00    +0.000 C 
ENDROOT
BRANCH   2   3
ATOM      3  C   UNL     1      20.469  11.278  38.009  0.00  0.00    +0.000 A 
ATOM      4  C   UNL     1      21.220  12.291  38.568  0.00  0.00    +0.000 A 
ATOM      5  C   UNL     1      22.588  12.348  38.352  0.00  0.00    +0.000 A 
ATOM      6  C   UNL     1      23.255  11.403  37.577  0.00  0.00    +0.000 A 
ATOM      7  C   UNL     1      22.507  10.391  37.019  0.00  0.00    +0.000 A 
ATOM      8  C   UNL     1      21.136  10.350  37.245  0.00  0.00    +0.000 A 
ATOM      9  C   UNL     1      23.445   9.527  36.249  0.00  0.00    +0.000 C 
ATOM     10  C   UNL     1      24.832   9.943  36.754  0.00  0.00    +0.000 C 
ATOM     11  N   UNL     1      24.625  11.307  37.258  0.00  0.00    +0.000 NA
ENDBRANCH   2   3
BRANCH   1  14
ATOM     12  O   UNL     1      16.381  12.874  36.881  0.00  0.00    +0.000 OA
ATOM     13  C   UNL     1      15.965  11.752  37.233  0.00  0.00    +0.000 C 
ATOM     14  N   UNL     1      16.848  10.702  37.459  0.00  0.00    +0.000 NA
BRANCH  13  15
ATOM     15  C   UNL     1      14.506  11.603  37.394  0.00  0.00    +0.000 A 
ATOM     16  C   UNL     1      13.515  12.093  36.590  0.00  0.00    +0.000 A 
ATOM     17  C   UNL     1      12.255  11.828  36.938  0.00  0.00    +0.000 A 
ATOM     18  C   UNL     1      12.044  11.091  38.063  0.00  0.00    +0.000 A 
ATOM     19  S   UNL     1      13.629  10.786  38.608  0.00  0.00    +0.000 S 
ENDBRANCH  13  15
ENDBRANCH   1  14
TORSDOF 3
ENDMDL
MODEL 4
REMARK VINA RESULT:      -6.2     22.564     25.344
REMARK  Name = 
REMARK  3 active torsions:
REMARK  status: ('A' for Active; 'I' for Inactive)
REMARK    1  A    between atoms: C_2  and  C_15
REMARK    2  A    between atoms: N_3  and  N_4
REMARK    3  A    between atoms: C_5  and  C_6
REMARK                            x       y       z     vdW  Elec       q    Type
REMARK                         _______ _______ _______ _____ _____    ______ ____
ROOT
ATOM      1  N   UNL     1      29.674  25.044  21.052  0.00  0.00    +0.000 NA
ATOM      2  C   UNL     1      28.658  24.416  21.487  0.00  0.00    +0.000 C 
ENDROOT
BRANCH   2   3
ATOM      3  C   UNL     1      28.605  23.869  22.838  0.00  0.00    +0.000 A 
ATOM      4  C   UNL     1      27.401  23.568  23.438  0.00  0.00    +0.000 A 
ATOM      5  C   UNL     1      27.371  23.047  24.724  0.00  0.00    +0.000 A 
ATOM      6  C   UNL     1      28.532  22.807  25.452  0.00  0.00    +0.000 A 
ATOM      7  C   UNL     1      29.735  23.107  24.854  0.00  0.00    +0.000 A 
ATOM      8  C   UNL     1      29.747  23.628  23.565  0.00  0.00    +0.000 A 
ATOM      9  C   UNL     1      30.808  22.763  25.829  0.00  0.00    +0.000 C 
ATOM     10  C   UNL     1      30.096  21.890  26.870  0.00  0.00    +0.000 C 
ATOM     11  N   UNL     1      28.686  22.288  26.754  0.00  0.00    +0.000 NA
ENDBRANCH   2   3
BRANCH   1  14
ATOM     12  O   UNL     1      29.762  27.787  20.438  0.00  0.00    +0.000 OA
ATOM     13  C   UNL     1      29.830  26.954  19.512  0.00  0.00    +0.000 C 
ATOM     14  N   UNL     1      29.789  25.590  19.775  0.00  0.00    +0.000 NA
BRANCH  13  15
ATOM     15  C   UNL     1      29.953  27.489  18.143  0.00  0.00    +0.000 A 
ATOM     16  C   UNL     1      31.031  27.419  17.304  0.00  0.00    +0.000 A 
ATOM     17  C   UNL     1      30.908  27.981  16.100  0.00  0.00    +0.000 A 
ATOM     18  C   UNL     1      29.726  28.580  15.791  0.00  0.00    +0.000 A 
ATOM     19  S   UNL     1      28.809  28.340  17.207  0.00  0.00    +0.000 S 
ENDBRANCH  13  15
ENDBRANCH   1  14
TORSDOF 3
ENDMDL
MODEL 5
REMARK VINA RESULT:      -6.1      1.407      2.168
REMARK  Name = 
REMARK  3 active torsions:
REMARK  status: ('A' for Active; 'I' for Inactive)
REMARK    1  A    between atoms: C_2  and  C_15
REMARK    2  A    between atoms: N_3  and  N_4
REMARK    3  A    between atoms: C_5  and  C_6
REMARK                            x       y       z     vdW  Elec       q    Type
REMARK                         _______ _______ _______ _____ _____    ______ ____
ROOT
ATOM      1  N   UNL     1      16.552  11.046  37.148  0.00  0.00    +0.000 NA
ATOM      2  C   UNL     1      16.517  10.861  35.891  0.00  0.00    +0.000 C 
ENDROOT
BRANCH   2   3
ATOM      3  C   UNL     1      15.716  11.699  35.006  0.00  0.00    +0.000 A 
ATOM      4  C   UNL     1      14.908  12.697  35.507  0.00  0.00    +0.000 A 
ATOM      5  C   UNL     1      14.153  13.483  34.650  0.00  0.00    +0.000 A 
ATOM      6  C   UNL     1      14.177  13.306  33.269  0.00  0.00    +0.000 A 
ATOM      7  C   UNL     1      14.984  12.310  32.767  0.00  0.00    +0.000 A 
ATOM      8  C   UNL     1      15.733  11.530  33.641  0.00  0.00    +0.000 A 
ATOM      9  C   UNL     1      14.831  12.327  31.286  0.00  0.00    +0.000 C 
ATOM     10  C   UNL     1      14.160  13.676  30.998  0.00  0.00    +0.000 C 
ATOM     11  N   UNL     1      13.484  14.005  32.260  0.00  0.00    +0.000 NA
ENDBRANCH   2   3
BRANCH   1  14
ATOM     12  O   UNL     1      15.685  10.187  39.681  0.00  0.00    +0.000 OA
ATOM     13  C   UNL     1      16.830   9.878  39.293  0.00  0.00    +0.000 C 
ATOM     14  N   UNL     1      17.295  10.284  38.048  0.00  0.00    +0.000 NA
BRANCH  13  15
ATOM     15  C   UNL     1      17.650   9.069  40.214  0.00  0.00    +0.000 A 
ATOM     16  C   UNL     1      18.865   9.383  40.758  0.00  0.00    +0.000 A 
ATOM     17  C   UNL     1      19.422   8.486  41.574  0.00  0.00    +0.000 A 
ATOM     18  C   UNL     1      18.748   7.328  41.807  0.00  0.00    +0.000 A 
ATOM     19  S   UNL     1      17.338   7.526  40.871  0.00  0.00    +0.000 S 
ENDBRANCH  13  15
ENDBRANCH   1  14
TORSDOF 3
ENDMDL
MODEL 6
REMARK VINA RESULT:      -6.0      2.822      3.589
REMARK  Name = 
REMARK  3 active torsions:
REMARK  status: ('A' for Active; 'I' for Inactive)
REMARK    1  A    between atoms: C_2  and  C_15
REMARK    2  A    between atoms: N_3  and  N_4
REMARK    3  A    between atoms: C_5  and  C_6
REMARK                            x       y       z     vdW  Elec       q    Type
REMARK                         _______ _______ _______ _____ _____    ______ ____
ROOT
ATOM      1  N   UNL     1      18.163  10.242  36.929  0.00  0.00    +0.000 NA
ATOM      2  C   UNL     1      17.770   9.792  35.808  0.00  0.00    +0.000 C 
ENDROOT
BRANCH   2   3
ATOM      3  C   UNL     1      16.884  10.553  34.934  0.00  0.00    +0.000 A 
ATOM      4  C   UNL     1      15.939  11.413  35.452  0.00  0.00    +0.000 A 
ATOM      5  C   UNL     1      15.106  12.129  34.605  0.00  0.00    +0.000 A 
ATOM      6  C   UNL     1      15.184  12.015  33.220  0.00  0.00    +0.000 A 
ATOM      7  C   UNL     1      16.128  11.157  32.701  0.00  0.00    +0.000 A 
ATOM      8  C   UNL     1      16.954  10.448  33.565  0.00  0.00    +0.000 A 
ATOM      9  C   UNL     1      16.007  11.218  31.218  0.00  0.00    +0.000 C 
ATOM     10  C   UNL     1      15.168  12.477  30.965  0.00  0.00    +0.000 C 
ATOM     11  N   UNL     1      14.427  12.660  32.220  0.00  0.00    +0.000 NA
ENDBRANCH   2   3
BRANCH   1  14
ATOM     12  O   UNL     1      20.754  11.049  37.668  0.00  0.00    +0.000 OA
ATOM     13  C   UNL     1      20.283  10.000  38.150  0.00  0.00    +0.000 C 
ATOM     14  N   UNL     1      19.007   9.567  37.809  0.00  0.00    +0.000 NA
BRANCH  13  15
ATOM     15  C   UNL     1      21.143   9.253  39.088  0.00  0.00    +0.000 A 
ATOM     16  C   UNL     1      22.506   9.145  39.079  0.00  0.00    +0.000 A 
ATOM     17  C   UNL     1      23.069   8.409  40.038  0.00  0.00    +0.000 A 
ATOM     18  C   UNL     1      22.254   7.820  40.955  0.00  0.00    +0.000 A 
ATOM     19  S   UNL     1      20.706   8.317  40.446  0.00  0.00    +0.000 S 
ENDBRANCH  13  15
ENDBRANCH   1  14
TORSDOF 3
ENDMDL
MODEL 7
REMARK VINA RESULT:      -6.0     21.956     23.683
REMARK  Name = 
REMARK  3 active torsions:
REMARK  status: ('A' for Active; 'I' for Inactive)
REMARK    1  A    between atoms: C_2  and  C_15
REMARK    2  A    between atoms: N_3  and  N_4
REMARK    3  A    between atoms: C_5  and  C_6
REMARK                            x       y       z     vdW  Elec       q    Type
REMARK                         _______ _______ _______ _____ _____    ______ ____
ROOT
ATOM      1  N   UNL     1      23.290  -7.862  24.416  0.00  0.00    +0.000 NA
ATOM      2  C   UNL     1      22.386  -8.446  25.091  0.00  0.00    +0.000 C 
ENDROOT
BRANCH   2   3
ATOM      3  C   UNL     1      21.183  -7.753  25.539  0.00  0.00    +0.000 A 
ATOM      4  C   UNL     1      21.021  -6.399  25.333  0.00  0.00    +0.000 A 
ATOM      5  C   UNL     1      19.871  -5.758  25.767  0.00  0.00    +0.000 A 
ATOM      6  C   UNL     1      18.844  -6.439  26.415  0.00  0.00    +0.000 A 
ATOM      7  C   UNL     1      19.004  -7.790  26.622  0.00  0.00    +0.000 A 
ATOM      8  C   UNL     1      20.164  -8.417  26.181  0.00  0.00    +0.000 A 
ATOM      9  C   UNL     1      17.783  -8.273  27.325  0.00  0.00    +0.000 C 
ATOM     10  C   UNL     1      16.774  -7.133  27.143  0.00  0.00    +0.000 C 
ATOM     11  N   UNL     1      17.619  -5.952  26.916  0.00  0.00    +0.000 NA
ENDBRANCH   2   3
BRANCH   1  14
ATOM     12  O   UNL     1      25.475  -6.532  23.248  0.00  0.00    +0.000 OA
ATOM     13  C   UNL     1      25.520  -7.771  23.386  0.00  0.00    +0.000 C 
ATOM     14  N   UNL     1      24.460  -8.464  23.958  0.00  0.00    +0.000 NA
BRANCH  13  15
ATOM     15  C   UNL     1      26.743  -8.450  22.916  0.00  0.00    +0.000 A 
ATOM     16  C   UNL     1      27.812  -7.903  22.261  0.00  0.00    +0.000 A 
ATOM     17  C   UNL     1      28.813  -8.722  21.932  0.00  0.00    +0.000 A 
ATOM     18  C   UNL     1      28.703 -10.035  22.269  0.00  0.00    +0.000 A 
ATOM     19  S   UNL     1      27.187 -10.092  23.045  0.00  0.00    +0.000 S 
ENDBRANCH  13  15
ENDBRANCH   1  14
TORSDOF 3
ENDMDL
MODEL 8
REMARK VINA RESULT:      -6.0      2.110      3.138
REMARK  Name = 
REMARK  3 active torsions:
REMARK  status: ('A' for Active; 'I' for Inactive)
REMARK    1  A    between atoms: C_2  and  C_15
REMARK    2  A    between atoms: N_3  and  N_4
REMARK    3  A    between atoms: C_5  and  C_6
REMARK                            x       y       z     vdW  Elec       q    Type
REMARK                         _______ _______ _______ _____ _____    ______ ____
ROOT
ATOM      1  N   UNL     1      16.855   9.974  38.777  0.00  0.00    +0.000 NA
ATOM      2  C   UNL     1      17.701   9.846  37.838  0.00  0.00    +0.000 C 
ENDROOT
BRANCH   2   3
ATOM      3  C   UNL     1      17.390  10.210  36.459  0.00  0.00    +0.000 A 
ATOM      4  C   UNL     1      18.116   9.696  35.406  0.00  0.00    +0.000 A 
ATOM      5  C   UNL     1      17.805  10.054  34.102  0.00  0.00    +0.000 A 
ATOM      6  C   UNL     1      16.766  10.930  33.803  0.00  0.00    +0.000 A 
ATOM      7  C   UNL     1      16.040  11.443  34.854  0.00  0.00    +0.000 A 
ATOM      8  C   UNL     1      16.365  11.074  36.154  0.00  0.00    +0.000 A 
ATOM      9  C   UNL     1      15.003  12.340  34.273  0.00  0.00    +0.000 C 
ATOM     10  C   UNL     1      14.984  11.970  32.785  0.00  0.00    +0.000 C 
ATOM     11  N   UNL     1      16.316  11.396  32.551  0.00  0.00    +0.000 NA
ENDBRANCH   2   3
BRANCH   1  14
ATOM     12  O   UNL     1      14.878   9.499  40.721  0.00  0.00    +0.000 OA
ATOM     13  C   UNL     1      16.081   9.418  41.043  0.00  0.00    +0.000 C 
ATOM     14  N   UNL     1      17.087   9.645  40.111  0.00  0.00    +0.000 NA
BRANCH  13  15
ATOM     15  C   UNL     1      16.372   9.071  42.447  0.00  0.00    +0.000 A 
ATOM     16  C   UNL     1      16.025   7.935  43.124  0.00  0.00    +0.000 A 
ATOM     17  C   UNL     1      16.402   7.842  44.401  0.00  0.00    +0.000 A 
ATOM     18  C   UNL     1      17.102   8.878  44.937  0.00  0.00    +0.000 A 
ATOM     19  S   UNL     1      17.216   9.964  43.630  0.00  0.00    +0.000 S 
ENDBRANCH  13  15
ENDBRANCH   1  14
TORSDOF 3
ENDMDL
MODEL 9
REMARK VINA RESULT:      -5.9      5.641      6.646
REMARK  Name = 
REMARK  3 active torsions:
REMARK  status: ('A' for Active; 'I' for Inactive)
REMARK    1  A    between atoms: C_2  and  C_15
REMARK    2  A    between atoms: N_3  and  N_4
REMARK    3  A    between atoms: C_5  and  C_6
REMARK                            x       y       z     vdW  Elec       q    Type
REMARK                         _______ _______ _______ _____ _____    ______ ____
ROOT
ATOM      1  N   UNL     1      21.283   9.833  36.893  0.00  0.00    +0.000 NA
ATOM      2  C   UNL     1      20.154   9.863  37.474  0.00  0.00    +0.000 C 
ENDROOT
BRANCH   2   3
ATOM      3  C   UNL     1      18.925  10.200  36.763  0.00  0.00    +0.000 A 
ATOM      4  C   UNL     1      18.553   9.521  35.622  0.00  0.00    +0.000 A 
ATOM      5  C   UNL     1      17.381   9.856  34.960  0.00  0.00    +0.000 A 
ATOM      6  C   UNL     1      16.541  10.870  35.409  0.00  0.00    +0.000 A 
ATOM      7  C   UNL     1      16.910  11.548  36.549  0.00  0.00    +0.000 A 
ATOM      8  C   UNL     1      18.089  11.200  37.199  0.00  0.00    +0.000 A 
ATOM      9  C   UNL     1      15.858  12.568  36.813  0.00  0.00    +0.000 C 
ATOM     10  C   UNL     1      14.685  12.129  35.927  0.00  0.00    +0.000 C 
ATOM     11  N   UNL     1      15.326  11.337  34.868  0.00  0.00    +0.000 NA
ENDBRANCH   2   3
BRANCH   1  14
ATOM     12  O   UNL     1      23.842  10.198  35.784  0.00  0.00    +0.000 OA
ATOM     13  C   UNL     1      23.739   9.717  36.931  0.00  0.00    +0.000 C 
ATOM     14  N   UNL     1      22.492   9.521  37.513  0.00  0.00    +0.000 NA
BRANCH  13  15
ATOM     15  C   UNL     1      24.994   9.372  37.624  0.00  0.00    +0.000 A 
ATOM     16  C   UNL     1      26.248   9.868  37.393  0.00  0.00    +0.000 A 
ATOM     17  C   UNL     1      27.241   9.403  38.154  0.00  0.00    +0.000 A 
ATOM     18  C   UNL     1      26.939   8.474  39.101  0.00  0.00    +0.000 A 
ATOM     19  S   UNL     1      25.259   8.273  38.901  0.00  0.00    +0.000 S 
ENDBRANCH  13  15
ENDBRANCH   1  14
TORSDOF 3
ENDMDL
MODEL 10
REMARK VINA RESULT:      -5.9     19.915     21.644
REMARK  Name = 
REMARK  3 active torsions:
REMARK  status: ('A' for Active; 'I' for Inactive)
REMARK    1  A    between atoms: C_2  and  C_15
REMARK    2  A    between atoms: N_3  and  N_4
REMARK    3  A    between atoms: C_5  and  C_6
REMARK                            x       y       z     vdW  Elec       q    Type
REMARK                         _______ _______ _______ _____ _____    ______ ____
ROOT
ATOM      1  N   UNL     1      33.738  -0.573  33.827  0.00  0.00    +0.000 NA
ATOM      2  C   UNL     1      33.831   0.502  33.154  0.00  0.00    +0.000 C 
ENDROOT
BRANCH   2   3
ATOM      3  C   UNL     1      33.741   1.817  33.779  0.00  0.00    +0.000 A 
ATOM      4  C   UNL     1      33.478   2.945  33.031  0.00  0.00    +0.000 A 
ATOM      5  C   UNL     1      33.397   4.187  33.643  0.00  0.00    +0.000 A 
ATOM      6  C   UNL     1      33.572   4.349  35.014  0.00  0.00    +0.000 A 
ATOM      7  C   UNL     1      33.834   3.224  35.762  0.00  0.00    +0.000 A 
ATOM      8  C   UNL     1      33.913   1.987  35.133  0.00  0.00    +0.000 A 
ATOM      9  C   UNL     1      33.978   3.663  37.178  0.00  0.00    +0.000 C 
ATOM     10  C   UNL     1      33.391   5.080  37.189  0.00  0.00    +0.000 C 
ATOM     11  N   UNL     1      33.523   5.522  35.794  0.00  0.00    +0.000 NA
ENDBRANCH   2   3
BRANCH   1  14
ATOM     12  O   UNL     1      32.429  -2.850  34.831  0.00  0.00    +0.000 OA
ATOM     13  C   UNL     1      33.150  -2.960  33.819  0.00  0.00    +0.000 C 
ATOM     14  N   UNL     1      33.813  -1.858  33.293  0.00  0.00    +0.000 NA
BRANCH  13  15
ATOM     15  C   UNL     1      33.258  -4.304  33.221  0.00  0.00    +0.000 A 
ATOM     16  C   UNL     1      33.495  -4.629  31.914  0.00  0.00    +0.000 A 
ATOM     17  C   UNL     1      33.551  -5.925  31.605  0.00  0.00    +0.000 A 
ATOM     18  C   UNL     1      33.369  -6.830  32.605  0.00  0.00    +0.000 A 
ATOM     19  S   UNL     1      33.124  -5.833  33.965  0.00  0.00    +0.000 S 
ENDBRANCH  13  15
ENDBRANCH   1  14
TORSDOF 3
ENDMDL
