MODEL 1
REMARK VINA RESULT:      -7.1      0.000      0.000
REMARK  Name = 
REMARK  3 active torsions:
REMARK  status: ('A' for Active; 'I' for Inactive)
REMARK    1  A    between atoms: C_2  and  C_11
REMARK    2  A    between atoms: N_3  and  N_4
REMARK    3  A    between atoms: N_4  and  C_5
REMARK                            x       y       z     vdW  Elec       q    Type
REMARK                         _______ _______ _______ _____ _____    ______ ____
ROOT
ATOM      1  O   UNL     1      15.050  13.208  35.034  0.00  0.00    +0.000 OA
ATOM      2  C   UNL     1      14.803  11.977  35.193  0.00  0.00    +0.000 C 
ATOM      3  N   UNL     1      15.106  11.042  34.209  0.00  0.00    +0.000 NA
ENDROOT
BRANCH   2   4
ATOM      4  C   UNL     1      14.183  11.583  36.460  0.00  0.00    +0.000 A 
ATOM      5  C   UNL     1      12.819  11.531  36.615  0.00  0.00    +0.000 A 
ATOM      6  C   UNL     1      12.262  11.152  37.821  0.00  0.00    +0.000 A 
ATOM      7  C   UNL     1      13.098  10.820  38.867  0.00  0.00    +0.000 A 
ATOM      8  C   UNL     1      14.476  10.874  38.702  0.00  0.00    +0.000 A 
ATOM      9  C   UNL     1      15.029  11.253  37.504  0.00  0.00    +0.000 A 
ATOM     10 BR   UNL     1      16.938  11.335  37.254  0.00  0.00    +0.000 Br
ENDBRANCH   2   4
BRANCH   3  11
ATOM     11  N   UNL     1      15.676  11.264  33.016  0.00  0.00    +0.000 NA
BRANCH  11  12
ATOM     12  C   UNL     1      15.428  12.165  31.981  0.00  0.00    +0.000 C 
ATOM     13  C   UNL     1      16.400  12.711  31.241  0.00  0.00    +0.000 C 
ATOM     14  C   UNL     1      16.014  13.672  30.160  0.00  0.00    +0.000 C 
ATOM     15  C   UNL     1      15.132  14.716  30.832  0.00  0.00    +0.000 C 
ATOM     16  C   UNL     1      13.989  14.115  31.583  0.00  0.00    +0.000 C 
ATOM     17  C   UNL     1      14.051  12.579  31.646  0.00  0.00    +0.000 C 
ENDBRANCH  11  12
ENDBRANCH   3  11
TORSDOF 3
ENDMDL
MODEL 2
REMARK VINA RESULT:      -6.9      1.895      2.576
REMARK  Name = 
REMARK  3 active torsions:
REMARK  status: ('A' for Active; 'I' for Inactive)
REMARK    1  A    between atoms: C_2  and  C_11
REMARK    2  A    between atoms: N_3  and  N_4
REMARK    3  A    between atoms: N_4  and  C_5
REMARK                            x       y       z     vdW  Elec       q    Type
REMARK                         _______ _______ _______ _____ _____    ______ ____
ROOT
ATOM      1  O   UNL     1      17.472  12.160  34.178  0.00  0.00    +0.000 OA
ATOM      2  C   UNL     1      16.807  11.135  34.511  0.00  0.00    +0.000 C 
ATOM      3  N   UNL     1      16.100  10.392  33.573  0.00  0.00    +0.000 NA
ENDROOT
BRANCH   2   4
ATOM      4  C   UNL     1      16.819  10.770  35.929  0.00  0.00    +0.000 A 
ATOM      5  C   UNL     1      17.808   9.983  36.468  0.00  0.00    +0.000 A 
ATOM      6  C   UNL     1      17.795   9.658  37.811  0.00  0.00    +0.000 A 
ATOM      7  C   UNL     1      16.775  10.142  38.604  0.00  0.00    +0.000 A 
ATOM      8  C   UNL     1      15.780  10.938  38.053  0.00  0.00    +0.000 A 
ATOM      9  C   UNL     1      15.792  11.259  36.718  0.00  0.00    +0.000 A 
ATOM     10 BR   UNL     1      14.421  12.360  35.931  0.00  0.00    +0.000 Br
ENDBRANCH   2   4
BRANCH   3  11
ATOM     11  N   UNL     1      16.011  10.611  32.253  0.00  0.00    +0.000 NA
BRANCH  11  12
ATOM     12  C   UNL     1      15.580  11.687  31.480  0.00  0.00    +0.000 C 
ATOM     13  C   UNL     1      16.412  12.616  30.993  0.00  0.00    +0.000 C 
ATOM     14  C   UNL     1      15.833  13.732  30.181  0.00  0.00    +0.000 C 
ATOM     15  C   UNL     1      14.721  14.330  31.034  0.00  0.00    +0.000 C 
ATOM     16  C   UNL     1      13.735  13.310  31.502  0.00  0.00    +0.000 C 
ATOM     17  C   UNL     1      14.150  11.869  31.157  0.00  0.00    +0.000 C 
ENDBRANCH  11  12
ENDBRANCH   3  11
TORSDOF 3
ENDMDL
MODEL 3
REMARK VINA RESULT:      -6.8      3.116      6.037
REMARK  Name = 
REMARK  3 active torsions:
REMARK  status: ('A' for Active; 'I' for Inactive)
REMARK    1  A    between atoms: C_2  and  C_11
REMARK    2  A    between atoms: N_3  and  N_4
REMARK    3  A    between atoms: N_4  and  C_5
REMARK                            x       y       z     vdW  Elec       q    Type
REMARK                         _______ _______ _______ _____ _____    ______ ____
ROOT
ATOM      1  O   UNL     1      14.302  11.485  36.075  0.00  0.00    +0.000 OA
ATOM      2  C   UNL     1      15.042  12.357  35.530  0.00  0.00    +0.000 C 
ATOM      3  N   UNL     1      16.276  12.703  36.071  0.00  0.00    +0.000 NA
ENDROOT
BRANCH   2   4
ATOM      4  C   UNL     1      14.539  12.982  34.305  0.00  0.00    +0.000 A 
ATOM      5  C   UNL     1      13.733  14.094  34.336  0.00  0.00    +0.000 A 
ATOM      6  C   UNL     1      13.277  14.665  33.164  0.00  0.00    +0.000 A 
ATOM      7  C   UNL     1      13.649  14.105  31.960  0.00  0.00    +0.000 A 
ATOM      8  C   UNL     1      14.466  12.982  31.936  0.00  0.00    +0.000 A 
ATOM      9  C   UNL     1      14.917  12.413  33.102  0.00  0.00    +0.000 A 
ATOM     10 BR   UNL     1      16.050  10.854  33.092  0.00  0.00    +0.000 Br
ENDBRANCH   2   4
BRANCH   3  11
ATOM     11  N   UNL     1      16.854  12.208  37.176  0.00  0.00    +0.000 NA
BRANCH  11  12
ATOM     12  C   UNL     1      17.808  11.219  37.405  0.00  0.00    +0.000 C 
ATOM     13  C   UNL     1      18.900  11.417  38.152  0.00  0.00    +0.000 C 
ATOM     14  C   UNL     1      19.860  10.281  38.322  0.00  0.00    +0.000 C 
ATOM     15  C   UNL     1      20.192   9.807  36.913  0.00  0.00    +0.000 C 
ATOM     16  C   UNL     1      18.976   9.493  36.104  0.00  0.00    +0.000 C 
ATOM     17  C   UNL     1      17.666   9.873  36.815  0.00  0.00    +0.000 C 
ENDBRANCH  11  12
ENDBRANCH   3  11
TORSDOF 3
ENDMDL
MODEL 4
REMARK VINA RESULT:      -6.1     22.356     23.417
REMARK  Name = 
REMARK  3 active torsions:
REMARK  status: ('A' for Active; 'I' for Inactive)
REMARK    1  A    between atoms: C_2  and  C_11
REMARK    2  A    between atoms: N_3  and  N_4
REMARK    3  A    between atoms: N_4  and  C_5
REMARK                            x       y       z     vdW  Elec       q    Type
REMARK                         _______ _______ _______ _____ _____    ______ ____
ROOT
ATOM      1  O   UNL     1      20.505  -8.573  24.150  0.00  0.00    +0.000 OA
ATOM      2  C   UNL     1      20.898  -8.008  25.213  0.00  0.00    +0.000 C 
ATOM      3  N   UNL     1      22.194  -8.175  25.688  0.00  0.00    +0.000 NA
ENDROOT
BRANCH   2   4
ATOM      4  C   UNL     1      19.925  -7.171  25.918  0.00  0.00    +0.000 A 
ATOM      5  C   UNL     1      19.898  -5.805  25.768  0.00  0.00    +0.000 A 
ATOM      6  C   UNL     1      18.965  -5.042  26.442  0.00  0.00    +0.000 A 
ATOM      7  C   UNL     1      18.055  -5.673  27.264  0.00  0.00    +0.000 A 
ATOM      8  C   UNL     1      18.087  -7.053  27.410  0.00  0.00    +0.000 A 
ATOM      9  C   UNL     1      19.016  -7.812  26.741  0.00  0.00    +0.000 A 
ATOM     10 BR   UNL     1      19.079  -9.729  26.929  0.00  0.00    +0.000 Br
ENDBRANCH   2   4
BRANCH   3  11
ATOM     11  N   UNL     1      23.180  -8.902  25.142  0.00  0.00    +0.000 NA
BRANCH  11  12
ATOM     12  C   UNL     1      24.069  -8.688  24.091  0.00  0.00    +0.000 C 
ATOM     13  C   UNL     1      24.927  -9.620  23.659  0.00  0.00    +0.000 C 
ATOM     14  C   UNL     1      25.841  -9.272  22.526  0.00  0.00    +0.000 C 
ATOM     15  C   UNL     1      26.537  -7.981  22.938  0.00  0.00    +0.000 C 
ATOM     16  C   UNL     1      25.579  -6.905  23.332  0.00  0.00    +0.000 C 
ATOM     17  C   UNL     1      24.120  -7.390  23.390  0.00  0.00    +0.000 C 
ENDBRANCH  11  12
ENDBRANCH   3  11
TORSDOF 3
ENDMDL
MODEL 5
REMARK VINA RESULT:      -5.8     24.337     25.651
REMARK  Name = 
REMARK  3 active torsions:
REMARK  status: ('A' for Active; 'I' for Inactive)
REMARK    1  A    between atoms: C_2  and  C_11
REMARK    2  A    between atoms: N_3  and  N_4
REMARK    3  A    between atoms: N_4  and  C_5
REMARK                            x       y       z     vdW  Elec       q    Type
REMARK                         _______ _______ _______ _____ _____    ______ ____
ROOT
ATOM      1  O   UNL     1      32.151  -5.927  32.521  0.00  0.00    +0.000 OA
ATOM      2  C   UNL     1      33.130  -5.377  31.936  0.00  0.00    +0.000 C 
ATOM      3  N   UNL     1      33.785  -4.282  32.489  0.00  0.00    +0.000 NA
ENDROOT
BRANCH   2   4
ATOM      4  C   UNL     1      33.540  -5.948  30.651  0.00  0.00    +0.000 A 
ATOM      5  C   UNL     1      32.997  -5.524  29.462  0.00  0.00    +0.000 A 
ATOM      6  C   UNL     1      33.406  -6.077  28.265  0.00  0.00    +0.000 A 
ATOM      7  C   UNL     1      34.375  -7.059  28.280  0.00  0.00    +0.000 A 
ATOM      8  C   UNL     1      34.920  -7.481  29.485  0.00  0.00    +0.000 A 
ATOM      9  C   UNL     1      34.511  -6.932  30.676  0.00  0.00    +0.000 A 
ATOM     10 BR   UNL     1      35.254  -7.504  32.359  0.00  0.00    +0.000 Br
ENDBRANCH   2   4
BRANCH   3  11
ATOM     11  N   UNL     1      33.518  -3.669  33.652  0.00  0.00    +0.000 NA
BRANCH  11  12
ATOM     12  C   UNL     1      33.161  -2.367  33.997  0.00  0.00    +0.000 C 
ATOM     13  C   UNL     1      33.777  -1.287  33.503  0.00  0.00    +0.000 C 
ATOM     14  C   UNL     1      33.310   0.063  33.952  0.00  0.00    +0.000 C 
ATOM     15  C   UNL     1      33.331   0.021  35.475  0.00  0.00    +0.000 C 
ATOM     16  C   UNL     1      32.564  -1.133  36.035  0.00  0.00    +0.000 C 
ATOM     17  C   UNL     1      32.067  -2.106  34.953  0.00  0.00    +0.000 C 
ENDBRANCH  11  12
ENDBRANCH   3  11
TORSDOF 3
ENDMDL
MODEL 6
REMARK VINA RESULT:      -5.6     24.064     25.351
REMARK  Name = 
REMARK  3 active torsions:
REMARK  status: ('A' for Active; 'I' for Inactive)
REMARK    1  A    between atoms: C_2  and  C_11
REMARK    2  A    between atoms: N_3  and  N_4
REMARK    3  A    between atoms: N_4  and  C_5
REMARK                            x       y       z     vdW  Elec       q    Type
REMARK                         _______ _______ _______ _____ _____    ______ ____
ROOT
ATOM      1  O   UNL     1      34.841  -5.675  33.021  0.00  0.00    +0.000 OA
ATOM      2  C   UNL     1      34.048  -5.104  32.215  0.00  0.00    +0.000 C 
ATOM      3  N   UNL     1      33.478  -3.870  32.507  0.00  0.00    +0.000 NA
ENDROOT
BRANCH   2   4
ATOM      4  C   UNL     1      33.761  -5.804  30.961  0.00  0.00    +0.000 A 
ATOM      5  C   UNL     1      34.513  -5.603  29.828  0.00  0.00    +0.000 A 
ATOM      6  C   UNL     1      34.221  -6.281  28.661  0.00  0.00    +0.000 A 
ATOM      7  C   UNL     1      33.166  -7.169  28.651  0.00  0.00    +0.000 A 
ATOM      8  C   UNL     1      32.411  -7.369  29.799  0.00  0.00    +0.000 A 
ATOM      9  C   UNL     1      32.701  -6.693  30.959  0.00  0.00    +0.000 A 
ATOM     10 BR   UNL     1      31.666  -6.953  32.564  0.00  0.00    +0.000 Br
ENDBRANCH   2   4
BRANCH   3  11
ATOM     11  N   UNL     1      33.658  -3.125  33.607  0.00  0.00    +0.000 NA
BRANCH  11  12
ATOM     12  C   UNL     1      33.331  -1.814  33.949  0.00  0.00    +0.000 C 
ATOM     13  C   UNL     1      33.913  -0.747  33.390  0.00  0.00    +0.000 C 
ATOM     14  C   UNL     1      33.484   0.614  33.843  0.00  0.00    +0.000 C 
ATOM     15  C   UNL     1      33.613   0.604  35.361  0.00  0.00    +0.000 C 
ATOM     16  C   UNL     1      32.884  -0.534  35.998  0.00  0.00    +0.000 C 
ATOM     17  C   UNL     1      32.308  -1.528  34.975  0.00  0.00    +0.000 C 
ENDBRANCH  11  12
ENDBRANCH   3  11
TORSDOF 3
ENDMDL
MODEL 7
REMARK VINA RESULT:      -5.5     23.334     24.506
REMARK  Name = 
REMARK  3 active torsions:
REMARK  status: ('A' for Active; 'I' for Inactive)
REMARK    1  A    between atoms: C_2  and  C_11
REMARK    2  A    between atoms: N_3  and  N_4
REMARK    3  A    between atoms: N_4  and  C_5
REMARK                            x       y       z     vdW  Elec       q    Type
REMARK                         _______ _______ _______ _____ _____    ______ ____
ROOT
ATOM      1  O   UNL     1      34.985  -2.214  34.882  0.00  0.00    +0.000 OA
ATOM      2  C   UNL     1      34.173  -1.840  33.986  0.00  0.00    +0.000 C 
ATOM      3  N   UNL     1      33.488  -2.759  33.198  0.00  0.00    +0.000 NA
ENDROOT
BRANCH   2   4
ATOM      4  C   UNL     1      33.988  -0.397  33.818  0.00  0.00    +0.000 A 
ATOM      5  C   UNL     1      34.303   0.243  32.643  0.00  0.00    +0.000 A 
ATOM      6  C   UNL     1      34.113   1.605  32.512  0.00  0.00    +0.000 A 
ATOM      7  C   UNL     1      33.596   2.312  33.578  0.00  0.00    +0.000 A 
ATOM      8  C   UNL     1      33.279   1.658  34.761  0.00  0.00    +0.000 A 
ATOM      9  C   UNL     1      33.469   0.304  34.891  0.00  0.00    +0.000 A 
ATOM     10 BR   UNL     1      33.037  -0.623  36.524  0.00  0.00    +0.000 Br
ENDBRANCH   2   4
BRANCH   3  11
ATOM     11  N   UNL     1      33.559  -4.097  33.250  0.00  0.00    +0.000 NA
BRANCH  11  12
ATOM     12  C   UNL     1      33.779  -5.090  32.298  0.00  0.00    +0.000 C 
ATOM     13  C   UNL     1      34.991  -5.593  32.033  0.00  0.00    +0.000 C 
ATOM     14  C   UNL     1      35.105  -6.653  30.982  0.00  0.00    +0.000 C 
ATOM     15  C   UNL     1      34.423  -6.083  29.745  0.00  0.00    +0.000 C 
ATOM     16  C   UNL     1      33.033  -5.607  30.015  0.00  0.00    +0.000 C 
ATOM     17  C   UNL     1      32.663  -5.647  31.507  0.00  0.00    +0.000 C 
ENDBRANCH  11  12
ENDBRANCH   3  11
TORSDOF 3
ENDMDL
MODEL 8
REMARK VINA RESULT:      -5.5     20.172     22.687
REMARK  Name = 
REMARK  3 active torsions:
REMARK  status: ('A' for Active; 'I' for Inactive)
REMARK    1  A    between atoms: C_2  and  C_11
REMARK    2  A    between atoms: N_3  and  N_4
REMARK    3  A    between atoms: N_4  and  C_5
REMARK                            x       y       z     vdW  Elec       q    Type
REMARK                         _______ _______ _______ _____ _____    ______ ____
ROOT
ATOM      1  O   UNL     1      30.119  25.769  23.659  0.00  0.00    +0.000 OA
ATOM      2  C   UNL     1      29.803  24.562  23.445  0.00  0.00    +0.000 C 
ATOM      3  N   UNL     1      29.590  24.084  22.156  0.00  0.00    +0.000 NA
ENDROOT
BRANCH   2   4
ATOM      4  C   UNL     1      29.671  23.693  24.616  0.00  0.00    +0.000 A 
ATOM      5  C   UNL     1      30.756  23.068  25.182  0.00  0.00    +0.000 A 
ATOM      6  C   UNL     1      30.603  22.257  26.290  0.00  0.00    +0.000 A 
ATOM      7  C   UNL     1      29.342  22.089  26.824  0.00  0.00    +0.000 A 
ATOM      8  C   UNL     1      28.250  22.725  26.247  0.00  0.00    +0.000 A 
ATOM      9  C   UNL     1      28.403  23.529  25.145  0.00  0.00    +0.000 A 
ATOM     10 BR   UNL     1      26.902  24.420  24.329  0.00  0.00    +0.000 Br
ENDBRANCH   2   4
BRANCH   3  11
ATOM     11  N   UNL     1      29.682  24.766  21.004  0.00  0.00    +0.000 NA
BRANCH  11  12
ATOM     12  C   UNL     1      29.241  26.020  20.587  0.00  0.00    +0.000 C 
ATOM     13  C   UNL     1      29.940  26.800  19.754  0.00  0.00    +0.000 C 
ATOM     14  C   UNL     1      29.367  28.132  19.380  0.00  0.00    +0.000 C 
ATOM     15  C   UNL     1      29.041  28.824  20.697  0.00  0.00    +0.000 C 
ATOM     16  C   UNL     1      28.181  27.994  21.593  0.00  0.00    +0.000 C 
ATOM     17  C   UNL     1      27.954  26.569  21.059  0.00  0.00    +0.000 C 
ENDBRANCH  11  12
ENDBRANCH   3  11
TORSDOF 3
ENDMDL
MODEL 9
REMARK VINA RESULT:      -5.4     21.689     22.748
REMARK  Name = 
REMARK  3 active torsions:
REMARK  status: ('A' for Active; 'I' for Inactive)
REMARK    1  A    between atoms: C_2  and  C_11
REMARK    2  A    between atoms: N_3  and  N_4
REMARK    3  A    between atoms: N_4  and  C_5
REMARK                            x       y       z     vdW  Elec       q    Type
REMARK                         _______ _______ _______ _____ _____    ______ ____
ROOT
ATOM      1  O   UNL     1      17.359  -9.232  27.944  0.00  0.00    +0.000 OA
ATOM      2  C   UNL     1      17.118  -8.550  26.904  0.00  0.00    +0.000 C 
ATOM      3  N   UNL     1      16.041  -8.845  26.076  0.00  0.00    +0.000 NA
ENDROOT
BRANCH   2   4
ATOM      4  C   UNL     1      18.025  -7.437  26.616  0.00  0.00    +0.000 A 
ATOM      5  C   UNL     1      17.775  -6.162  27.064  0.00  0.00    +0.000 A 
ATOM      6  C   UNL     1      18.651  -5.133  26.780  0.00  0.00    +0.000 A 
ATOM      7  C   UNL     1      19.786  -5.406  26.045  0.00  0.00    +0.000 A 
ATOM      8  C   UNL     1      20.033  -6.697  25.597  0.00  0.00    +0.000 A 
ATOM      9  C   UNL     1      19.160  -7.719  25.878  0.00  0.00    +0.000 A 
ATOM     10 BR   UNL     1      19.482  -9.518  25.265  0.00  0.00    +0.000 Br
ENDBRANCH   2   4
BRANCH   3  11
ATOM     11  N   UNL     1      15.136  -9.824  26.225  0.00  0.00    +0.000 NA
BRANCH  11  12
ATOM     12  C   UNL     1      13.758  -9.842  26.430  0.00  0.00    +0.000 C 
ATOM     13  C   UNL     1      12.971  -8.787  26.189  0.00  0.00    +0.000 C 
ATOM     14  C   UNL     1      11.503  -8.922  26.453  0.00  0.00    +0.000 C 
ATOM     15  C   UNL     1      11.387  -9.425  27.886  0.00  0.00    +0.000 C 
ATOM     16  C   UNL     1      12.191 -10.659  28.136  0.00  0.00    +0.000 C 
ATOM     17  C   UNL     1      13.081 -11.049  26.943  0.00  0.00    +0.000 C 
ENDBRANCH  11  12
ENDBRANCH   3  11
TORSDOF 3
ENDMDL
MODEL 10
REMARK VINA RESULT:      -5.4     21.712     22.662
REMARK  Name = 
REMARK  3 active torsions:
REMARK  status: ('A' for Active; 'I' for Inactive)
REMARK    1  A    between atoms: C_2  and  C_11
REMARK    2  A    between atoms: N_3  and  N_4
REMARK    3  A    between atoms: N_4  and  C_5
REMARK                            x       y       z     vdW  Elec       q    Type
REMARK                         _______ _______ _______ _____ _____    ______ ____
ROOT
ATOM      1  O   UNL     1      35.527  -0.166  36.536  0.00  0.00    +0.000 OA
ATOM      2  C   UNL     1      34.356  -0.168  36.055  0.00  0.00    +0.000 C 
ATOM      3  N   UNL     1      33.591   0.992  36.002  0.00  0.00    +0.000 NA
ENDROOT
BRANCH   2   4
ATOM      4  C   UNL     1      33.845  -1.447  35.557  0.00  0.00    +0.000 A 
ATOM      5  C   UNL     1      33.463  -2.456  36.408  0.00  0.00    +0.000 A 
ATOM      6  C   UNL     1      32.980  -3.650  35.909  0.00  0.00    +0.000 A 
ATOM      7  C   UNL     1      32.881  -3.812  34.543  0.00  0.00    +0.000 A 
ATOM      8  C   UNL     1      33.268  -2.787  33.690  0.00  0.00    +0.000 A 
ATOM      9  C   UNL     1      33.749  -1.600  34.186  0.00  0.00    +0.000 A 
ATOM     10 BR   UNL     1      34.292  -0.166  33.020  0.00  0.00    +0.000 Br
ENDBRANCH   2   4
BRANCH   3  11
ATOM     11  N   UNL     1      33.937   2.221  36.414  0.00  0.00    +0.000 NA
BRANCH  11  12
ATOM     12  C   UNL     1      34.258   3.405  35.755  0.00  0.00    +0.000 C 
ATOM     13  C   UNL     1      35.027   4.358  36.297  0.00  0.00    +0.000 C 
ATOM     14  C   UNL     1      35.299   5.592  35.495  0.00  0.00    +0.000 C 
ATOM     15  C   UNL     1      33.934   6.114  35.065  0.00  0.00    +0.000 C 
ATOM     16  C   UNL     1      33.107   5.080  34.374  0.00  0.00    +0.000 C 
ATOM     17  C   UNL     1      33.750   3.682  34.396  0.00  0.00    +0.000 C 
ENDBRANCH  11  12
ENDBRANCH   3  11
TORSDOF 3
ENDMDL
