MODEL 1
REMARK VINA RESULT:      -6.9      0.000      0.000
REMARK  Name = 
REMARK  4 active torsions:
REMARK  status: ('A' for Active; 'I' for Inactive)
REMARK    1  A    between atoms: C_2  and  C_3
REMARK    2  A    between atoms: C_3  and  C_4
REMARK    3  A    between atoms: C_4  and  C_5
REMARK    4  A    between atoms: N_11  and  C_12
REMARK                            x       y       z     vdW  Elec       q    Type
REMARK                         _______ _______ _______ _____ _____    ______ ____
ROOT
ATOM      1  O   UNL     1      16.708   9.415  34.682  0.00  0.00    +0.000 OA
ATOM      2  C   UNL     1      16.819  10.622  34.415  0.00  0.00    +0.000 C 
ATOM      3  N   UNL     1      16.795  11.561  35.480  0.00  0.00    +0.000 NA
ENDROOT
BRANCH   3   4
ATOM      4  C   UNL     1      16.643  11.075  36.805  0.00  0.00    +0.000 A 
ATOM      5  C   UNL     1      17.690  10.515  37.490  0.00  0.00    +0.000 A 
ATOM      6  C   UNL     1      17.445  10.066  38.782  0.00  0.00    +0.000 A 
ATOM      7  C   UNL     1      16.219  10.162  39.387  0.00  0.00    +0.000 A 
ATOM      8  O   UNL     1      15.977   9.710  40.689  0.00  0.00    +0.000 OA
ATOM      9  C   UNL     1      15.178  10.730  38.680  0.00  0.00    +0.000 A 
ATOM     10  C   UNL     1      15.390  11.186  37.391  0.00  0.00    +0.000 A 
ENDBRANCH   3   4
BRANCH   2  11
ATOM     11  C   UNL     1      16.976  11.064  33.007  0.00  0.00    +0.000 C 
BRANCH  11  12
ATOM     12  C   UNL     1      15.789  11.910  32.621  0.00  0.00    +0.000 C 
BRANCH  12  13
ATOM     13  C   UNL     1      15.752  12.049  31.137  0.00  0.00    +0.000 C 
ATOM     14  C   UNL     1      16.655  13.102  30.589  0.00  0.00    +0.000 C 
ATOM     15  C   UNL     1      15.857  14.367  30.362  0.00  0.00    +0.000 C 
ATOM     16  C   UNL     1      14.635  14.394  31.260  0.00  0.00    +0.000 C 
ATOM     17  C   UNL     1      13.658  13.296  30.919  0.00  0.00    +0.000 C 
ATOM     18  C   UNL     1      14.388  12.020  30.538  0.00  0.00    +0.000 C 
ENDBRANCH  12  13
ENDBRANCH  11  12
ENDBRANCH   2  11
TORSDOF 4
ENDMDL
MODEL 2
REMARK VINA RESULT:      -6.3     27.451     30.062
REMARK  Name = 
REMARK  4 active torsions:
REMARK  status: ('A' for Active; 'I' for Inactive)
REMARK    1  A    between atoms: C_2  and  C_3
REMARK    2  A    between atoms: C_3  and  C_4
REMARK    3  A    between atoms: C_4  and  C_5
REMARK    4  A    between atoms: N_11  and  C_12
REMARK                            x       y       z     vdW  Elec       q    Type
REMARK                         _______ _______ _______ _____ _____    ______ ____
ROOT
ATOM      1  O   UNL     1      30.932  20.326  13.032  0.00  0.00    +0.000 OA
ATOM      2  C   UNL     1      31.700  21.121  12.468  0.00  0.00    +0.000 C 
ATOM      3  N   UNL     1      31.194  22.383  12.057  0.00  0.00    +0.000 NA
ENDROOT
BRANCH   3   4
ATOM      4  C   UNL     1      29.829  22.678  12.312  0.00  0.00    +0.000 A 
ATOM      5  C   UNL     1      29.433  23.312  13.461  0.00  0.00    +0.000 A 
ATOM      6  C   UNL     1      28.075  23.558  13.622  0.00  0.00    +0.000 A 
ATOM      7  C   UNL     1      27.135  23.199  12.693  0.00  0.00    +0.000 A 
ATOM      8  O   UNL     1      25.767  23.449  12.859  0.00  0.00    +0.000 OA
ATOM      9  C   UNL     1      27.554  22.561  11.542  0.00  0.00    +0.000 A 
ATOM     10  C   UNL     1      28.900  22.302  11.352  0.00  0.00    +0.000 A 
ENDBRANCH   3   4
BRANCH   2  11
ATOM     11  C   UNL     1      33.118  20.750  12.232  0.00  0.00    +0.000 C 
BRANCH  11  12
ATOM     12  C   UNL     1      33.265  20.242  10.820  0.00  0.00    +0.000 C 
BRANCH  12  13
ATOM     13  C   UNL     1      34.471  20.864  10.203  0.00  0.00    +0.000 C 
ATOM     14  C   UNL     1      34.781  22.239  10.694  0.00  0.00    +0.000 C 
ATOM     15  C   UNL     1      34.212  23.249   9.724  0.00  0.00    +0.000 C 
ATOM     16  C   UNL     1      33.059  22.649   8.944  0.00  0.00    +0.000 C 
ATOM     17  C   UNL     1      33.508  21.518   8.051  0.00  0.00    +0.000 C 
ATOM     18  C   UNL     1      34.584  20.687   8.728  0.00  0.00    +0.000 C 
ENDBRANCH  12  13
ENDBRANCH  11  12
ENDBRANCH   2  11
TORSDOF 4
ENDMDL
MODEL 3
REMARK VINA RESULT:      -6.1      2.521      8.167
REMARK  Name = 
REMARK  4 active torsions:
REMARK  status: ('A' for Active; 'I' for Inactive)
REMARK    1  A    between atoms: C_2  and  C_3
REMARK    2  A    between atoms: C_3  and  C_4
REMARK    3  A    between atoms: C_4  and  C_5
REMARK    4  A    between atoms: N_11  and  C_12
REMARK                            x       y       z     vdW  Elec       q    Type
REMARK                         _______ _______ _______ _____ _____    ______ ____
ROOT
ATOM      1  O   UNL     1      18.152  12.041  37.160  0.00  0.00    +0.000 OA
ATOM      2  C   UNL     1      17.896  10.875  37.499  0.00  0.00    +0.000 C 
ATOM      3  N   UNL     1      17.059  10.090  36.662  0.00  0.00    +0.000 NA
ENDROOT
BRANCH   3   4
ATOM      4  C   UNL     1      16.553  10.678  35.473  0.00  0.00    +0.000 A 
ATOM      5  C   UNL     1      15.511  11.569  35.499  0.00  0.00    +0.000 A 
ATOM      6  C   UNL     1      15.084  12.090  34.284  0.00  0.00    +0.000 A 
ATOM      7  C   UNL     1      15.654  11.755  33.084  0.00  0.00    +0.000 A 
ATOM      8  O   UNL     1      15.220  12.283  31.862  0.00  0.00    +0.000 OA
ATOM      9  C   UNL     1      16.701  10.856  33.080  0.00  0.00    +0.000 A 
ATOM     10  C   UNL     1      17.150  10.318  34.273  0.00  0.00    +0.000 A 
ENDBRANCH   3   4
BRANCH   2  11
ATOM     11  C   UNL     1      18.458  10.321  38.756  0.00  0.00    +0.000 C 
BRANCH  11  12
ATOM     12  C   UNL     1      17.349   9.684  39.553  0.00  0.00    +0.000 C 
BRANCH  12  13
ATOM     13  C   UNL     1      17.941   8.938  40.701  0.00  0.00    +0.000 C 
ATOM     14  C   UNL     1      17.863   7.452  40.583  0.00  0.00    +0.000 C 
ATOM     15  C   UNL     1      16.660   6.960  41.356  0.00  0.00    +0.000 C 
ATOM     16  C   UNL     1      15.624   8.059  41.487  0.00  0.00    +0.000 C 
ATOM     17  C   UNL     1      16.127   9.214  42.318  0.00  0.00    +0.000 C 
ATOM     18  C   UNL     1      17.597   9.478  42.046  0.00  0.00    +0.000 C 
ENDBRANCH  12  13
ENDBRANCH  11  12
ENDBRANCH   2  11
TORSDOF 4
ENDMDL
MODEL 4
REMARK VINA RESULT:      -6.0     19.111     20.778
REMARK  Name = 
REMARK  4 active torsions:
REMARK  status: ('A' for Active; 'I' for Inactive)
REMARK    1  A    between atoms: C_2  and  C_3
REMARK    2  A    between atoms: C_3  and  C_4
REMARK    3  A    between atoms: C_4  and  C_5
REMARK    4  A    between atoms: N_11  and  C_12
REMARK                            x       y       z     vdW  Elec       q    Type
REMARK                         _______ _______ _______ _____ _____    ______ ____
ROOT
ATOM      1  O   UNL     1      34.028   2.527  35.469  0.00  0.00    +0.000 OA
ATOM      2  C   UNL     1      33.696   2.956  34.353  0.00  0.00    +0.000 C 
ATOM      3  N   UNL     1      33.230   2.034  33.379  0.00  0.00    +0.000 NA
ENDROOT
BRANCH   3   4
ATOM      4  C   UNL     1      33.165   0.659  33.727  0.00  0.00    +0.000 A 
ATOM      5  C   UNL     1      32.216   0.182  34.594  0.00  0.00    +0.000 A 
ATOM      6  C   UNL     1      32.232  -1.179  34.875  0.00  0.00    +0.000 A 
ATOM      7  C   UNL     1      33.142  -2.045  34.329  0.00  0.00    +0.000 A 
ATOM      8  O   UNL     1      33.154  -3.416  34.615  0.00  0.00    +0.000 OA
ATOM      9  C   UNL     1      34.089  -1.544  33.459  0.00  0.00    +0.000 A 
ATOM     10  C   UNL     1      34.101  -0.193  33.158  0.00  0.00    +0.000 A 
ENDBRANCH   3   4
BRANCH   2  11
ATOM     11  C   UNL     1      33.788   4.407  34.053  0.00  0.00    +0.000 C 
BRANCH  11  12
ATOM     12  C   UNL     1      33.400   5.189  35.282  0.00  0.00    +0.000 C 
BRANCH  12  13
ATOM     13  C   UNL     1      34.323   6.350  35.432  0.00  0.00    +0.000 C 
ATOM     14  C   UNL     1      35.681   6.142  34.849  0.00  0.00    +0.000 C 
ATOM     15  C   UNL     1      36.629   5.713  35.946  0.00  0.00    +0.000 C 
ATOM     16  C   UNL     1      35.867   5.067  37.087  0.00  0.00    +0.000 C 
ATOM     17  C   UNL     1      34.948   6.044  37.778  0.00  0.00    +0.000 C 
ATOM     18  C   UNL     1      34.311   6.992  36.777  0.00  0.00    +0.000 C 
ENDBRANCH  12  13
ENDBRANCH  11  12
ENDBRANCH   2  11
TORSDOF 4
ENDMDL
MODEL 5
REMARK VINA RESULT:      -5.8     19.070     20.715
REMARK  Name = 
REMARK  4 active torsions:
REMARK  status: ('A' for Active; 'I' for Inactive)
REMARK    1  A    between atoms: C_2  and  C_3
REMARK    2  A    between atoms: C_3  and  C_4
REMARK    3  A    between atoms: C_4  and  C_5
REMARK    4  A    between atoms: N_11  and  C_12
REMARK                            x       y       z     vdW  Elec       q    Type
REMARK                         _______ _______ _______ _____ _____    ______ ____
ROOT
ATOM      1  O   UNL     1      34.362   3.411  35.389  0.00  0.00    +0.000 OA
ATOM      2  C   UNL     1      33.730   4.032  34.519  0.00  0.00    +0.000 C 
ATOM      3  N   UNL     1      33.181   3.307  33.428  0.00  0.00    +0.000 NA
ENDROOT
BRANCH   3   4
ATOM      4  C   UNL     1      33.380   1.902  33.382  0.00  0.00    +0.000 A 
ATOM      5  C   UNL     1      34.313   1.335  32.553  0.00  0.00    +0.000 A 
ATOM      6  C   UNL     1      34.435  -0.049  32.577  0.00  0.00    +0.000 A 
ATOM      7  C   UNL     1      33.674  -0.853  33.385  0.00  0.00    +0.000 A 
ATOM      8  O   UNL     1      33.801  -2.247  33.406  0.00  0.00    +0.000 OA
ATOM      9  C   UNL     1      32.741  -0.262  34.213  0.00  0.00    +0.000 A 
ATOM     10  C   UNL     1      32.594   1.114  34.211  0.00  0.00    +0.000 A 
ENDBRANCH   3   4
BRANCH   2  11
ATOM     11  C   UNL     1      33.559   5.502  34.627  0.00  0.00    +0.000 C 
BRANCH  11  12
ATOM     12  C   UNL     1      34.908   6.141  34.837  0.00  0.00    +0.000 C 
BRANCH  12  13
ATOM     13  C   UNL     1      34.768   7.264  35.807  0.00  0.00    +0.000 C 
ATOM     14  C   UNL     1      35.951   8.172  35.880  0.00  0.00    +0.000 C 
ATOM     15  C   UNL     1      36.819   7.756  37.047  0.00  0.00    +0.000 C 
ATOM     16  C   UNL     1      36.595   6.295  37.384  0.00  0.00    +0.000 C 
ATOM     17  C   UNL     1      35.193   6.038  37.880  0.00  0.00    +0.000 C 
ATOM     18  C   UNL     1      34.185   6.887  37.125  0.00  0.00    +0.000 C 
ENDBRANCH  12  13
ENDBRANCH  11  12
ENDBRANCH   2  11
TORSDOF 4
ENDMDL
MODEL 6
REMARK VINA RESULT:      -5.8     21.319     23.109
REMARK  Name = 
REMARK  4 active torsions:
REMARK  status: ('A' for Active; 'I' for Inactive)
REMARK    1  A    between atoms: C_2  and  C_3
REMARK    2  A    between atoms: C_3  and  C_4
REMARK    3  A    between atoms: C_4  and  C_5
REMARK    4  A    between atoms: N_11  and  C_12
REMARK                            x       y       z     vdW  Elec       q    Type
REMARK                         _______ _______ _______ _____ _____    ______ ____
ROOT
ATOM      1  O   UNL     1      22.106  -7.994  25.608  0.00  0.00    +0.000 OA
ATOM      2  C   UNL     1      21.630  -6.965  25.102  0.00  0.00    +0.000 C 
ATOM      3  N   UNL     1      22.291  -6.386  23.987  0.00  0.00    +0.000 NA
ENDROOT
BRANCH   3   4
ATOM      4  C   UNL     1      23.469  -7.013  23.500  0.00  0.00    +0.000 A 
ATOM      5  C   UNL     1      24.715  -6.613  23.907  0.00  0.00    +0.000 A 
ATOM      6  C   UNL     1      25.809  -7.285  23.376  0.00  0.00    +0.000 A 
ATOM      7  C   UNL     1      25.691  -8.314  22.478  0.00  0.00    +0.000 A 
ATOM      8  O   UNL     1      26.796  -8.988  21.945  0.00  0.00    +0.000 OA
ATOM      9  C   UNL     1      24.426  -8.701  22.082  0.00  0.00    +0.000 A 
ATOM     10  C   UNL     1      23.317  -8.051  22.592  0.00  0.00    +0.000 A 
ENDBRANCH   3   4
BRANCH   2  11
ATOM     11  C   UNL     1      20.394  -6.361  25.660  0.00  0.00    +0.000 C 
BRANCH  11  12
ATOM     12  C   UNL     1      19.321  -7.418  25.737  0.00  0.00    +0.000 C 
BRANCH  12  13
ATOM     13  C   UNL     1      18.667  -7.349  27.075  0.00  0.00    +0.000 C 
ATOM     14  C   UNL     1      18.797  -8.590  27.894  0.00  0.00    +0.000 C 
ATOM     15  C   UNL     1      17.545  -9.422  27.730  0.00  0.00    +0.000 C 
ATOM     16  C   UNL     1      16.858  -9.098  26.418  0.00  0.00    +0.000 C 
ATOM     17  C   UNL     1      16.343  -7.679  26.385  0.00  0.00    +0.000 C 
ATOM     18  C   UNL     1      17.310  -6.735  27.080  0.00  0.00    +0.000 C 
ENDBRANCH  12  13
ENDBRANCH  11  12
ENDBRANCH   2  11
TORSDOF 4
ENDMDL
MODEL 7
REMARK VINA RESULT:      -5.7     27.710     30.014
REMARK  Name = 
REMARK  4 active torsions:
REMARK  status: ('A' for Active; 'I' for Inactive)
REMARK    1  A    between atoms: C_2  and  C_3
REMARK    2  A    between atoms: C_3  and  C_4
REMARK    3  A    between atoms: C_4  and  C_5
REMARK    4  A    between atoms: N_11  and  C_12
REMARK                            x       y       z     vdW  Elec       q    Type
REMARK                         _______ _______ _______ _____ _____    ______ ____
ROOT
ATOM      1  O   UNL     1      30.705  23.033  10.873  0.00  0.00    +0.000 OA
ATOM      2  C   UNL     1      30.889  22.238  11.809  0.00  0.00    +0.000 C 
ATOM      3  N   UNL     1      29.803  21.943  12.676  0.00  0.00    +0.000 NA
ENDROOT
BRANCH   3   4
ATOM      4  C   UNL     1      28.554  22.572  12.431  0.00  0.00    +0.000 A 
ATOM      5  C   UNL     1      27.740  22.177  11.401  0.00  0.00    +0.000 A 
ATOM      6  C   UNL     1      26.537  22.853  11.240  0.00  0.00    +0.000 A 
ATOM      7  C   UNL     1      26.139  23.879  12.057  0.00  0.00    +0.000 A 
ATOM      8  O   UNL     1      24.926  24.556  11.892  0.00  0.00    +0.000 OA
ATOM      9  C   UNL     1      26.974  24.260  13.089  0.00  0.00    +0.000 A 
ATOM     10  C   UNL     1      28.179  23.608  13.276  0.00  0.00    +0.000 A 
ENDBRANCH   3   4
BRANCH   2  11
ATOM     11  C   UNL     1      32.221  21.615  12.009  0.00  0.00    +0.000 C 
BRANCH  11  12
ATOM     12  C   UNL     1      32.841  21.337  10.663  0.00  0.00    +0.000 C 
BRANCH  12  13
ATOM     13  C   UNL     1      33.734  20.149  10.776  0.00  0.00    +0.000 C 
ATOM     14  C   UNL     1      34.553  20.103  12.023  0.00  0.00    +0.000 C 
ATOM     15  C   UNL     1      35.930  20.655  11.728  0.00  0.00    +0.000 C 
ATOM     16  C   UNL     1      35.887  21.588  10.534  0.00  0.00    +0.000 C 
ATOM     17  C   UNL     1      35.518  20.863   9.262  0.00  0.00    +0.000 C 
ATOM     18  C   UNL     1      34.471  19.797   9.530  0.00  0.00    +0.000 C 
ENDBRANCH  12  13
ENDBRANCH  11  12
ENDBRANCH   2  11
TORSDOF 4
ENDMDL
MODEL 8
REMARK VINA RESULT:      -5.7     22.302     24.267
REMARK  Name = 
REMARK  4 active torsions:
REMARK  status: ('A' for Active; 'I' for Inactive)
REMARK    1  A    between atoms: C_2  and  C_3
REMARK    2  A    between atoms: C_3  and  C_4
REMARK    3  A    between atoms: C_4  and  C_5
REMARK    4  A    between atoms: N_11  and  C_12
REMARK                            x       y       z     vdW  Elec       q    Type
REMARK                         _______ _______ _______ _____ _____    ______ ____
ROOT
ATOM      1  O   UNL     1      33.941  -6.060  33.401  0.00  0.00    +0.000 OA
ATOM      2  C   UNL     1      33.783  -4.847  33.189  0.00  0.00    +0.000 C 
ATOM      3  N   UNL     1      33.439  -4.423  31.878  0.00  0.00    +0.000 NA
ENDROOT
BRANCH   3   4
ATOM      4  C   UNL     1      33.293  -5.409  30.866  0.00  0.00    +0.000 A 
ATOM      5  C   UNL     1      32.223  -6.267  30.848  0.00  0.00    +0.000 A 
ATOM      6  C   UNL     1      32.166  -7.199  29.819  0.00  0.00    +0.000 A 
ATOM      7  C   UNL     1      33.120  -7.290  28.840  0.00  0.00    +0.000 A 
ATOM      8  O   UNL     1      33.059  -8.230  27.804  0.00  0.00    +0.000 OA
ATOM      9  C   UNL     1      34.189  -6.417  28.876  0.00  0.00    +0.000 A 
ATOM     10  C   UNL     1      34.275  -5.478  29.888  0.00  0.00    +0.000 A 
ENDBRANCH   3   4
BRANCH   2  11
ATOM     11  C   UNL     1      33.950  -3.868  34.292  0.00  0.00    +0.000 C 
BRANCH  11  12
ATOM     12  C   UNL     1      33.314  -2.562  33.891  0.00  0.00    +0.000 C 
BRANCH  12  13
ATOM     13  C   UNL     1      34.347  -1.487  33.922  0.00  0.00    +0.000 C 
ATOM     14  C   UNL     1      34.963  -1.256  35.262  0.00  0.00    +0.000 C 
ATOM     15  C   UNL     1      34.262  -0.097  35.933  0.00  0.00    +0.000 C 
ATOM     16  C   UNL     1      32.861   0.073  35.379  0.00  0.00    +0.000 C 
ATOM     17  C   UNL     1      32.873   0.465  33.922  0.00  0.00    +0.000 C 
ATOM     18  C   UNL     1      33.988  -0.249  33.176  0.00  0.00    +0.000 C 
ENDBRANCH  12  13
ENDBRANCH  11  12
ENDBRANCH   2  11
TORSDOF 4
ENDMDL
MODEL 9
REMARK VINA RESULT:      -5.7     20.144     21.258
REMARK  Name = 
REMARK  4 active torsions:
REMARK  status: ('A' for Active; 'I' for Inactive)
REMARK    1  A    between atoms: C_2  and  C_3
REMARK    2  A    between atoms: C_3  and  C_4
REMARK    3  A    between atoms: C_4  and  C_5
REMARK    4  A    between atoms: N_11  and  C_12
REMARK                            x       y       z     vdW  Elec       q    Type
REMARK                         _______ _______ _______ _____ _____    ______ ____
ROOT
ATOM      1  O   UNL     1      23.468   1.134  17.932  0.00  0.00    +0.000 OA
ATOM      2  C   UNL     1      23.511   2.358  18.133  0.00  0.00    +0.000 C 
ATOM      3  N   UNL     1      22.411   3.156  17.721  0.00  0.00    +0.000 NA
ENDROOT
BRANCH   3   4
ATOM      4  C   UNL     1      21.310   2.515  17.095  0.00  0.00    +0.000 A 
ATOM      5  C   UNL     1      21.356   2.128  15.781  0.00  0.00    +0.000 A 
ATOM      6  C   UNL     1      20.229   1.508  15.255  0.00  0.00    +0.000 A 
ATOM      7  C   UNL     1      19.095   1.273  15.987  0.00  0.00    +0.000 A 
ATOM      8  O   UNL     1      17.961   0.649  15.454  0.00  0.00    +0.000 OA
ATOM      9  C   UNL     1      19.069   1.671  17.309  0.00  0.00    +0.000 A 
ATOM     10  C   UNL     1      20.175   2.291  17.862  0.00  0.00    +0.000 A 
ENDBRANCH   3   4
BRANCH   2  11
ATOM     11  C   UNL     1      24.694   2.965  18.794  0.00  0.00    +0.000 C 
BRANCH  11  12
ATOM     12  C   UNL     1      24.909   4.351  18.241  0.00  0.00    +0.000 C 
BRANCH  12  13
ATOM     13  C   UNL     1      26.351   4.520  17.901  0.00  0.00    +0.000 C 
ATOM     14  C   UNL     1      27.095   5.454  18.796  0.00  0.00    +0.000 C 
ATOM     15  C   UNL     1      27.157   6.817  18.144  0.00  0.00    +0.000 C 
ATOM     16  C   UNL     1      26.015   6.991  17.162  0.00  0.00    +0.000 C 
ATOM     17  C   UNL     1      26.122   6.038  15.996  0.00  0.00    +0.000 C 
ATOM     18  C   UNL     1      26.639   4.683  16.448  0.00  0.00    +0.000 C 
ENDBRANCH  12  13
ENDBRANCH  11  12
ENDBRANCH   2  11
TORSDOF 4
ENDMDL
MODEL 10
REMARK VINA RESULT:      -5.7     17.404     20.140
REMARK  Name = 
REMARK  4 active torsions:
REMARK  status: ('A' for Active; 'I' for Inactive)
REMARK    1  A    between atoms: C_2  and  C_3
REMARK    2  A    between atoms: C_3  and  C_4
REMARK    3  A    between atoms: C_4  and  C_5
REMARK    4  A    between atoms: N_11  and  C_12
REMARK                            x       y       z     vdW  Elec       q    Type
REMARK                         _______ _______ _______ _____ _____    ______ ____
ROOT
ATOM      1  O   UNL     1      26.447  25.756  25.799  0.00  0.00    +0.000 OA
ATOM      2  C   UNL     1      26.065  24.636  26.173  0.00  0.00    +0.000 C 
ATOM      3  N   UNL     1      26.496  23.492  25.451  0.00  0.00    +0.000 NA
ENDROOT
BRANCH   3   4
ATOM      4  C   UNL     1      27.346  23.683  24.329  0.00  0.00    +0.000 A 
ATOM      5  C   UNL     1      28.711  23.699  24.457  0.00  0.00    +0.000 A 
ATOM      6  C   UNL     1      29.460  23.892  23.303  0.00  0.00    +0.000 A 
ATOM      7  C   UNL     1      28.897  24.063  22.065  0.00  0.00    +0.000 A 
ATOM      8  O   UNL     1      29.656  24.258  20.905  0.00  0.00    +0.000 OA
ATOM      9  C   UNL     1      27.520  24.043  21.959  0.00  0.00    +0.000 A 
ATOM     10  C   UNL     1      26.746  23.853  23.089  0.00  0.00    +0.000 A 
ENDBRANCH   3   4
BRANCH   2  11
ATOM     11  C   UNL     1      25.176  24.507  27.355  0.00  0.00    +0.000 C 
BRANCH  11  12
ATOM     12  C   UNL     1      25.841  25.154  28.544  0.00  0.00    +0.000 C 
BRANCH  12  13
ATOM     13  C   UNL     1      25.845  24.191  29.682  0.00  0.00    +0.000 C 
ATOM     14  C   UNL     1      26.211  24.788  31.000  0.00  0.00    +0.000 C 
ATOM     15  C   UNL     1      27.680  24.541  31.261  0.00  0.00    +0.000 C 
ATOM     16  C   UNL     1      28.427  24.335  29.957  0.00  0.00    +0.000 C 
ATOM     17  C   UNL     1      27.981  23.084  29.242  0.00  0.00    +0.000 C 
ATOM     18  C   UNL     1      26.484  22.877  29.390  0.00  0.00    +0.000 C 
ENDBRANCH  12  13
ENDBRANCH  11  12
ENDBRANCH   2  11
TORSDOF 4
ENDMDL
