MODEL 1
REMARK VINA RESULT:      -6.8      0.000      0.000
REMARK  Name = 
REMARK  2 active torsions:
REMARK  status: ('A' for Active; 'I' for Inactive)
REMARK    1  A    between atoms: C_2  and  N_3
REMARK    2  A    between atoms: C_6  and  C_7
REMARK                            x       y       z     vdW  Elec       q    Type
REMARK                         _______ _______ _______ _____ _____    ______ ____
ROOT
ATOM      1  C   UNL     1      13.576  13.301  35.215  0.00  0.00    +0.000 A 
ATOM      2  C   UNL     1      12.885  14.484  35.131  0.00  0.00    +0.000 A 
ATOM      3  N   UNL     1      12.997  14.987  33.891  0.00  0.00    +0.000 NA
ATOM      4  C   UNL     1      13.750  14.166  33.139  0.00  0.00    +0.000 A 
ATOM      5  C   UNL     1      14.158  14.238  31.801  0.00  0.00    +0.000 A 
ATOM      6  C   UNL     1      14.943  13.239  31.273  0.00  0.00    +0.000 A 
ATOM      7  C   UNL     1      15.398  13.288  29.838  0.00  0.00    +0.000 C 
ATOM      8  C   UNL     1      15.304  12.192  32.095  0.00  0.00    +0.000 A 
ATOM      9  C   UNL     1      14.903  12.122  33.411  0.00  0.00    +0.000 A 
ATOM     10  C   UNL     1      14.111  13.118  33.958  0.00  0.00    +0.000 A 
ENDROOT
BRANCH   1  14
ATOM     11  N   UNL     1      16.093  10.778  38.635  0.00  0.00    +0.000 NA
ATOM     12  C   UNL     1      14.923  11.271  37.936  0.00  0.00    +0.000 A 
ATOM     13  N   UNL     1      14.873  12.071  36.885  0.00  0.00    +0.000 NA
ATOM     14  C   UNL     1      13.722  12.407  36.393  0.00  0.00    +0.000 A 
ATOM     15  C   UNL     1      12.603  11.900  37.009  0.00  0.00    +0.000 A 
ATOM     16  S   UNL     1      13.280  10.965  38.266  0.00  0.00    +0.000 S 
BRANCH  11  18
ATOM     17  C   UNL     1      17.136   9.249  40.251  0.00  0.00    +0.000 C 
ATOM     18  C   UNL     1      15.851   9.893  39.783  0.00  0.00    +0.000 C 
ENDBRANCH  11  18
ENDBRANCH   1  14
TORSDOF 2
ENDMDL
MODEL 2
REMARK VINA RESULT:      -6.6      2.564      7.117
REMARK  Name = 
REMARK  2 active torsions:
REMARK  status: ('A' for Active; 'I' for Inactive)
REMARK    1  A    between atoms: C_2  and  N_3
REMARK    2  A    between atoms: C_6  and  C_7
REMARK                            x       y       z     vdW  Elec       q    Type
REMARK                         _______ _______ _______ _____ _____    ______ ____
ROOT
ATOM      1  C   UNL     1      15.780  11.054  36.152  0.00  0.00    +0.000 A 
ATOM      2  C   UNL     1      14.815  11.425  37.055  0.00  0.00    +0.000 A 
ATOM      3  N   UNL     1      15.195  11.074  38.295  0.00  0.00    +0.000 NA
ATOM      4  C   UNL     1      16.397  10.473  38.243  0.00  0.00    +0.000 A 
ATOM      5  C   UNL     1      17.214   9.933  39.244  0.00  0.00    +0.000 A 
ATOM      6  C   UNL     1      18.422   9.366  38.906  0.00  0.00    +0.000 A 
ATOM      7  C   UNL     1      19.321   8.776  39.959  0.00  0.00    +0.000 C 
ATOM      8  C   UNL     1      18.785   9.353  37.576  0.00  0.00    +0.000 A 
ATOM      9  C   UNL     1      17.981   9.886  36.591  0.00  0.00    +0.000 A 
ATOM     10  C   UNL     1      16.763  10.460  36.915  0.00  0.00    +0.000 A 
ENDROOT
BRANCH   1  14
ATOM     11  N   UNL     1      14.500  13.274  31.930  0.00  0.00    +0.000 NA
ATOM     12  C   UNL     1      15.160  12.299  32.775  0.00  0.00    +0.000 A 
ATOM     13  N   UNL     1      15.113  12.192  34.092  0.00  0.00    +0.000 NA
ATOM     14  C   UNL     1      15.777  11.246  34.678  0.00  0.00    +0.000 A 
ATOM     15  C   UNL     1      16.502  10.397  33.877  0.00  0.00    +0.000 A 
ATOM     16  S   UNL     1      16.183  11.015  32.320  0.00  0.00    +0.000 S 
BRANCH  11  18
ATOM     17  C   UNL     1      15.997  13.873  30.076  0.00  0.00    +0.000 C 
ATOM     18  C   UNL     1      14.731  13.156  30.483  0.00  0.00    +0.000 C 
ENDBRANCH  11  18
ENDBRANCH   1  14
TORSDOF 2
ENDMDL
MODEL 3
REMARK VINA RESULT:      -6.5     22.158     24.787
REMARK  Name = 
REMARK  2 active torsions:
REMARK  status: ('A' for Active; 'I' for Inactive)
REMARK    1  A    between atoms: C_2  and  N_3
REMARK    2  A    between atoms: C_6  and  C_7
REMARK                            x       y       z     vdW  Elec       q    Type
REMARK                         _______ _______ _______ _____ _____    ______ ____
ROOT
ATOM      1  C   UNL     1      33.130  -2.314  34.284  0.00  0.00    +0.000 A 
ATOM      2  C   UNL     1      32.229  -2.145  35.306  0.00  0.00    +0.000 A 
ATOM      3  N   UNL     1      31.954  -0.839  35.456  0.00  0.00    +0.000 NA
ATOM      4  C   UNL     1      32.653  -0.126  34.555  0.00  0.00    +0.000 A 
ATOM      5  C   UNL     1      32.718   1.250  34.302  0.00  0.00    +0.000 A 
ATOM      6  C   UNL     1      33.533   1.720  33.298  0.00  0.00    +0.000 A 
ATOM      7  C   UNL     1      33.625   3.194  33.002  0.00  0.00    +0.000 C 
ATOM      8  C   UNL     1      34.263   0.805  32.570  0.00  0.00    +0.000 A 
ATOM      9  C   UNL     1      34.198  -0.549  32.819  0.00  0.00    +0.000 A 
ATOM     10  C   UNL     1      33.383  -1.038  33.826  0.00  0.00    +0.000 A 
ENDROOT
BRANCH   1  14
ATOM     11  N   UNL     1      34.104  -5.732  30.854  0.00  0.00    +0.000 NA
ATOM     12  C   UNL     1      34.127  -5.118  32.166  0.00  0.00    +0.000 A 
ATOM     13  N   UNL     1      33.582  -3.975  32.546  0.00  0.00    +0.000 NA
ATOM     14  C   UNL     1      33.710  -3.584  33.775  0.00  0.00    +0.000 A 
ATOM     15  C   UNL     1      34.418  -4.400  34.623  0.00  0.00    +0.000 A 
ATOM     16  S   UNL     1      34.860  -5.688  33.595  0.00  0.00    +0.000 S 
BRANCH  11  18
ATOM     17  C   UNL     1      34.677  -7.552  29.307  0.00  0.00    +0.000 C 
ATOM     18  C   UNL     1      34.799  -7.019  30.716  0.00  0.00    +0.000 C 
ENDBRANCH  11  18
ENDBRANCH   1  14
TORSDOF 2
ENDMDL
MODEL 4
REMARK VINA RESULT:      -6.5      2.622      3.891
REMARK  Name = 
REMARK  2 active torsions:
REMARK  status: ('A' for Active; 'I' for Inactive)
REMARK    1  A    between atoms: C_2  and  N_3
REMARK    2  A    between atoms: C_6  and  C_7
REMARK                            x       y       z     vdW  Elec       q    Type
REMARK                         _______ _______ _______ _____ _____    ______ ____
ROOT
ATOM      1  C   UNL     1      16.983  10.546  35.092  0.00  0.00    +0.000 A 
ATOM      2  C   UNL     1      17.357   9.980  33.899  0.00  0.00    +0.000 A 
ATOM      3  N   UNL     1      16.708  10.582  32.889  0.00  0.00    +0.000 NA
ATOM      4  C   UNL     1      15.904  11.542  33.380  0.00  0.00    +0.000 A 
ATOM      5  C   UNL     1      15.032  12.440  32.752  0.00  0.00    +0.000 A 
ATOM      6  C   UNL     1      14.314  13.336  33.510  0.00  0.00    +0.000 A 
ATOM      7  C   UNL     1      13.368  14.314  32.864  0.00  0.00    +0.000 C 
ATOM      8  C   UNL     1      14.484  13.314  34.879  0.00  0.00    +0.000 A 
ATOM      9  C   UNL     1      15.342  12.430  35.496  0.00  0.00    +0.000 A 
ATOM     10  C   UNL     1      16.073  11.522  34.747  0.00  0.00    +0.000 A 
ENDROOT
BRANCH   1  14
ATOM     11  N   UNL     1      16.489   9.916  39.967  0.00  0.00    +0.000 NA
ATOM     12  C   UNL     1      17.168   9.921  38.686  0.00  0.00    +0.000 A 
ATOM     13  N   UNL     1      16.682  10.251  37.503  0.00  0.00    +0.000 NA
ATOM     14  C   UNL     1      17.449  10.194  36.460  0.00  0.00    +0.000 A 
ATOM     15  C   UNL     1      18.746   9.785  36.655  0.00  0.00    +0.000 A 
ATOM     16  S   UNL     1      18.783   9.507  38.338  0.00  0.00    +0.000 S 
BRANCH  11  18
ATOM     17  C   UNL     1      16.457   9.559  42.397  0.00  0.00    +0.000 C 
ATOM     18  C   UNL     1      17.282   9.500  41.132  0.00  0.00    +0.000 C 
ENDBRANCH  11  18
ENDBRANCH   1  14
TORSDOF 2
ENDMDL
MODEL 5
REMARK VINA RESULT:      -6.2      2.977      4.196
REMARK  Name = 
REMARK  2 active torsions:
REMARK  status: ('A' for Active; 'I' for Inactive)
REMARK    1  A    between atoms: C_2  and  N_3
REMARK    2  A    between atoms: C_6  and  C_7
REMARK                            x       y       z     vdW  Elec       q    Type
REMARK                         _______ _______ _______ _____ _____    ______ ____
ROOT
ATOM      1  C   UNL     1      16.754  11.259  36.797  0.00  0.00    +0.000 A 
ATOM      2  C   UNL     1      15.690  12.066  37.111  0.00  0.00    +0.000 A 
ATOM      3  N   UNL     1      15.007  12.370  35.995  0.00  0.00    +0.000 NA
ATOM      4  C   UNL     1      15.591  11.782  34.936  0.00  0.00    +0.000 A 
ATOM      5  C   UNL     1      15.272  11.787  33.573  0.00  0.00    +0.000 A 
ATOM      6  C   UNL     1      16.057  11.085  32.687  0.00  0.00    +0.000 A 
ATOM      7  C   UNL     1      15.740  11.071  31.214  0.00  0.00    +0.000 C 
ATOM      8  C   UNL     1      17.143  10.395  33.184  0.00  0.00    +0.000 A 
ATOM      9  C   UNL     1      17.456  10.391  34.526  0.00  0.00    +0.000 A 
ATOM     10  C   UNL     1      16.676  11.091  35.431  0.00  0.00    +0.000 A 
ENDROOT
BRANCH   1  14
ATOM     11  N   UNL     1      18.652   7.812  39.783  0.00  0.00    +0.000 NA
ATOM     12  C   UNL     1      18.595   9.074  39.073  0.00  0.00    +0.000 A 
ATOM     13  N   UNL     1      17.647   9.517  38.266  0.00  0.00    +0.000 NA
ATOM     14  C   UNL     1      17.771  10.685  37.717  0.00  0.00    +0.000 A 
ATOM     15  C   UNL     1      18.904  11.402  38.015  0.00  0.00    +0.000 A 
ATOM     16  S   UNL     1      19.727  10.347  39.074  0.00  0.00    +0.000 S 
BRANCH  11  18
ATOM     17  C   UNL     1      20.179   6.108  40.680  0.00  0.00    +0.000 C 
ATOM     18  C   UNL     1      19.837   7.580  40.621  0.00  0.00    +0.000 C 
ENDBRANCH  11  18
ENDBRANCH   1  14
TORSDOF 2
ENDMDL
MODEL 6
REMARK VINA RESULT:      -6.2     28.793     30.902
REMARK  Name = 
REMARK  2 active torsions:
REMARK  status: ('A' for Active; 'I' for Inactive)
REMARK    1  A    between atoms: C_2  and  N_3
REMARK    2  A    between atoms: C_6  and  C_7
REMARK                            x       y       z     vdW  Elec       q    Type
REMARK                         _______ _______ _______ _____ _____    ______ ____
ROOT
ATOM      1  C   UNL     1      31.409  21.313  10.809  0.00  0.00    +0.000 A 
ATOM      2  C   UNL     1      30.703  20.807   9.746  0.00  0.00    +0.000 A 
ATOM      3  N   UNL     1      29.408  21.143   9.862  0.00  0.00    +0.000 NA
ATOM      4  C   UNL     1      29.229  21.865  10.982  0.00  0.00    +0.000 A 
ATOM      5  C   UNL     1      28.085  22.444  11.545  0.00  0.00    +0.000 A 
ATOM      6  C   UNL     1      28.187  23.145  12.725  0.00  0.00    +0.000 A 
ATOM      7  C   UNL     1      26.975  23.779  13.356  0.00  0.00    +0.000 C 
ATOM      8  C   UNL     1      29.429  23.251  13.314  0.00  0.00    +0.000 A 
ATOM      9  C   UNL     1      30.554  22.681  12.759  0.00  0.00    +0.000 A 
ATOM     10  C   UNL     1      30.469  21.973  11.572  0.00  0.00    +0.000 A 
ENDROOT
BRANCH   1  14
ATOM     11  N   UNL     1      35.428  19.187  12.738  0.00  0.00    +0.000 NA
ATOM     12  C   UNL     1      34.671  20.171  11.992  0.00  0.00    +0.000 A 
ATOM     13  N   UNL     1      33.366  20.218  11.788  0.00  0.00    +0.000 NA
ATOM     14  C   UNL     1      32.864  21.186  11.087  0.00  0.00    +0.000 A 
ATOM     15  C   UNL     1      33.739  22.121  10.590  0.00  0.00    +0.000 A 
ATOM     16  S   UNL     1      35.240  21.548  11.165  0.00  0.00    +0.000 S 
BRANCH  11  18
ATOM     17  C   UNL     1      37.282  20.061  14.094  0.00  0.00    +0.000 C 
ATOM     18  C   UNL     1      36.884  19.385  12.802  0.00  0.00    +0.000 C 
ENDBRANCH  11  18
ENDBRANCH   1  14
TORSDOF 2
ENDMDL
MODEL 7
REMARK VINA RESULT:      -6.2     28.860     32.040
REMARK  Name = 
REMARK  2 active torsions:
REMARK  status: ('A' for Active; 'I' for Inactive)
REMARK    1  A    between atoms: C_2  and  N_3
REMARK    2  A    between atoms: C_6  and  C_7
REMARK                            x       y       z     vdW  Elec       q    Type
REMARK                         _______ _______ _______ _____ _____    ______ ____
ROOT
ATOM      1  C   UNL     1      31.159  21.359  10.331  0.00  0.00    +0.000 A 
ATOM      2  C   UNL     1      32.085  20.786  11.166  0.00  0.00    +0.000 A 
ATOM      3  N   UNL     1      31.872  21.193  12.428  0.00  0.00    +0.000 NA
ATOM      4  C   UNL     1      30.819  22.030  12.458  0.00  0.00    +0.000 A 
ATOM      5  C   UNL     1      30.203  22.716  13.511  0.00  0.00    +0.000 A 
ATOM      6  C   UNL     1      29.119  23.524  13.256  0.00  0.00    +0.000 A 
ATOM      7  C   UNL     1      28.435  24.275  14.369  0.00  0.00    +0.000 C 
ATOM      8  C   UNL     1      28.676  23.628  11.955  0.00  0.00    +0.000 A 
ATOM      9  C   UNL     1      29.283  22.952  10.918  0.00  0.00    +0.000 A 
ATOM     10  C   UNL     1      30.375  22.135  11.158  0.00  0.00    +0.000 A 
ENDROOT
BRANCH   1  14
ATOM     11  N   UNL     1      29.738  19.042   6.207  0.00  0.00    +0.000 NA
ATOM     12  C   UNL     1      30.348  20.087   7.005  0.00  0.00    +0.000 A 
ATOM     13  N   UNL     1      30.432  20.168   8.321  0.00  0.00    +0.000 NA
ATOM     14  C   UNL     1      31.022  21.189   8.861  0.00  0.00    +0.000 A 
ATOM     15  C   UNL     1      31.532  22.141   8.012  0.00  0.00    +0.000 A 
ATOM     16  S   UNL     1      31.131  21.506   6.480  0.00  0.00    +0.000 S 
BRANCH  11  18
ATOM     17  C   UNL     1      28.542  19.890   4.235  0.00  0.00    +0.000 C 
ATOM     18  C   UNL     1      29.792  19.210   4.748  0.00  0.00    +0.000 C 
ENDBRANCH  11  18
ENDBRANCH   1  14
TORSDOF 2
ENDMDL
MODEL 8
REMARK VINA RESULT:      -6.1      3.024      3.638
REMARK  Name = 
REMARK  2 active torsions:
REMARK  status: ('A' for Active; 'I' for Inactive)
REMARK    1  A    between atoms: C_2  and  N_3
REMARK    2  A    between atoms: C_6  and  C_7
REMARK                            x       y       z     vdW  Elec       q    Type
REMARK                         _______ _______ _______ _____ _____    ______ ____
ROOT
ATOM      1  C   UNL     1      16.198  11.822  35.935  0.00  0.00    +0.000 A 
ATOM      2  C   UNL     1      15.138  12.558  36.404  0.00  0.00    +0.000 A 
ATOM      3  N   UNL     1      14.353  12.926  35.378  0.00  0.00    +0.000 NA
ATOM      4  C   UNL     1      14.864  12.452  34.228  0.00  0.00    +0.000 A 
ATOM      5  C   UNL     1      14.430  12.557  32.901  0.00  0.00    +0.000 A 
ATOM      6  C   UNL     1      15.159  11.963  31.897  0.00  0.00    +0.000 A 
ATOM      7  C   UNL     1      14.718  12.059  30.460  0.00  0.00    +0.000 C 
ATOM      8  C   UNL     1      16.305  11.278  32.241  0.00  0.00    +0.000 A 
ATOM      9  C   UNL     1      16.732  11.175  33.548  0.00  0.00    +0.000 A 
ATOM     10  C   UNL     1      16.009  11.766  34.571  0.00  0.00    +0.000 A 
ENDROOT
BRANCH   1  14
ATOM     11  N   UNL     1      20.224  11.901  38.795  0.00  0.00    +0.000 NA
ATOM     12  C   UNL     1      19.149  11.308  38.024  0.00  0.00    +0.000 A 
ATOM     13  N   UNL     1      18.191  11.920  37.351  0.00  0.00    +0.000 NA
ATOM     14  C   UNL     1      17.308  11.215  36.715  0.00  0.00    +0.000 A 
ATOM     15  C   UNL     1      17.428   9.848  36.783  0.00  0.00    +0.000 A 
ATOM     16  S   UNL     1      18.811   9.659  37.764  0.00  0.00    +0.000 S 
BRANCH  11  18
ATOM     17  C   UNL     1      22.405  10.783  38.613  0.00  0.00    +0.000 C 
ATOM     18  C   UNL     1      21.159  10.971  39.446  0.00  0.00    +0.000 C 
ENDBRANCH  11  18
ENDBRANCH   1  14
TORSDOF 2
ENDMDL
MODEL 9
REMARK VINA RESULT:      -6.1     21.643     24.943
REMARK  Name = 
REMARK  2 active torsions:
REMARK  status: ('A' for Active; 'I' for Inactive)
REMARK    1  A    between atoms: C_2  and  N_3
REMARK    2  A    between atoms: C_6  and  C_7
REMARK                            x       y       z     vdW  Elec       q    Type
REMARK                         _______ _______ _______ _____ _____    ______ ____
ROOT
ATOM      1  C   UNL     1      28.768  24.829  21.967  0.00  0.00    +0.000 A 
ATOM      2  C   UNL     1      27.697  23.981  21.829  0.00  0.00    +0.000 A 
ATOM      3  N   UNL     1      27.699  23.082  22.826  0.00  0.00    +0.000 NA
ATOM      4  C   UNL     1      28.750  23.309  23.633  0.00  0.00    +0.000 A 
ATOM      5  C   UNL     1      29.192  22.661  24.794  0.00  0.00    +0.000 A 
ATOM      6  C   UNL     1      30.323  23.110  25.436  0.00  0.00    +0.000 A 
ATOM      7  C   UNL     1      30.823  22.434  26.686  0.00  0.00    +0.000 C 
ATOM      8  C   UNL     1      30.988  24.194  24.903  0.00  0.00    +0.000 A 
ATOM      9  C   UNL     1      30.553  24.830  23.761  0.00  0.00    +0.000 A 
ATOM     10  C   UNL     1      29.416  24.392  23.103  0.00  0.00    +0.000 A 
ENDROOT
BRANCH   1  14
ATOM     11  N   UNL     1      30.867  26.935  18.023  0.00  0.00    +0.000 NA
ATOM     12  C   UNL     1      30.131  26.881  19.270  0.00  0.00    +0.000 A 
ATOM     13  N   UNL     1      29.825  25.819  19.995  0.00  0.00    +0.000 NA
ATOM     14  C   UNL     1      29.153  25.969  21.094  0.00  0.00    +0.000 A 
ATOM     15  C   UNL     1      28.794  27.248  21.442  0.00  0.00    +0.000 A 
ATOM     16  S   UNL     1      29.448  28.164  20.160  0.00  0.00    +0.000 S 
BRANCH  11  18
ATOM     17  C   UNL     1      32.496  28.721  17.581  0.00  0.00    +0.000 C 
ATOM     18  C   UNL     1      31.062  28.266  17.430  0.00  0.00    +0.000 C 
ENDBRANCH  11  18
ENDBRANCH   1  14
TORSDOF 2
ENDMDL
MODEL 10
REMARK VINA RESULT:      -6.0     21.784     22.905
REMARK  Name = 
REMARK  2 active torsions:
REMARK  status: ('A' for Active; 'I' for Inactive)
REMARK    1  A    between atoms: C_2  and  N_3
REMARK    2  A    between atoms: C_6  and  C_7
REMARK                            x       y       z     vdW  Elec       q    Type
REMARK                         _______ _______ _______ _____ _____    ______ ____
ROOT
ATOM      1  C   UNL     1      17.957  -7.871  27.315  0.00  0.00    +0.000 A 
ATOM      2  C   UNL     1      17.359  -6.643  27.176  0.00  0.00    +0.000 A 
ATOM      3  N   UNL     1      18.165  -5.823  26.483  0.00  0.00    +0.000 NA
ATOM      4  C   UNL     1      19.294  -6.475  26.152  0.00  0.00    +0.000 A 
ATOM      5  C   UNL     1      20.431  -6.071  25.442  0.00  0.00    +0.000 A 
ATOM      6  C   UNL     1      21.462  -6.961  25.244  0.00  0.00    +0.000 A 
ATOM      7  C   UNL     1      22.698  -6.556  24.485  0.00  0.00    +0.000 C 
ATOM      8  C   UNL     1      21.334  -8.232  25.761  0.00  0.00    +0.000 A 
ATOM      9  C   UNL     1      20.214  -8.629  26.460  0.00  0.00    +0.000 A 
ATOM     10  C   UNL     1      19.167  -7.747  26.667  0.00  0.00    +0.000 A 
ENDROOT
BRANCH   1  14
ATOM     11  N   UNL     1      17.362 -10.935  31.143  0.00  0.00    +0.000 NA
ATOM     12  C   UNL     1      17.187 -10.443  29.791  0.00  0.00    +0.000 A 
ATOM     13  N   UNL     1      17.697  -9.354  29.244  0.00  0.00    +0.000 NA
ATOM     14  C   UNL     1      17.426  -9.075  28.007  0.00  0.00    +0.000 A 
ATOM     15  C   UNL     1      16.609  -9.947  27.331  0.00  0.00    +0.000 A 
ATOM     16  S   UNL     1      16.278 -11.124  28.521  0.00  0.00    +0.000 S 
BRANCH  11  18
ATOM     17  C   UNL     1      15.382 -11.910  32.223  0.00  0.00    +0.000 C 
ATOM     18  C   UNL     1      16.671 -12.187  31.484  0.00  0.00    +0.000 C 
ENDBRANCH  11  18
ENDBRANCH   1  14
TORSDOF 2
ENDMDL
