MODEL 1
REMARK VINA RESULT:      -7.3      0.000      0.000
REMARK  Name = 
REMARK  8 active torsions:
REMARK  status: ('A' for Active; 'I' for Inactive)
REMARK    1  A    between atoms: O_2  and  C_3
REMARK    2  A    between atoms: C_8  and  O_9
REMARK    3  A    between atoms: O_9  and  C_10
REMARK    4  A    between atoms: C_10  and  C_11
REMARK    5  A    between atoms: C_17  and  C_18
REMARK    6  A    between atoms: C_22  and  O_23
REMARK    7  A    between atoms: O_23  and  C_24
REMARK    8  A    between atoms: C_24  and  C_25
REMARK                            x       y       z     vdW  Elec       q    Type
REMARK                         _______ _______ _______ _____ _____    ______ ____
ROOT
ATOM      1  C   UNL     1      38.182   1.773  13.391  0.00  0.00    +0.000 A 
ATOM      2  C   UNL     1      38.740   1.057  12.323  0.00  0.00    +0.000 A 
ATOM      3  C   UNL     1      39.250  -0.218  12.611  0.00  0.00    +0.000 A 
ATOM      4  C   UNL     1      39.188  -0.708  13.879  0.00  0.00    +0.000 A 
ATOM      5  C   UNL     1      38.652  -0.018  14.899  0.00  0.00    +0.000 A 
ATOM      6  C   UNL     1      38.134   1.234  14.707  0.00  0.00    +0.000 A 
ATOM      7  C   UNL     1      39.829  -2.129  14.038  0.00  0.00    +0.000 C 
ATOM      8  N   UNL     1      38.886  -2.812  12.896  0.00  0.00    +0.000 NA
ATOM      9  C   UNL     1      39.557  -2.473  11.691  0.00  0.00    +0.000 C 
ATOM     10  C   UNL     1      39.892  -1.032  11.555  0.00  0.00    +0.000 C 
ENDROOT
BRANCH   7  11
ATOM     11  C   UNL     1      39.013  -2.724  15.226  0.00  0.00    +0.000 A 
ATOM     12  C   UNL     1      39.581  -2.775  16.438  0.00  0.00    +0.000 A 
ATOM     13  C   UNL     1      38.843  -3.277  17.552  0.00  0.00    +0.000 A 
ATOM     14  C   UNL     1      37.549  -3.704  17.365  0.00  0.00    +0.000 A 
ATOM     15  C   UNL     1      36.972  -3.647  16.110  0.00  0.00    +0.000 A 
ATOM     16  C   UNL     1      37.736  -3.157  15.089  0.00  0.00    +0.000 A 
BRANCH  15  17
ATOM     17  O   UNL     1      35.680  -4.048  15.838  0.00  0.00    +0.000 OA
BRANCH  17  18
ATOM     18  C   UNL     1      35.057  -3.880  14.584  0.00  0.00    +0.000 C 
BRANCH  18  19
ATOM     19  C   UNL     1      33.877  -4.800  14.365  0.00  0.00    +0.000 C 
ATOM     20  C   UNL     1      34.285  -6.222  14.735  0.00  0.00    +0.000 C 
ATOM     21  C   UNL     1      32.802  -4.429  15.382  0.00  0.00    +0.000 C 
ENDBRANCH  18  19
ENDBRANCH  17  18
ENDBRANCH  15  17
ENDBRANCH   7  11
BRANCH   1  23
ATOM     22  C   UNL     1      37.189   4.139  13.095  0.00  0.00    +0.000 C 
ATOM     23  O   UNL     1      37.672   2.987  13.247  0.00  0.00    +0.000 OA
ENDBRANCH   1  23
BRANCH   6  24
ATOM     24  O   UNL     1      37.572   2.031  15.664  0.00  0.00    +0.000 OA
BRANCH  24  25
ATOM     25  C   UNL     1      36.439   2.057  16.346  0.00  0.00    +0.000 C 
BRANCH  25  26
ATOM     26  C   UNL     1      35.897   0.920  17.045  0.00  0.00    +0.000 A 
ATOM     27  C   UNL     1      36.280   0.694  18.371  0.00  0.00    +0.000 A 
ATOM     28  C   UNL     1      35.844  -0.362  19.111  0.00  0.00    +0.000 A 
ATOM     29  C   UNL     1      34.983  -1.269  18.561  0.00  0.00    +0.000 A 
ATOM     30  C   UNL     1      34.566  -1.105  17.269  0.00  0.00    +0.000 A 
ATOM     31  C   UNL     1      35.033  -0.015  16.542  0.00  0.00    +0.000 A 
ENDBRANCH  25  26
ENDBRANCH  24  25
ENDBRANCH   6  24
TORSDOF 8
ENDMDL
MODEL 2
REMARK VINA RESULT:      -6.8      2.771      6.294
REMARK  Name = 
REMARK  8 active torsions:
REMARK  status: ('A' for Active; 'I' for Inactive)
REMARK    1  A    between atoms: O_2  and  C_3
REMARK    2  A    between atoms: C_8  and  O_9
REMARK    3  A    between atoms: O_9  and  C_10
REMARK    4  A    between atoms: C_10  and  C_11
REMARK    5  A    between atoms: C_17  and  C_18
REMARK    6  A    between atoms: C_22  and  O_23
REMARK    7  A    between atoms: O_23  and  C_24
REMARK    8  A    between atoms: C_24  and  C_25
REMARK                            x       y       z     vdW  Elec       q    Type
REMARK                         _______ _______ _______ _____ _____    ______ ____
ROOT
ATOM      1  C   UNL     1      39.857  -1.468  13.075  0.00  0.00    +0.000 A 
ATOM      2  C   UNL     1      39.692  -0.738  11.890  0.00  0.00    +0.000 A 
ATOM      3  C   UNL     1      38.661   0.214  11.869  0.00  0.00    +0.000 A 
ATOM      4  C   UNL     1      37.877   0.395  12.965  0.00  0.00    +0.000 A 
ATOM      5  C   UNL     1      38.039  -0.307  14.099  0.00  0.00    +0.000 A 
ATOM      6  C   UNL     1      39.020  -1.256  14.205  0.00  0.00    +0.000 A 
ATOM      7  C   UNL     1      36.754   1.470  12.767  0.00  0.00    +0.000 C 
ATOM      8  N   UNL     1      37.796   2.654  12.353  0.00  0.00    +0.000 NA
ATOM      9  C   UNL     1      38.021   2.407  10.972  0.00  0.00    +0.000 C 
ATOM     10  C   UNL     1      38.388   1.005  10.648  0.00  0.00    +0.000 C 
ENDROOT
BRANCH   7  11
ATOM     11  C   UNL     1      36.551   2.003  14.218  0.00  0.00    +0.000 A 
ATOM     12  C   UNL     1      35.423   1.690  14.868  0.00  0.00    +0.000 A 
ATOM     13  C   UNL     1      35.228   2.129  16.213  0.00  0.00    +0.000 A 
ATOM     14  C   UNL     1      36.209   2.872  16.827  0.00  0.00    +0.000 A 
ATOM     15  C   UNL     1      37.370   3.190  16.147  0.00  0.00    +0.000 A 
ATOM     16  C   UNL     1      37.489   2.738  14.863  0.00  0.00    +0.000 A 
BRANCH  15  17
ATOM     17  O   UNL     1      38.405   3.924  16.690  0.00  0.00    +0.000 OA
BRANCH  17  18
ATOM     18  C   UNL     1      38.308   4.629  17.906  0.00  0.00    +0.000 C 
BRANCH  18  19
ATOM     19  C   UNL     1      39.576   5.361  18.285  0.00  0.00    +0.000 C 
ATOM     20  C   UNL     1      40.133   6.057  17.048  0.00  0.00    +0.000 C 
ATOM     21  C   UNL     1      39.194   6.498  19.228  0.00  0.00    +0.000 C 
ENDBRANCH  18  19
ENDBRANCH  17  18
ENDBRANCH  15  17
ENDBRANCH   7  11
BRANCH   1  23
ATOM     22  C   UNL     1      41.689  -3.270  13.342  0.00  0.00    +0.000 C 
ATOM     23  O   UNL     1      40.792  -2.396  13.216  0.00  0.00    +0.000 OA
ENDBRANCH   1  23
BRANCH   6  24
ATOM     24  O   UNL     1      39.274  -2.035  15.298  0.00  0.00    +0.000 OA
BRANCH  24  25
ATOM     25  C   UNL     1      38.561  -2.622  16.244  0.00  0.00    +0.000 C 
BRANCH  25  26
ATOM     26  C   UNL     1      37.301  -2.118  16.729  0.00  0.00    +0.000 A 
ATOM     27  C   UNL     1      37.293  -1.272  17.843  0.00  0.00    +0.000 A 
ATOM     28  C   UNL     1      36.158  -0.762  18.393  0.00  0.00    +0.000 A 
ATOM     29  C   UNL     1      34.941  -1.071  17.852  0.00  0.00    +0.000 A 
ATOM     30  C   UNL     1      34.878  -1.892  16.760  0.00  0.00    +0.000 A 
ATOM     31  C   UNL     1      36.059  -2.396  16.225  0.00  0.00    +0.000 A 
ENDBRANCH  25  26
ENDBRANCH  24  25
ENDBRANCH   6  24
TORSDOF 8
ENDMDL
MODEL 3
REMARK VINA RESULT:      -6.8      2.558      4.300
REMARK  Name = 
REMARK  8 active torsions:
REMARK  status: ('A' for Active; 'I' for Inactive)
REMARK    1  A    between atoms: O_2  and  C_3
REMARK    2  A    between atoms: C_8  and  O_9
REMARK    3  A    between atoms: O_9  and  C_10
REMARK    4  A    between atoms: C_10  and  C_11
REMARK    5  A    between atoms: C_17  and  C_18
REMARK    6  A    between atoms: C_22  and  O_23
REMARK    7  A    between atoms: O_23  and  C_24
REMARK    8  A    between atoms: C_24  and  C_25
REMARK                            x       y       z     vdW  Elec       q    Type
REMARK                         _______ _______ _______ _____ _____    ______ ____
ROOT
ATOM      1  C   UNL     1      40.827   1.953  13.380  0.00  0.00    +0.000 A 
ATOM      2  C   UNL     1      41.845   1.012  13.178  0.00  0.00    +0.000 A 
ATOM      3  C   UNL     1      41.651  -0.262  13.734  0.00  0.00    +0.000 A 
ATOM      4  C   UNL     1      40.515  -0.537  14.431  0.00  0.00    +0.000 A 
ATOM      5  C   UNL     1      39.543   0.369  14.623  0.00  0.00    +0.000 A 
ATOM      6  C   UNL     1      39.651   1.636  14.116  0.00  0.00    +0.000 A 
ATOM      7  C   UNL     1      40.469  -1.992  15.012  0.00  0.00    +0.000 C 
ATOM      8  N   UNL     1      40.682  -2.706  13.562  0.00  0.00    +0.000 NA
ATOM      9  C   UNL     1      42.091  -2.652  13.388  0.00  0.00    +0.000 C 
ATOM     10  C   UNL     1      42.689  -1.310  13.603  0.00  0.00    +0.000 C 
ENDROOT
BRANCH   7  11
ATOM     11  C   UNL     1      38.937  -2.279  15.054  0.00  0.00    +0.000 A 
ATOM     12  C   UNL     1      38.354  -2.826  13.980  0.00  0.00    +0.000 A 
ATOM     13  C   UNL     1      36.961  -3.138  14.004  0.00  0.00    +0.000 A 
ATOM     14  C   UNL     1      36.231  -2.871  15.139  0.00  0.00    +0.000 A 
ATOM     15  C   UNL     1      36.843  -2.306  16.243  0.00  0.00    +0.000 A 
ATOM     16  C   UNL     1      38.179  -2.033  16.149  0.00  0.00    +0.000 A 
BRANCH  15  17
ATOM     17  O   UNL     1      36.188  -2.013  17.421  0.00  0.00    +0.000 OA
BRANCH  17  18
ATOM     18  C   UNL     1      34.967  -1.311  17.483  0.00  0.00    +0.000 C 
BRANCH  18  19
ATOM     19  C   UNL     1      35.093   0.075  18.073  0.00  0.00    +0.000 C 
ATOM     20  C   UNL     1      36.307   0.110  18.996  0.00  0.00    +0.000 C 
ATOM     21  C   UNL     1      35.442   1.035  16.939  0.00  0.00    +0.000 C 
ENDBRANCH  18  19
ENDBRANCH  17  18
ENDBRANCH  15  17
ENDBRANCH   7  11
BRANCH   1  23
ATOM     22  C   UNL     1      40.951   4.369  12.474  0.00  0.00    +0.000 C 
ATOM     23  O   UNL     1      40.894   3.190  12.909  0.00  0.00    +0.000 OA
ENDBRANCH   1  23
BRANCH   6  24
ATOM     24  O   UNL     1      38.735   2.640  14.251  0.00  0.00    +0.000 OA
BRANCH  24  25
ATOM     25  C   UNL     1      38.045   3.181  15.242  0.00  0.00    +0.000 C 
BRANCH  25  26
ATOM     26  C   UNL     1      38.595   4.120  16.185  0.00  0.00    +0.000 A 
ATOM     27  C   UNL     1      39.592   5.004  15.759  0.00  0.00    +0.000 A 
ATOM     28  C   UNL     1      40.192   5.913  16.575  0.00  0.00    +0.000 A 
ATOM     29  C   UNL     1      39.824   5.994  17.889  0.00  0.00    +0.000 A 
ATOM     30  C   UNL     1      38.854   5.160  18.371  0.00  0.00    +0.000 A 
ATOM     31  C   UNL     1      38.263   4.242  17.507  0.00  0.00    +0.000 A 
ENDBRANCH  25  26
ENDBRANCH  24  25
ENDBRANCH   6  24
TORSDOF 8
ENDMDL
MODEL 4
REMARK VINA RESULT:      -6.7      2.494      6.301
REMARK  Name = 
REMARK  8 active torsions:
REMARK  status: ('A' for Active; 'I' for Inactive)
REMARK    1  A    between atoms: O_2  and  C_3
REMARK    2  A    between atoms: C_8  and  O_9
REMARK    3  A    between atoms: O_9  and  C_10
REMARK    4  A    between atoms: C_10  and  C_11
REMARK    5  A    between atoms: C_17  and  C_18
REMARK    6  A    between atoms: C_22  and  O_23
REMARK    7  A    between atoms: O_23  and  C_24
REMARK    8  A    between atoms: C_24  and  C_25
REMARK                            x       y       z     vdW  Elec       q    Type
REMARK                         _______ _______ _______ _____ _____    ______ ____
ROOT
ATOM      1  C   UNL     1      39.337  -2.899  15.761  0.00  0.00    +0.000 A 
ATOM      2  C   UNL     1      40.684  -2.985  15.382  0.00  0.00    +0.000 A 
ATOM      3  C   UNL     1      41.141  -2.045  14.445  0.00  0.00    +0.000 A 
ATOM      4  C   UNL     1      40.290  -1.107  13.948  0.00  0.00    +0.000 A 
ATOM      5  C   UNL     1      39.000  -1.030  14.313  0.00  0.00    +0.000 A 
ATOM      6  C   UNL     1      38.471  -1.907  15.221  0.00  0.00    +0.000 A 
ATOM      7  C   UNL     1      40.948  -0.157  12.890  0.00  0.00    +0.000 C 
ATOM      8  N   UNL     1      42.139   0.329  13.892  0.00  0.00    +0.000 NA
ATOM      9  C   UNL     1      43.094  -0.716  13.776  0.00  0.00    +0.000 C 
ATOM     10  C   UNL     1      42.538  -2.082  13.958  0.00  0.00    +0.000 C 
ENDROOT
BRANCH   7  11
ATOM     11  C   UNL     1      40.116   1.151  13.063  0.00  0.00    +0.000 A 
ATOM     12  C   UNL     1      39.479   1.656  11.999  0.00  0.00    +0.000 A 
ATOM     13  C   UNL     1      38.677   2.829  12.137  0.00  0.00    +0.000 A 
ATOM     14  C   UNL     1      38.567   3.428  13.370  0.00  0.00    +0.000 A 
ATOM     15  C   UNL     1      39.229   2.898  14.462  0.00  0.00    +0.000 A 
ATOM     16  C   UNL     1      39.981   1.776  14.257  0.00  0.00    +0.000 A 
BRANCH  15  17
ATOM     17  O   UNL     1      39.169   3.433  15.733  0.00  0.00    +0.000 OA
BRANCH  17  18
ATOM     18  C   UNL     1      39.057   4.813  15.996  0.00  0.00    +0.000 C 
BRANCH  18  19
ATOM     19  C   UNL     1      38.344   5.127  17.293  0.00  0.00    +0.000 C 
ATOM     20  C   UNL     1      37.668   3.860  17.804  0.00  0.00    +0.000 C 
ATOM     21  C   UNL     1      39.404   5.449  18.341  0.00  0.00    +0.000 C 
ENDBRANCH  18  19
ENDBRANCH  17  18
ENDBRANCH  15  17
ENDBRANCH   7  11
BRANCH   1  23
ATOM     22  C   UNL     1      38.252  -4.512  17.461  0.00  0.00    +0.000 C 
ATOM     23  O   UNL     1      38.787  -3.730  16.633  0.00  0.00    +0.000 OA
ENDBRANCH   1  23
BRANCH   6  24
ATOM     24  O   UNL     1      37.179  -1.931  15.662  0.00  0.00    +0.000 OA
BRANCH  24  25
ATOM     25  C   UNL     1      36.392  -1.135  16.367  0.00  0.00    +0.000 C 
BRANCH  25  26
ATOM     26  C   UNL     1      35.934   0.152  15.908  0.00  0.00    +0.000 A 
ATOM     27  C   UNL     1      35.209   0.965  16.786  0.00  0.00    +0.000 A 
ATOM     28  C   UNL     1      34.712   2.185  16.445  0.00  0.00    +0.000 A 
ATOM     29  C   UNL     1      34.917   2.675  15.185  0.00  0.00    +0.000 A 
ATOM     30  C   UNL     1      35.621   1.932  14.279  0.00  0.00    +0.000 A 
ATOM     31  C   UNL     1      36.112   0.688  14.662  0.00  0.00    +0.000 A 
ENDBRANCH  25  26
ENDBRANCH  24  25
ENDBRANCH   6  24
TORSDOF 8
ENDMDL
MODEL 5
REMARK VINA RESULT:      -6.7      6.161      9.191
REMARK  Name = 
REMARK  8 active torsions:
REMARK  status: ('A' for Active; 'I' for Inactive)
REMARK    1  A    between atoms: O_2  and  C_3
REMARK    2  A    between atoms: C_8  and  O_9
REMARK    3  A    between atoms: O_9  and  C_10
REMARK    4  A    between atoms: C_10  and  C_11
REMARK    5  A    between atoms: C_17  and  C_18
REMARK    6  A    between atoms: C_22  and  O_23
REMARK    7  A    between atoms: O_23  and  C_24
REMARK    8  A    between atoms: C_24  and  C_25
REMARK                            x       y       z     vdW  Elec       q    Type
REMARK                         _______ _______ _______ _____ _____    ______ ____
ROOT
ATOM      1  C   UNL     1      37.805  10.220  18.864  0.00  0.00    +0.000 A 
ATOM      2  C   UNL     1      38.930  10.028  19.677  0.00  0.00    +0.000 A 
ATOM      3  C   UNL     1      39.445   8.725  19.752  0.00  0.00    +0.000 A 
ATOM      4  C   UNL     1      38.855   7.717  19.054  0.00  0.00    +0.000 A 
ATOM      5  C   UNL     1      37.776   7.906  18.276  0.00  0.00    +0.000 A 
ATOM      6  C   UNL     1      37.209   9.145  18.147  0.00  0.00    +0.000 A 
ATOM      7  C   UNL     1      39.530   6.319  19.271  0.00  0.00    +0.000 C 
ATOM      8  N   UNL     1      41.007   6.828  18.802  0.00  0.00    +0.000 NA
ATOM      9  C   UNL     1      41.520   7.434  19.981  0.00  0.00    +0.000 C 
ATOM     10  C   UNL     1      40.608   8.419  20.615  0.00  0.00    +0.000 C 
ENDROOT
BRANCH   7  11
ATOM     11  C   UNL     1      39.228   5.597  17.923  0.00  0.00    +0.000 A 
ATOM     12  C   UNL     1      39.920   5.951  16.832  0.00  0.00    +0.000 A 
ATOM     13  C   UNL     1      39.693   5.278  15.593  0.00  0.00    +0.000 A 
ATOM     14  C   UNL     1      38.762   4.268  15.536  0.00  0.00    +0.000 A 
ATOM     15  C   UNL     1      38.054   3.910  16.668  0.00  0.00    +0.000 A 
ATOM     16  C   UNL     1      38.320   4.597  17.819  0.00  0.00    +0.000 A 
BRANCH  15  17
ATOM     17  O   UNL     1      37.108   2.906  16.700  0.00  0.00    +0.000 OA
BRANCH  17  18
ATOM     18  C   UNL     1      36.766   2.119  15.582  0.00  0.00    +0.000 C 
BRANCH  18  19
ATOM     19  C   UNL     1      35.295   1.774  15.510  0.00  0.00    +0.000 C 
ATOM     20  C   UNL     1      34.859   1.189  16.849  0.00  0.00    +0.000 C 
ATOM     21  C   UNL     1      34.516   3.080  15.386  0.00  0.00    +0.000 C 
ENDBRANCH  18  19
ENDBRANCH  17  18
ENDBRANCH  15  17
ENDBRANCH   7  11
BRANCH   1  23
ATOM     22  C   UNL     1      36.671  12.521  18.559  0.00  0.00    +0.000 C 
ATOM     23  O   UNL     1      37.226  11.402  18.715  0.00  0.00    +0.000 OA
ENDBRANCH   1  23
BRANCH   6  24
ATOM     24  O   UNL     1      36.113   9.457  17.395  0.00  0.00    +0.000 OA
BRANCH  24  25
ATOM     25  C   UNL     1      35.837   9.580  16.108  0.00  0.00    +0.000 C 
BRANCH  25  26
ATOM     26  C   UNL     1      35.376   8.495  15.278  0.00  0.00    +0.000 A 
ATOM     27  C   UNL     1      36.301   7.549  14.824  0.00  0.00    +0.000 A 
ATOM     28  C   UNL     1      35.973   6.502  14.019  0.00  0.00    +0.000 A 
ATOM     29  C   UNL     1      34.679   6.335  13.613  0.00  0.00    +0.000 A 
ATOM     30  C   UNL     1      33.724   7.224  14.023  0.00  0.00    +0.000 A 
ATOM     31  C   UNL     1      34.095   8.283  14.846  0.00  0.00    +0.000 A 
ENDBRANCH  25  26
ENDBRANCH  24  25
ENDBRANCH   6  24
TORSDOF 8
ENDMDL
MODEL 6
REMARK VINA RESULT:      -6.5      2.632      6.339
REMARK  Name = 
REMARK  8 active torsions:
REMARK  status: ('A' for Active; 'I' for Inactive)
REMARK    1  A    between atoms: O_2  and  C_3
REMARK    2  A    between atoms: C_8  and  O_9
REMARK    3  A    between atoms: O_9  and  C_10
REMARK    4  A    between atoms: C_10  and  C_11
REMARK    5  A    between atoms: C_17  and  C_18
REMARK    6  A    between atoms: C_22  and  O_23
REMARK    7  A    between atoms: O_23  and  C_24
REMARK    8  A    between atoms: C_24  and  C_25
REMARK                            x       y       z     vdW  Elec       q    Type
REMARK                         _______ _______ _______ _____ _____    ______ ____
ROOT
ATOM      1  C   UNL     1      35.605   1.287  15.876  0.00  0.00    +0.000 A 
ATOM      2  C   UNL     1      35.693   0.721  17.155  0.00  0.00    +0.000 A 
ATOM      3  C   UNL     1      36.354  -0.512  17.260  0.00  0.00    +0.000 A 
ATOM      4  C   UNL     1      36.875  -1.104  16.151  0.00  0.00    +0.000 A 
ATOM      5  C   UNL     1      36.787  -0.558  14.927  0.00  0.00    +0.000 A 
ATOM      6  C   UNL     1      36.158   0.642  14.734  0.00  0.00    +0.000 A 
ATOM      7  C   UNL     1      37.550  -2.489  16.433  0.00  0.00    +0.000 C 
ATOM      8  N   UNL     1      38.578  -1.894  17.551  0.00  0.00    +0.000 NA
ATOM      9  C   UNL     1      37.782  -1.866  18.727  0.00  0.00    +0.000 C 
ATOM     10  C   UNL     1      36.463  -1.203  18.564  0.00  0.00    +0.000 C 
ENDROOT
BRANCH   7  11
ATOM     11  C   UNL     1      38.632  -2.560  15.313  0.00  0.00    +0.000 A 
ATOM     12  C   UNL     1      38.248  -2.840  14.061  0.00  0.00    +0.000 A 
ATOM     13  C   UNL     1      39.211  -2.871  13.008  0.00  0.00    +0.000 A 
ATOM     14  C   UNL     1      40.531  -2.610  13.295  0.00  0.00    +0.000 A 
ATOM     15  C   UNL     1      40.918  -2.323  14.591  0.00  0.00    +0.000 A 
ATOM     16  C   UNL     1      39.943  -2.312  15.549  0.00  0.00    +0.000 A 
BRANCH  15  17
ATOM     17  O   UNL     1      42.217  -2.044  14.964  0.00  0.00    +0.000 OA
BRANCH  17  18
ATOM     18  C   UNL     1      43.185  -1.516  14.086  0.00  0.00    +0.000 C 
BRANCH  18  19
ATOM     19  C   UNL     1      43.706  -0.159  14.504  0.00  0.00    +0.000 C 
ATOM     20  C   UNL     1      44.766  -0.348  15.584  0.00  0.00    +0.000 C 
ATOM     21  C   UNL     1      44.463   0.434  13.319  0.00  0.00    +0.000 C 
ENDBRANCH  18  19
ENDBRANCH  17  18
ENDBRANCH  15  17
ENDBRANCH   7  11
BRANCH   1  23
ATOM     22  C   UNL     1      34.419   3.537  15.423  0.00  0.00    +0.000 C 
ATOM     23  O   UNL     1      35.003   2.445  15.648  0.00  0.00    +0.000 OA
ENDBRANCH   1  23
BRANCH   6  24
ATOM     24  O   UNL     1      36.001   1.289  13.542  0.00  0.00    +0.000 OA
BRANCH  24  25
ATOM     25  C   UNL     1      36.784   1.662  12.543  0.00  0.00    +0.000 C 
BRANCH  25  26
ATOM     26  C   UNL     1      38.194   1.374  12.478  0.00  0.00    +0.000 A 
ATOM     27  C   UNL     1      38.699   0.711  11.354  0.00  0.00    +0.000 A 
ATOM     28  C   UNL     1      40.009   0.373  11.205  0.00  0.00    +0.000 A 
ATOM     29  C   UNL     1      40.908   0.683  12.186  0.00  0.00    +0.000 A 
ATOM     30  C   UNL     1      40.481   1.333  13.311  0.00  0.00    +0.000 A 
ATOM     31  C   UNL     1      39.134   1.662  13.430  0.00  0.00    +0.000 A 
ENDBRANCH  25  26
ENDBRANCH  24  25
ENDBRANCH   6  24
TORSDOF 8
ENDMDL
MODEL 7
REMARK VINA RESULT:      -6.5      1.608      2.438
REMARK  Name = 
REMARK  8 active torsions:
REMARK  status: ('A' for Active; 'I' for Inactive)
REMARK    1  A    between atoms: O_2  and  C_3
REMARK    2  A    between atoms: C_8  and  O_9
REMARK    3  A    between atoms: O_9  and  C_10
REMARK    4  A    between atoms: C_10  and  C_11
REMARK    5  A    between atoms: C_17  and  C_18
REMARK    6  A    between atoms: C_22  and  O_23
REMARK    7  A    between atoms: O_23  and  C_24
REMARK    8  A    between atoms: C_24  and  C_25
REMARK                            x       y       z     vdW  Elec       q    Type
REMARK                         _______ _______ _______ _____ _____    ______ ____
ROOT
ATOM      1  C   UNL     1      36.954   2.982  13.585  0.00  0.00    +0.000 A 
ATOM      2  C   UNL     1      37.507   3.030  12.299  0.00  0.00    +0.000 A 
ATOM      3  C   UNL     1      38.567   2.150  12.031  0.00  0.00    +0.000 A 
ATOM      4  C   UNL     1      39.012   1.301  12.997  0.00  0.00    +0.000 A 
ATOM      5  C   UNL     1      38.478   1.260  14.229  0.00  0.00    +0.000 A 
ATOM      6  C   UNL     1      37.442   2.085  14.576  0.00  0.00    +0.000 A 
ATOM      7  C   UNL     1      40.220   0.410  12.547  0.00  0.00    +0.000 C 
ATOM      8  N   UNL     1      39.431  -0.218  11.265  0.00  0.00    +0.000 NA
ATOM      9  C   UNL     1      39.598   0.783  10.271  0.00  0.00    +0.000 C 
ATOM     10  C   UNL     1      39.239   2.155  10.711  0.00  0.00    +0.000 C 
ENDROOT
BRANCH   7  11
ATOM     11  C   UNL     1      40.033  -0.863  13.428  0.00  0.00    +0.000 A 
ATOM     12  C   UNL     1      40.975  -1.168  14.329  0.00  0.00    +0.000 A 
ATOM     13  C   UNL     1      40.811  -2.304  15.178  0.00  0.00    +0.000 A 
ATOM     14  C   UNL     1      39.678  -3.075  15.058  0.00  0.00    +0.000 A 
ATOM     15  C   UNL     1      38.711  -2.751  14.125  0.00  0.00    +0.000 A 
ATOM     16  C   UNL     1      38.934  -1.652  13.345  0.00  0.00    +0.000 A 
BRANCH  15  17
ATOM     17  O   UNL     1      37.545  -3.466  13.944  0.00  0.00    +0.000 OA
BRANCH  17  18
ATOM     18  C   UNL     1      36.265  -2.966  14.258  0.00  0.00    +0.000 C 
BRANCH  18  19
ATOM     19  C   UNL     1      35.409  -3.938  15.040  0.00  0.00    +0.000 C 
ATOM     20  C   UNL     1      36.313  -4.794  15.920  0.00  0.00    +0.000 C 
ATOM     21  C   UNL     1      34.566  -3.131  16.021  0.00  0.00    +0.000 C 
ENDBRANCH  18  19
ENDBRANCH  17  18
ENDBRANCH  15  17
ENDBRANCH   7  11
BRANCH   1  23
ATOM     22  C   UNL     1      35.010   4.511  14.331  0.00  0.00    +0.000 C 
ATOM     23  O   UNL     1      35.953   3.764  13.961  0.00  0.00    +0.000 OA
ENDBRANCH   1  23
BRANCH   6  24
ATOM     24  O   UNL     1      36.826   2.138  15.793  0.00  0.00    +0.000 OA
BRANCH  24  25
ATOM     25  C   UNL     1      35.939   1.410  16.452  0.00  0.00    +0.000 C 
BRANCH  25  26
ATOM     26  C   UNL     1      36.288   0.329  17.339  0.00  0.00    +0.000 A 
ATOM     27  C   UNL     1      37.195  -0.641  16.901  0.00  0.00    +0.000 A 
ATOM     28  C   UNL     1      37.572  -1.712  17.651  0.00  0.00    +0.000 A 
ATOM     29  C   UNL     1      37.057  -1.880  18.906  0.00  0.00    +0.000 A 
ATOM     30  C   UNL     1      36.165  -0.966  19.396  0.00  0.00    +0.000 A 
ATOM     31  C   UNL     1      35.802   0.116  18.600  0.00  0.00    +0.000 A 
ENDBRANCH  25  26
ENDBRANCH  24  25
ENDBRANCH   6  24
TORSDOF 8
ENDMDL
MODEL 8
REMARK VINA RESULT:      -6.4      2.577      5.895
REMARK  Name = 
REMARK  8 active torsions:
REMARK  status: ('A' for Active; 'I' for Inactive)
REMARK    1  A    between atoms: O_2  and  C_3
REMARK    2  A    between atoms: C_8  and  O_9
REMARK    3  A    between atoms: O_9  and  C_10
REMARK    4  A    between atoms: C_10  and  C_11
REMARK    5  A    between atoms: C_17  and  C_18
REMARK    6  A    between atoms: C_22  and  O_23
REMARK    7  A    between atoms: O_23  and  C_24
REMARK    8  A    between atoms: C_24  and  C_25
REMARK                            x       y       z     vdW  Elec       q    Type
REMARK                         _______ _______ _______ _____ _____    ______ ____
ROOT
ATOM      1  C   UNL     1      37.147   3.282  15.705  0.00  0.00    +0.000 A 
ATOM      2  C   UNL     1      36.114   2.786  16.512  0.00  0.00    +0.000 A 
ATOM      3  C   UNL     1      35.876   1.405  16.460  0.00  0.00    +0.000 A 
ATOM      4  C   UNL     1      36.630   0.611  15.652  0.00  0.00    +0.000 A 
ATOM      5  C   UNL     1      37.618   1.092  14.879  0.00  0.00    +0.000 A 
ATOM      6  C   UNL     1      37.917   2.427  14.868  0.00  0.00    +0.000 A 
ATOM      7  C   UNL     1      36.215  -0.900  15.685  0.00  0.00    +0.000 C 
ATOM      8  N   UNL     1      36.399  -1.037  17.300  0.00  0.00    +0.000 NA
ATOM      9  C   UNL     1      35.172  -0.527  17.801  0.00  0.00    +0.000 C 
ATOM     10  C   UNL     1      34.782   0.796  17.250  0.00  0.00    +0.000 C 
ENDROOT
BRANCH   7  11
ATOM     11  C   UNL     1      37.561  -1.616  15.359  0.00  0.00    +0.000 A 
ATOM     12  C   UNL     1      38.352  -1.996  16.370  0.00  0.00    +0.000 A 
ATOM     13  C   UNL     1      39.570  -2.690  16.102  0.00  0.00    +0.000 A 
ATOM     14  C   UNL     1      39.917  -2.963  14.800  0.00  0.00    +0.000 A 
ATOM     15  C   UNL     1      39.094  -2.565  13.763  0.00  0.00    +0.000 A 
ATOM     16  C   UNL     1      37.944  -1.904  14.091  0.00  0.00    +0.000 A 
BRANCH  15  17
ATOM     17  O   UNL     1      39.364  -2.803  12.430  0.00  0.00    +0.000 OA
BRANCH  17  18
ATOM     18  C   UNL     1      40.667  -2.911  11.904  0.00  0.00    +0.000 C 
BRANCH  18  19
ATOM     19  C   UNL     1      40.868  -2.139  10.619  0.00  0.00    +0.000 C 
ATOM     20  C   UNL     1      40.038  -0.861  10.676  0.00  0.00    +0.000 C 
ATOM     21  C   UNL     1      42.316  -1.658  10.586  0.00  0.00    +0.000 C 
ENDBRANCH  18  19
ENDBRANCH  17  18
ENDBRANCH  15  17
ENDBRANCH   7  11
BRANCH   1  23
ATOM     22  C   UNL     1      37.767   5.789  15.640  0.00  0.00    +0.000 C 
ATOM     23  O   UNL     1      37.465   4.568  15.664  0.00  0.00    +0.000 OA
ENDBRANCH   1  23
BRANCH   6  24
ATOM     24  O   UNL     1      38.889   3.031  14.122  0.00  0.00    +0.000 OA
BRANCH  24  25
ATOM     25  C   UNL     1      39.637   2.707  13.081  0.00  0.00    +0.000 C 
BRANCH  25  26
ATOM     26  C   UNL     1      40.866   1.961  13.175  0.00  0.00    +0.000 A 
ATOM     27  C   UNL     1      40.863   0.731  13.842  0.00  0.00    +0.000 A 
ATOM     28  C   UNL     1      41.972  -0.039  14.006  0.00  0.00    +0.000 A 
ATOM     29  C   UNL     1      43.172   0.380  13.503  0.00  0.00    +0.000 A 
ATOM     30  C   UNL     1      43.245   1.572  12.838  0.00  0.00    +0.000 A 
ATOM     31  C   UNL     1      42.090   2.334  12.690  0.00  0.00    +0.000 A 
ENDBRANCH  25  26
ENDBRANCH  24  25
ENDBRANCH   6  24
TORSDOF 8
ENDMDL
MODEL 9
REMARK VINA RESULT:      -6.4      2.186      3.806
REMARK  Name = 
REMARK  8 active torsions:
REMARK  status: ('A' for Active; 'I' for Inactive)
REMARK    1  A    between atoms: O_2  and  C_3
REMARK    2  A    between atoms: C_8  and  O_9
REMARK    3  A    between atoms: O_9  and  C_10
REMARK    4  A    between atoms: C_10  and  C_11
REMARK    5  A    between atoms: C_17  and  C_18
REMARK    6  A    between atoms: C_22  and  O_23
REMARK    7  A    between atoms: O_23  and  C_24
REMARK    8  A    between atoms: C_24  and  C_25
REMARK                            x       y       z     vdW  Elec       q    Type
REMARK                         _______ _______ _______ _____ _____    ______ ____
ROOT
ATOM      1  C   UNL     1      40.657   1.190  11.173  0.00  0.00    +0.000 A 
ATOM      2  C   UNL     1      41.637   0.199  11.024  0.00  0.00    +0.000 A 
ATOM      3  C   UNL     1      41.703  -0.784  12.023  0.00  0.00    +0.000 A 
ATOM      4  C   UNL     1      40.840  -0.748  13.075  0.00  0.00    +0.000 A 
ATOM      5  C   UNL     1      39.904   0.204  13.214  0.00  0.00    +0.000 A 
ATOM      6  C   UNL     1      39.770   1.202  12.286  0.00  0.00    +0.000 A 
ATOM      7  C   UNL     1      41.067  -1.897  14.116  0.00  0.00    +0.000 C 
ATOM      8  N   UNL     1      40.901  -3.088  13.016  0.00  0.00    +0.000 NA
ATOM      9  C   UNL     1      42.192  -3.156  12.427  0.00  0.00    +0.000 C 
ATOM     10  C   UNL     1      42.730  -1.849  11.969  0.00  0.00    +0.000 C 
ENDROOT
BRANCH   7  11
ATOM     11  C   UNL     1      39.637  -2.090  14.707  0.00  0.00    +0.000 A 
ATOM     12  C   UNL     1      38.739  -2.793  14.006  0.00  0.00    +0.000 A 
ATOM     13  C   UNL     1      37.435  -3.021  14.540  0.00  0.00    +0.000 A 
ATOM     14  C   UNL     1      37.117  -2.512  15.777  0.00  0.00    +0.000 A 
ATOM     15  C   UNL     1      38.051  -1.788  16.494  0.00  0.00    +0.000 A 
ATOM     16  C   UNL     1      39.279  -1.607  15.921  0.00  0.00    +0.000 A 
BRANCH  15  17
ATOM     17  O   UNL     1      37.816  -1.249  17.742  0.00  0.00    +0.000 OA
BRANCH  17  18
ATOM     18  C   UNL     1      36.962  -1.834  18.698  0.00  0.00    +0.000 C 
BRANCH  18  19
ATOM     19  C   UNL     1      35.811  -0.943  19.109  0.00  0.00    +0.000 C 
ATOM     20  C   UNL     1      36.243   0.513  18.977  0.00  0.00    +0.000 C 
ATOM     21  C   UNL     1      34.700  -1.112  18.077  0.00  0.00    +0.000 C 
ENDBRANCH  18  19
ENDBRANCH  17  18
ENDBRANCH  15  17
ENDBRANCH   7  11
BRANCH   1  23
ATOM     22  C   UNL     1      40.345   3.117   9.482  0.00  0.00    +0.000 C 
ATOM     23  O   UNL     1      40.498   2.173  10.300  0.00  0.00    +0.000 OA
ENDBRANCH   1  23
BRANCH   6  24
ATOM     24  O   UNL     1      38.865   2.224  12.324  0.00  0.00    +0.000 OA
BRANCH  24  25
ATOM     25  C   UNL     1      37.547   2.337  12.321  0.00  0.00    +0.000 C 
BRANCH  25  26
ATOM     26  C   UNL     1      36.723   2.159  13.489  0.00  0.00    +0.000 A 
ATOM     27  C   UNL     1      36.100   3.277  14.056  0.00  0.00    +0.000 A 
ATOM     28  C   UNL     1      35.322   3.220  15.170  0.00  0.00    +0.000 A 
ATOM     29  C   UNL     1      35.115   2.023  15.796  0.00  0.00    +0.000 A 
ATOM     30  C   UNL     1      35.694   0.890  15.293  0.00  0.00    +0.000 A 
ATOM     31  C   UNL     1      36.484   0.986  14.152  0.00  0.00    +0.000 A 
ENDBRANCH  25  26
ENDBRANCH  24  25
ENDBRANCH   6  24
TORSDOF 8
ENDMDL
MODEL 10
REMARK VINA RESULT:      -6.3     27.335     30.632
REMARK  Name = 
REMARK  8 active torsions:
REMARK  status: ('A' for Active; 'I' for Inactive)
REMARK    1  A    between atoms: O_2  and  C_3
REMARK    2  A    between atoms: C_8  and  O_9
REMARK    3  A    between atoms: O_9  and  C_10
REMARK    4  A    between atoms: C_10  and  C_11
REMARK    5  A    between atoms: C_17  and  C_18
REMARK    6  A    between atoms: C_22  and  O_23
REMARK    7  A    between atoms: O_23  and  C_24
REMARK    8  A    between atoms: C_24  and  C_25
REMARK                            x       y       z     vdW  Elec       q    Type
REMARK                         _______ _______ _______ _____ _____    ______ ____
ROOT
ATOM      1  C   UNL     1      24.544  19.064  33.638  0.00  0.00    +0.000 A 
ATOM      2  C   UNL     1      24.335  17.964  32.796  0.00  0.00    +0.000 A 
ATOM      3  C   UNL     1      25.133  16.832  33.019  0.00  0.00    +0.000 A 
ATOM      4  C   UNL     1      26.058  16.835  34.017  0.00  0.00    +0.000 A 
ATOM      5  C   UNL     1      26.256  17.893  34.822  0.00  0.00    +0.000 A 
ATOM      6  C   UNL     1      25.521  19.038  34.672  0.00  0.00    +0.000 A 
ATOM      7  C   UNL     1      26.888  15.509  34.113  0.00  0.00    +0.000 C 
ATOM      8  N   UNL     1      25.573  14.559  34.277  0.00  0.00    +0.000 NA
ATOM      9  C   UNL     1      25.145  14.379  32.934  0.00  0.00    +0.000 C 
ATOM     10  C   UNL     1      25.009  15.637  32.155  0.00  0.00    +0.000 C 
ENDROOT
BRANCH   7  11
ATOM     11  C   UNL     1      27.251  15.459  35.628  0.00  0.00    +0.000 A 
ATOM     12  C   UNL     1      28.507  15.737  36.000  0.00  0.00    +0.000 A 
ATOM     13  C   UNL     1      28.858  15.739  37.384  0.00  0.00    +0.000 A 
ATOM     14  C   UNL     1      27.895  15.455  38.324  0.00  0.00    +0.000 A 
ATOM     15  C   UNL     1      26.601  15.169  37.929  0.00  0.00    +0.000 A 
ATOM     16  C   UNL     1      26.336  15.183  36.589  0.00  0.00    +0.000 A 
BRANCH  15  17
ATOM     17  O   UNL     1      25.575  14.879  38.805  0.00  0.00    +0.000 OA
BRANCH  17  18
ATOM     18  C   UNL     1      24.340  15.558  38.813  0.00  0.00    +0.000 C 
BRANCH  18  19
ATOM     19  C   UNL     1      24.462  17.037  39.106  0.00  0.00    +0.000 C 
ATOM     20  C   UNL     1      23.963  17.822  37.898  0.00  0.00    +0.000 C 
ATOM     21  C   UNL     1      23.477  17.375  40.220  0.00  0.00    +0.000 C 
ENDBRANCH  18  19
ENDBRANCH  17  18
ENDBRANCH  15  17
ENDBRANCH   7  11
BRANCH   1  23
ATOM     22  C   UNL     1      23.216  21.268  33.410  0.00  0.00    +0.000 C 
ATOM     23  O   UNL     1      23.857  20.191  33.525  0.00  0.00    +0.000 OA
ENDBRANCH   1  23
BRANCH   6  24
ATOM     24  O   UNL     1      25.636  20.174  35.421  0.00  0.00    +0.000 OA
BRANCH  24  25
ATOM     25  C   UNL     1      26.522  20.682  36.263  0.00  0.00    +0.000 C 
BRANCH  25  26
ATOM     26  C   UNL     1      26.703  20.217  37.615  0.00  0.00    +0.000 A 
ATOM     27  C   UNL     1      25.993  20.839  38.646  0.00  0.00    +0.000 A 
ATOM     28  C   UNL     1      26.110  20.491  39.957  0.00  0.00    +0.000 A 
ATOM     29  C   UNL     1      26.958  19.483  40.321  0.00  0.00    +0.000 A 
ATOM     30  C   UNL     1      27.681  18.832  39.360  0.00  0.00    +0.000 A 
ATOM     31  C   UNL     1      27.537  19.214  38.030  0.00  0.00    +0.000 A 
ENDBRANCH  25  26
ENDBRANCH  24  25
ENDBRANCH   6  24
TORSDOF 8
ENDMDL
