MODEL 1
REMARK VINA RESULT:      -7.6      0.000      0.000
REMARK  Name = 
REMARK  4 active torsions:
REMARK  status: ('A' for Active; 'I' for Inactive)
REMARK    1  A    between atoms: C_6  and  C_7
REMARK    2  A    between atoms: N_9  and  N_10
REMARK    3  A    between atoms: C_11  and  C_12
REMARK    4  A    between atoms: C_15  and  C_16
REMARK                            x       y       z     vdW  Elec       q    Type
REMARK                         _______ _______ _______ _____ _____    ______ ____
ROOT
ATOM      1  N   UNL     1      15.324  11.944  36.052  0.00  0.00    +0.000 NA
ATOM      2  C   UNL     1      14.542  11.618  36.992  0.00  0.00    +0.000 C 
ENDROOT
BRANCH   2   3
ATOM      3  C   UNL     1      15.182  10.919  38.142  0.00  0.00    +0.000 A 
ATOM      4  C   UNL     1      14.435  10.544  39.228  0.00  0.00    +0.000 A 
ATOM      5  C   UNL     1      15.018   9.869  40.300  0.00  0.00    +0.000 A 
ATOM      6  C   UNL     1      16.365   9.552  40.315  0.00  0.00    +0.000 A 
ATOM      7  C   UNL     1      17.092   9.934  39.225  0.00  0.00    +0.000 A 
ATOM      8  C   UNL     1      16.537  10.615  38.131  0.00  0.00    +0.000 A 
BRANCH   6   9
ATOM      9  C   UNL     1      17.001   8.836  41.422  0.00  0.00    +0.000 C 
ATOM     10  C   UNL     1      18.493   9.145  41.484  0.00  0.00    +0.000 C 
ATOM     11  C   UNL     1      16.915   7.322  41.316  0.00  0.00    +0.000 C 
ATOM     12  C   UNL     1      16.404   9.267  42.746  0.00  0.00    +0.000 C 
ENDBRANCH   6   9
ENDBRANCH   2   3
BRANCH   1  15
ATOM     13  C   UNL     1      15.087  11.971  33.610  0.00  0.00    +0.000 C 
ATOM     14  O   UNL     1      15.645  10.836  33.687  0.00  0.00    +0.000 OA
ATOM     15  N   UNL     1      14.886  12.617  34.867  0.00  0.00    +0.000 NA
BRANCH  13  21
ATOM     16  C   UNL     1      13.401  14.574  33.024  0.00  0.00    +0.000 C 
ATOM     17  C   UNL     1      13.992  13.657  32.000  0.00  0.00    +0.000 A 
ATOM     18  O   UNL     1      13.903  13.798  30.694  0.00  0.00    +0.000 OA
ATOM     19  C   UNL     1      14.535  12.811  30.166  0.00  0.00    +0.000 A 
ATOM     20  C   UNL     1      15.068  11.971  31.114  0.00  0.00    +0.000 A 
ATOM     21  C   UNL     1      14.704  12.538  32.351  0.00  0.00    +0.000 A 
ENDBRANCH  13  21
ENDBRANCH   1  15
TORSDOF 4
ENDMDL
MODEL 2
REMARK VINA RESULT:      -7.6      2.933      9.045
REMARK  Name = 
REMARK  4 active torsions:
REMARK  status: ('A' for Active; 'I' for Inactive)
REMARK    1  A    between atoms: C_6  and  C_7
REMARK    2  A    between atoms: N_9  and  N_10
REMARK    3  A    between atoms: C_11  and  C_12
REMARK    4  A    between atoms: C_15  and  C_16
REMARK                            x       y       z     vdW  Elec       q    Type
REMARK                         _______ _______ _______ _____ _____    ______ ____
ROOT
ATOM      1  N   UNL     1      17.161  10.255  36.955  0.00  0.00    +0.000 NA
ATOM      2  C   UNL     1      17.460   9.826  35.803  0.00  0.00    +0.000 C 
ENDROOT
BRANCH   2   3
ATOM      3  C   UNL     1      16.800  10.530  34.668  0.00  0.00    +0.000 A 
ATOM      4  C   UNL     1      15.828  11.466  34.904  0.00  0.00    +0.000 A 
ATOM      5  C   UNL     1      15.219  12.148  33.850  0.00  0.00    +0.000 A 
ATOM      6  C   UNL     1      15.566  11.911  32.532  0.00  0.00    +0.000 A 
ATOM      7  C   UNL     1      16.536  10.975  32.317  0.00  0.00    +0.000 A 
ATOM      8  C   UNL     1      17.167  10.271  33.354  0.00  0.00    +0.000 A 
BRANCH   6   9
ATOM      9  C   UNL     1      14.951  12.618  31.408  0.00  0.00    +0.000 C 
ATOM     10  C   UNL     1      14.328  11.635  30.422  0.00  0.00    +0.000 C 
ATOM     11  C   UNL     1      15.925  13.443  30.583  0.00  0.00    +0.000 C 
ATOM     12  C   UNL     1      13.837  13.523  31.896  0.00  0.00    +0.000 C 
ENDBRANCH   6   9
ENDBRANCH   2   3
BRANCH   1  15
ATOM     13  C   UNL     1      16.942   9.845  39.365  0.00  0.00    +0.000 C 
ATOM     14  O   UNL     1      15.848  10.468  39.225  0.00  0.00    +0.000 OA
ATOM     15  N   UNL     1      17.696   9.698  38.161  0.00  0.00    +0.000 NA
BRANCH  13  21
ATOM     16  C   UNL     1      15.393   7.992  41.397  0.00  0.00    +0.000 C 
ATOM     17  C   UNL     1      16.776   8.534  41.575  0.00  0.00    +0.000 A 
ATOM     18  O   UNL     1      17.563   8.316  42.607  0.00  0.00    +0.000 OA
ATOM     19  C   UNL     1      18.658   8.953  42.386  0.00  0.00    +0.000 A 
ATOM     20  C   UNL     1      18.634   9.624  41.187  0.00  0.00    +0.000 A 
ATOM     21  C   UNL     1      17.366   9.344  40.638  0.00  0.00    +0.000 A 
ENDBRANCH  13  21
ENDBRANCH   1  15
TORSDOF 4
ENDMDL
MODEL 3
REMARK VINA RESULT:      -7.1      2.916      9.044
REMARK  Name = 
REMARK  4 active torsions:
REMARK  status: ('A' for Active; 'I' for Inactive)
REMARK    1  A    between atoms: C_6  and  C_7
REMARK    2  A    between atoms: N_9  and  N_10
REMARK    3  A    between atoms: C_11  and  C_12
REMARK    4  A    between atoms: C_15  and  C_16
REMARK                            x       y       z     vdW  Elec       q    Type
REMARK                         _______ _______ _______ _____ _____    ______ ____
ROOT
ATOM      1  N   UNL     1      16.223  10.735  37.422  0.00  0.00    +0.000 NA
ATOM      2  C   UNL     1      15.378  11.619  37.096  0.00  0.00    +0.000 C 
ENDROOT
BRANCH   2   3
ATOM      3  C   UNL     1      15.271  11.892  35.635  0.00  0.00    +0.000 A 
ATOM      4  C   UNL     1      15.978  11.139  34.735  0.00  0.00    +0.000 A 
ATOM      5  C   UNL     1      15.868  11.371  33.364  0.00  0.00    +0.000 A 
ATOM      6  C   UNL     1      15.047  12.362  32.856  0.00  0.00    +0.000 A 
ATOM      7  C   UNL     1      14.351  13.101  33.768  0.00  0.00    +0.000 A 
ATOM      8  C   UNL     1      14.440  12.895  35.153  0.00  0.00    +0.000 A 
BRANCH   6   9
ATOM      9  C   UNL     1      14.905  12.620  31.423  0.00  0.00    +0.000 C 
ATOM     10  C   UNL     1      13.865  13.706  31.166  0.00  0.00    +0.000 C 
ATOM     11  C   UNL     1      14.430  11.421  30.618  0.00  0.00    +0.000 C 
ATOM     12  C   UNL     1      16.214  13.112  30.839  0.00  0.00    +0.000 C 
ENDBRANCH   6   9
ENDBRANCH   2   3
BRANCH   1  15
ATOM     13  C   UNL     1      17.574   9.488  39.048  0.00  0.00    +0.000 C 
ATOM     14  O   UNL     1      18.244   9.161  38.023  0.00  0.00    +0.000 OA
ATOM     15  N   UNL     1      16.465  10.346  38.778  0.00  0.00    +0.000 NA
BRANCH  13  21
ATOM     16  C   UNL     1      18.652   6.656  39.929  0.00  0.00    +0.000 C 
ATOM     17  C   UNL     1      18.401   7.824  40.830  0.00  0.00    +0.000 A 
ATOM     18  O   UNL     1      18.598   7.851  42.131  0.00  0.00    +0.000 OA
ATOM     19  C   UNL     1      18.264   9.024  42.537  0.00  0.00    +0.000 A 
ATOM     20  C   UNL     1      17.829   9.824  41.508  0.00  0.00    +0.000 A 
ATOM     21  C   UNL     1      17.920   9.017  40.355  0.00  0.00    +0.000 A 
ENDBRANCH  13  21
ENDBRANCH   1  15
TORSDOF 4
ENDMDL
MODEL 4
REMARK VINA RESULT:      -7.1      3.321      9.186
REMARK  Name = 
REMARK  4 active torsions:
REMARK  status: ('A' for Active; 'I' for Inactive)
REMARK    1  A    between atoms: C_6  and  C_7
REMARK    2  A    between atoms: N_9  and  N_10
REMARK    3  A    between atoms: C_11  and  C_12
REMARK    4  A    between atoms: C_15  and  C_16
REMARK                            x       y       z     vdW  Elec       q    Type
REMARK                         _______ _______ _______ _____ _____    ______ ____
ROOT
ATOM      1  N   UNL     1      18.038  10.032  35.839  0.00  0.00    +0.000 NA
ATOM      2  C   UNL     1      17.006   9.617  35.235  0.00  0.00    +0.000 C 
ENDROOT
BRANCH   2   3
ATOM      3  C   UNL     1      16.465  10.532  34.192  0.00  0.00    +0.000 A 
ATOM      4  C   UNL     1      16.846  10.394  32.883  0.00  0.00    +0.000 A 
ATOM      5  C   UNL     1      16.328  11.230  31.894  0.00  0.00    +0.000 A 
ATOM      6  C   UNL     1      15.414  12.227  32.188  0.00  0.00    +0.000 A 
ATOM      7  C   UNL     1      15.047  12.349  33.496  0.00  0.00    +0.000 A 
ATOM      8  C   UNL     1      15.550  11.526  34.515  0.00  0.00    +0.000 A 
BRANCH   6   9
ATOM      9  C   UNL     1      14.848  13.112  31.168  0.00  0.00    +0.000 C 
ATOM     10  C   UNL     1      14.101  12.311  30.107  0.00  0.00    +0.000 C 
ATOM     11  C   UNL     1      15.881  13.919  30.400  0.00  0.00    +0.000 C 
ATOM     12  C   UNL     1      13.848  14.066  31.790  0.00  0.00    +0.000 C 
ENDBRANCH   6   9
ENDBRANCH   2   3
BRANCH   1  15
ATOM     13  C   UNL     1      19.181  10.001  38.010  0.00  0.00    +0.000 C 
ATOM     14  O   UNL     1      18.971  11.250  37.976  0.00  0.00    +0.000 OA
ATOM     15  N   UNL     1      18.692   9.289  36.874  0.00  0.00    +0.000 NA
BRANCH  13  21
ATOM     16  C   UNL     1      17.989   8.326  40.404  0.00  0.00    +0.000 C 
ATOM     17  C   UNL     1      19.436   8.633  40.177  0.00  0.00    +0.000 A 
ATOM     18  O   UNL     1      20.436   8.245  40.939  0.00  0.00    +0.000 OA
ATOM     19  C   UNL     1      21.512   8.711  40.412  0.00  0.00    +0.000 A 
ATOM     20  C   UNL     1      21.260   9.432  39.270  0.00  0.00    +0.000 A 
ATOM     21  C   UNL     1      19.860   9.381  39.108  0.00  0.00    +0.000 A 
ENDBRANCH  13  21
ENDBRANCH   1  15
TORSDOF 4
ENDMDL
MODEL 5
REMARK VINA RESULT:      -6.8     22.867     24.616
REMARK  Name = 
REMARK  4 active torsions:
REMARK  status: ('A' for Active; 'I' for Inactive)
REMARK    1  A    between atoms: C_6  and  C_7
REMARK    2  A    between atoms: N_9  and  N_10
REMARK    3  A    between atoms: C_11  and  C_12
REMARK    4  A    between atoms: C_15  and  C_16
REMARK                            x       y       z     vdW  Elec       q    Type
REMARK                         _______ _______ _______ _____ _____    ______ ____
ROOT
ATOM      1  N   UNL     1      22.591  -8.136  25.268  0.00  0.00    +0.000 NA
ATOM      2  C   UNL     1      22.828  -8.844  24.247  0.00  0.00    +0.000 C 
ENDROOT
BRANCH   2   3
ATOM      3  C   UNL     1      24.201  -8.714  23.684  0.00  0.00    +0.000 A 
ATOM      4  C   UNL     1      24.867  -9.817  23.217  0.00  0.00    +0.000 A 
ATOM      5  C   UNL     1      26.143  -9.703  22.666  0.00  0.00    +0.000 A 
ATOM      6  C   UNL     1      26.789  -8.483  22.568  0.00  0.00    +0.000 A 
ATOM      7  C   UNL     1      26.110  -7.397  23.039  0.00  0.00    +0.000 A 
ATOM      8  C   UNL     1      24.826  -7.477  23.599  0.00  0.00    +0.000 A 
BRANCH   6   9
ATOM      9  C   UNL     1      28.123  -8.334  21.986  0.00  0.00    +0.000 C 
ATOM     10  C   UNL     1      28.481  -6.861  21.815  0.00  0.00    +0.000 C 
ATOM     11  C   UNL     1      28.270  -8.939  20.600  0.00  0.00    +0.000 C 
ATOM     12  C   UNL     1      29.171  -8.941  22.897  0.00  0.00    +0.000 C 
ENDBRANCH   6   9
ENDBRANCH   2   3
BRANCH   1  15
ATOM     13  C   UNL     1      20.425  -7.054  25.673  0.00  0.00    +0.000 C 
ATOM     14  O   UNL     1      20.859  -6.202  24.841  0.00  0.00    +0.000 OA
ATOM     15  N   UNL     1      21.326  -8.129  25.940  0.00  0.00    +0.000 NA
BRANCH  13  21
ATOM     16  C   UNL     1      18.926  -4.446  26.628  0.00  0.00    +0.000 C 
ATOM     17  C   UNL     1      18.405  -5.846  26.716  0.00  0.00    +0.000 A 
ATOM     18  O   UNL     1      17.236  -6.205  27.203  0.00  0.00    +0.000 OA
ATOM     19  C   UNL     1      17.165  -7.485  27.105  0.00  0.00    +0.000 A 
ATOM     20  C   UNL     1      18.298  -8.025  26.546  0.00  0.00    +0.000 A 
ATOM     21  C   UNL     1      19.136  -6.923  26.283  0.00  0.00    +0.000 A 
ENDBRANCH  13  21
ENDBRANCH   1  15
TORSDOF 4
ENDMDL
MODEL 6
REMARK VINA RESULT:      -6.7     20.260     22.794
REMARK  Name = 
REMARK  4 active torsions:
REMARK  status: ('A' for Active; 'I' for Inactive)
REMARK    1  A    between atoms: C_6  and  C_7
REMARK    2  A    between atoms: N_9  and  N_10
REMARK    3  A    between atoms: C_11  and  C_12
REMARK    4  A    between atoms: C_15  and  C_16
REMARK                            x       y       z     vdW  Elec       q    Type
REMARK                         _______ _______ _______ _____ _____    ______ ____
ROOT
ATOM      1  N   UNL     1      33.486  -1.510  33.810  0.00  0.00    +0.000 NA
ATOM      2  C   UNL     1      33.958  -0.626  33.037  0.00  0.00    +0.000 C 
ENDROOT
BRANCH   2   3
ATOM      3  C   UNL     1      33.860   0.775  33.534  0.00  0.00    +0.000 A 
ATOM      4  C   UNL     1      33.785   1.031  34.878  0.00  0.00    +0.000 A 
ATOM      5  C   UNL     1      33.716   2.340  35.355  0.00  0.00    +0.000 A 
ATOM      6  C   UNL     1      33.719   3.428  34.501  0.00  0.00    +0.000 A 
ATOM      7  C   UNL     1      33.793   3.153  33.166  0.00  0.00    +0.000 A 
ATOM      8  C   UNL     1      33.863   1.849  32.653  0.00  0.00    +0.000 A 
BRANCH   6   9
ATOM      9  C   UNL     1      33.657   4.811  34.975  0.00  0.00    +0.000 C 
ATOM     10  C   UNL     1      35.002   5.508  34.799  0.00  0.00    +0.000 C 
ATOM     11  C   UNL     1      33.331   4.949  36.453  0.00  0.00    +0.000 C 
ATOM     12  C   UNL     1      32.640   5.602  34.176  0.00  0.00    +0.000 C 
ENDBRANCH   6   9
ENDBRANCH   2   3
BRANCH   1  15
ATOM     13  C   UNL     1      32.604  -3.764  34.217  0.00  0.00    +0.000 C 
ATOM     14  O   UNL     1      31.887  -3.171  35.077  0.00  0.00    +0.000 OA
ATOM     15  N   UNL     1      33.490  -2.907  33.496  0.00  0.00    +0.000 NA
BRANCH  13  21
ATOM     16  C   UNL     1      34.877  -5.948  34.361  0.00  0.00    +0.000 C 
ATOM     17  C   UNL     1      33.433  -6.196  34.059  0.00  0.00    +0.000 A 
ATOM     18  O   UNL     1      32.887  -7.369  33.812  0.00  0.00    +0.000 OA
ATOM     19  C   UNL     1      31.636  -7.162  33.599  0.00  0.00    +0.000 A 
ATOM     20  C   UNL     1      31.306  -5.832  33.698  0.00  0.00    +0.000 A 
ATOM     21  C   UNL     1      32.515  -5.178  34.007  0.00  0.00    +0.000 A 
ENDBRANCH  13  21
ENDBRANCH   1  15
TORSDOF 4
ENDMDL
MODEL 7
REMARK VINA RESULT:      -6.4     19.971     21.059
REMARK  Name = 
REMARK  4 active torsions:
REMARK  status: ('A' for Active; 'I' for Inactive)
REMARK    1  A    between atoms: C_6  and  C_7
REMARK    2  A    between atoms: N_9  and  N_10
REMARK    3  A    between atoms: C_11  and  C_12
REMARK    4  A    between atoms: C_15  and  C_16
REMARK                            x       y       z     vdW  Elec       q    Type
REMARK                         _______ _______ _______ _____ _____    ______ ____
ROOT
ATOM      1  N   UNL     1      34.368   6.131  35.653  0.00  0.00    +0.000 NA
ATOM      2  C   UNL     1      33.769   5.590  34.678  0.00  0.00    +0.000 C 
ENDROOT
BRANCH   2   3
ATOM      3  C   UNL     1      33.726   4.101  34.701  0.00  0.00    +0.000 A 
ATOM      4  C   UNL     1      33.462   3.397  33.555  0.00  0.00    +0.000 A 
ATOM      5  C   UNL     1      33.442   2.002  33.560  0.00  0.00    +0.000 A 
ATOM      6  C   UNL     1      33.686   1.274  34.712  0.00  0.00    +0.000 A 
ATOM      7  C   UNL     1      33.946   1.993  35.842  0.00  0.00    +0.000 A 
ATOM      8  C   UNL     1      33.972   3.396  35.872  0.00  0.00    +0.000 A 
BRANCH   6   9
ATOM      9  C   UNL     1      33.680  -0.189  34.743  0.00  0.00    +0.000 C 
ATOM     10  C   UNL     1      32.305  -0.720  35.133  0.00  0.00    +0.000 C 
ATOM     11  C   UNL     1      34.638  -0.794  35.756  0.00  0.00    +0.000 C 
ATOM     12  C   UNL     1      34.001  -0.751  33.373  0.00  0.00    +0.000 C 
ENDBRANCH   6   9
ENDBRANCH   2   3
BRANCH   1  15
ATOM     13  C   UNL     1      35.813   8.073  36.058  0.00  0.00    +0.000 C 
ATOM     14  O   UNL     1      36.725   7.196  36.134  0.00  0.00    +0.000 OA
ATOM     15  N   UNL     1      34.511   7.548  35.795  0.00  0.00    +0.000 NA
BRANCH  13  21
ATOM     16  C   UNL     1      35.904   9.777  38.712  0.00  0.00    +0.000 C 
ATOM     17  C   UNL     1      36.165  10.284  37.329  0.00  0.00    +0.000 A 
ATOM     18  O   UNL     1      36.479  11.521  37.008  0.00  0.00    +0.000 OA
ATOM     19  C   UNL     1      36.618  11.553  35.730  0.00  0.00    +0.000 A 
ATOM     20  C   UNL     1      36.398  10.325  35.154  0.00  0.00    +0.000 A 
ATOM     21  C   UNL     1      36.092   9.467  36.230  0.00  0.00    +0.000 A 
ENDBRANCH  13  21
ENDBRANCH   1  15
TORSDOF 4
ENDMDL
MODEL 8
REMARK VINA RESULT:      -6.3     21.813     24.727
REMARK  Name = 
REMARK  4 active torsions:
REMARK  status: ('A' for Active; 'I' for Inactive)
REMARK    1  A    between atoms: C_6  and  C_7
REMARK    2  A    between atoms: N_9  and  N_10
REMARK    3  A    between atoms: C_11  and  C_12
REMARK    4  A    between atoms: C_15  and  C_16
REMARK                            x       y       z     vdW  Elec       q    Type
REMARK                         _______ _______ _______ _____ _____    ______ ____
ROOT
ATOM      1  N   UNL     1      29.760  25.074  21.029  0.00  0.00    +0.000 NA
ATOM      2  C   UNL     1      28.796  24.402  21.498  0.00  0.00    +0.000 C 
ENDROOT
BRANCH   2   3
ATOM      3  C   UNL     1      28.948  23.970  22.916  0.00  0.00    +0.000 A 
ATOM      4  C   UNL     1      30.155  24.095  23.553  0.00  0.00    +0.000 A 
ATOM      5  C   UNL     1      30.302  23.715  24.887  0.00  0.00    +0.000 A 
ATOM      6  C   UNL     1      29.247  23.201  25.620  0.00  0.00    +0.000 A 
ATOM      7  C   UNL     1      28.054  23.085  24.968  0.00  0.00    +0.000 A 
ATOM      8  C   UNL     1      27.872  23.456  23.627  0.00  0.00    +0.000 A 
BRANCH   6   9
ATOM      9  C   UNL     1      29.372  22.805  27.023  0.00  0.00    +0.000 C 
ATOM     10  C   UNL     1      28.135  22.040  27.484  0.00  0.00    +0.000 C 
ATOM     11  C   UNL     1      29.500  23.970  27.991  0.00  0.00    +0.000 C 
ATOM     12  C   UNL     1      30.559  21.882  27.211  0.00  0.00    +0.000 C 
ENDBRANCH   6   9
ENDBRANCH   2   3
BRANCH   1  15
ATOM     13  C   UNL     1      29.835  26.981  19.486  0.00  0.00    +0.000 C 
ATOM     14  O   UNL     1      29.849  27.660  20.556  0.00  0.00    +0.000 OA
ATOM     15  N   UNL     1      29.790  25.568  19.686  0.00  0.00    +0.000 NA
BRANCH  13  21
ATOM     16  C   UNL     1      27.666  28.822  18.120  0.00  0.00    +0.000 C 
ATOM     17  C   UNL     1      28.981  28.420  17.530  0.00  0.00    +0.000 A 
ATOM     18  O   UNL     1      29.438  28.780  16.349  0.00  0.00    +0.000 OA
ATOM     19  C   UNL     1      30.592  28.230  16.210  0.00  0.00    +0.000 A 
ATOM     20  C   UNL     1      30.943  27.479  17.306  0.00  0.00    +0.000 A 
ATOM     21  C   UNL     1      29.859  27.605  18.197  0.00  0.00    +0.000 A 
ENDBRANCH  13  21
ENDBRANCH   1  15
TORSDOF 4
ENDMDL
MODEL 9
REMARK VINA RESULT:      -6.3      8.773     12.402
REMARK  Name = 
REMARK  4 active torsions:
REMARK  status: ('A' for Active; 'I' for Inactive)
REMARK    1  A    between atoms: C_6  and  C_7
REMARK    2  A    between atoms: N_9  and  N_10
REMARK    3  A    between atoms: C_11  and  C_12
REMARK    4  A    between atoms: C_15  and  C_16
REMARK                            x       y       z     vdW  Elec       q    Type
REMARK                         _______ _______ _______ _____ _____    ______ ____
ROOT
ATOM      1  N   UNL     1      19.961   2.621  40.688  0.00  0.00    +0.000 NA
ATOM      2  C   UNL     1      20.059   3.776  40.181  0.00  0.00    +0.000 C 
ENDROOT
BRANCH   2   3
ATOM      3  C   UNL     1      19.120   4.795  40.728  0.00  0.00    +0.000 A 
ATOM      4  C   UNL     1      18.445   4.560  41.897  0.00  0.00    +0.000 A 
ATOM      5  C   UNL     1      17.580   5.516  42.430  0.00  0.00    +0.000 A 
ATOM      6  C   UNL     1      17.368   6.734  41.808  0.00  0.00    +0.000 A 
ATOM      7  C   UNL     1      18.049   6.950  40.645  0.00  0.00    +0.000 A 
ATOM      8  C   UNL     1      18.924   6.009  40.081  0.00  0.00    +0.000 A 
BRANCH   6   9
ATOM      9  C   UNL     1      16.474   7.759  42.350  0.00  0.00    +0.000 C 
ATOM     10  C   UNL     1      17.212   9.080  42.537  0.00  0.00    +0.000 C 
ATOM     11  C   UNL     1      15.905   7.427  43.720  0.00  0.00    +0.000 C 
ATOM     12  C   UNL     1      15.327   8.022  41.396  0.00  0.00    +0.000 C 
ENDBRANCH   6   9
ENDBRANCH   2   3
BRANCH   1  15
ATOM     13  C   UNL     1      21.909   1.183  41.088  0.00  0.00    +0.000 C 
ATOM     14  O   UNL     1      22.065   1.923  42.105  0.00  0.00    +0.000 OA
ATOM     15  N   UNL     1      20.778   1.517  40.283  0.00  0.00    +0.000 NA
BRANCH  13  21
ATOM     16  C   UNL     1      25.052   1.241  40.802  0.00  0.00    +0.000 C 
ATOM     17  C   UNL     1      24.174   0.037  40.659  0.00  0.00    +0.000 A 
ATOM     18  O   UNL     1      24.581  -1.188  40.397  0.00  0.00    +0.000 OA
ATOM     19  C   UNL     1      23.532  -1.930  40.352  0.00  0.00    +0.000 A 
ATOM     20  C   UNL     1      22.382  -1.215  40.584  0.00  0.00    +0.000 A 
ATOM     21  C   UNL     1      22.811   0.111  40.791  0.00  0.00    +0.000 A 
ENDBRANCH  13  21
ENDBRANCH   1  15
TORSDOF 4
ENDMDL
MODEL 10
REMARK VINA RESULT:      -6.3     17.715     20.927
REMARK  Name = 
REMARK  4 active torsions:
REMARK  status: ('A' for Active; 'I' for Inactive)
REMARK    1  A    between atoms: C_6  and  C_7
REMARK    2  A    between atoms: N_9  and  N_10
REMARK    3  A    between atoms: C_11  and  C_12
REMARK    4  A    between atoms: C_15  and  C_16
REMARK                            x       y       z     vdW  Elec       q    Type
REMARK                         _______ _______ _______ _____ _____    ______ ____
ROOT
ATOM      1  N   UNL     1      24.910  25.964  25.303  0.00  0.00    +0.000 NA
ATOM      2  C   UNL     1      24.012  26.834  25.115  0.00  0.00    +0.000 C 
ENDROOT
BRANCH   2   3
ATOM      3  C   UNL     1      22.821  26.726  26.004  0.00  0.00    +0.000 A 
ATOM      4  C   UNL     1      22.977  26.480  27.343  0.00  0.00    +0.000 A 
ATOM      5  C   UNL     1      21.871  26.400  28.190  0.00  0.00    +0.000 A 
ATOM      6  C   UNL     1      20.580  26.564  27.719  0.00  0.00    +0.000 A 
ATOM      7  C   UNL     1      20.446  26.808  26.383  0.00  0.00    +0.000 A 
ATOM      8  C   UNL     1      21.536  26.893  25.505  0.00  0.00    +0.000 A 
BRANCH   6   9
ATOM      9  C   UNL     1      19.402  26.494  28.586  0.00  0.00    +0.000 C 
ATOM     10  C   UNL     1      18.910  25.057  28.720  0.00  0.00    +0.000 C 
ATOM     11  C   UNL     1      18.205  27.276  28.074  0.00  0.00    +0.000 C 
ATOM     12  C   UNL     1      19.741  26.979  29.982  0.00  0.00    +0.000 C 
ENDBRANCH   6   9
ENDBRANCH   2   3
BRANCH   1  15
ATOM     13  C   UNL     1      26.444  24.691  23.870  0.00  0.00    +0.000 C 
ATOM     14  O   UNL     1      25.593  23.765  24.029  0.00  0.00    +0.000 OA
ATOM     15  N   UNL     1      26.120  25.910  24.539  0.00  0.00    +0.000 NA
BRANCH  13  21
ATOM     16  C   UNL     1      29.004  22.957  24.500  0.00  0.00    +0.000 C 
ATOM     17  C   UNL     1      28.770  23.768  23.265  0.00  0.00    +0.000 A 
ATOM     18  O   UNL     1      29.596  23.878  22.246  0.00  0.00    +0.000 OA
ATOM     19  C   UNL     1      29.037  24.660  21.393  0.00  0.00    +0.000 A 
ATOM     20  C   UNL     1      27.808  25.101  21.821  0.00  0.00    +0.000 A 
ATOM     21  C   UNL     1      27.625  24.501  23.083  0.00  0.00    +0.000 A 
ENDBRANCH  13  21
ENDBRANCH   1  15
TORSDOF 4
ENDMDL
