MODEL 1
REMARK VINA RESULT:      -8.1      0.000      0.000
REMARK  Name = 
REMARK  9 active torsions:
REMARK  status: ('A' for Active; 'I' for Inactive)
REMARK    1  A    between atoms: C_2  and  O_3
REMARK    2  A    between atoms: O_3  and  C_4
REMARK    3  A    between atoms: C_4  and  C_5
REMARK    4  A    between atoms: C_4  and  C_20
REMARK    5  A    between atoms: C_4  and  C_26
REMARK    6  A    between atoms: C_5  and  O_7
REMARK    7  A    between atoms: O_7  and  C_8
REMARK    8  A    between atoms: C_8  and  C_9
REMARK    9  A    between atoms: N_11  and  C_12
REMARK                            x       y       z     vdW  Elec       q    Type
REMARK                         _______ _______ _______ _____ _____    ______ ____
ROOT
ATOM      1  C   UNL     1      37.047  -1.054  15.375  0.00  0.00    +0.000 C 
ENDROOT
BRANCH   1   2
ATOM      2  C   UNL     1      37.247  -1.415  16.840  0.00  0.00    +0.000 A 
ATOM      3  C   UNL     1      36.612  -0.684  17.821  0.00  0.00    +0.000 A 
ATOM      4  C   UNL     1      36.766  -0.974  19.158  0.00  0.00    +0.000 A 
ATOM      5  C   UNL     1      37.582  -2.033  19.528  0.00  0.00    +0.000 A 
ATOM      6  C   UNL     1      38.234  -2.783  18.545  0.00  0.00    +0.000 A 
ATOM      7  C   UNL     1      38.050  -2.455  17.221  0.00  0.00    +0.000 A 
ENDBRANCH   1   2
BRANCH   1   8
ATOM      8  C   UNL     1      38.347  -1.421  14.692  0.00  0.00    +0.000 A 
ATOM      9  C   UNL     1      39.514  -1.166  15.344  0.00  0.00    +0.000 A 
ATOM     10  C   UNL     1      40.721  -1.497  14.735  0.00  0.00    +0.000 A 
ATOM     11  C   UNL     1      40.672  -2.076  13.486  0.00  0.00    +0.000 A 
ATOM     12  C   UNL     1      39.495  -2.338  12.819  0.00  0.00    +0.000 A 
ATOM     13  C   UNL     1      38.294  -1.997  13.447  0.00  0.00    +0.000 A 
ENDBRANCH   1   8
BRANCH   1  14
ATOM     14  C   UNL     1      36.947   0.401  15.333  0.00  0.00    +0.000 C 
ATOM     15  O   UNL     1      35.790   0.877  15.062  0.00  0.00    +0.000 OA
BRANCH  14  16
ATOM     16  O   UNL     1      37.951   1.321  15.555  0.00  0.00    +0.000 OA
BRANCH  16  17
ATOM     17  C   UNL     1      37.770   2.647  15.150  0.00  0.00    +0.000 C 
BRANCH  17  18
ATOM     18  C   UNL     1      37.858   3.585  16.303  0.00  0.00    +0.000 C 
ATOM     19  O   UNL     1      37.145   3.342  17.307  0.00  0.00    +0.000 OA
ATOM     20  N   UNL     1      38.691   4.716  16.321  0.00  0.00    +0.000 NA
BRANCH  20  21
ATOM     21  C   UNL     1      38.776   5.612  17.425  0.00  0.00    +0.000 A 
ATOM     22  C   UNL     1      39.600   5.417  18.512  0.00  0.00    +0.000 A 
ATOM     23  C   UNL     1      39.643   6.329  19.564  0.00  0.00    +0.000 A 
ATOM     24  C   UNL     1      38.861   7.466  19.560  0.00  0.00    +0.000 A 
ATOM     25  C   UNL     1      38.905   8.450  20.687  0.00  0.00    +0.000 C 
ATOM     26  C   UNL     1      38.038   7.661  18.472  0.00  0.00    +0.000 A 
ATOM     27  C   UNL     1      37.198   8.890  18.474  0.00  0.00    +0.000 C 
ATOM     28  C   UNL     1      37.994   6.749  17.421  0.00  0.00    +0.000 A 
ENDBRANCH  20  21
ENDBRANCH  17  18
ENDBRANCH  16  17
ENDBRANCH  14  16
ENDBRANCH   1  14
BRANCH   1  29
ATOM     29  O   UNL     1      36.004  -1.722  14.846  0.00  0.00    +0.000 OA
BRANCH  29  31
ATOM     30  C   UNL     1      35.626  -4.145  14.818  0.00  0.00    +0.000 C 
ATOM     31  C   UNL     1      35.499  -2.821  15.437  0.00  0.00    +0.000 C 
ENDBRANCH  29  31
ENDBRANCH   1  29
TORSDOF 9
ENDMDL
MODEL 2
REMARK VINA RESULT:      -8.0     23.738     26.121
REMARK  Name = 
REMARK  9 active torsions:
REMARK  status: ('A' for Active; 'I' for Inactive)
REMARK    1  A    between atoms: C_2  and  O_3
REMARK    2  A    between atoms: O_3  and  C_4
REMARK    3  A    between atoms: C_4  and  C_5
REMARK    4  A    between atoms: C_4  and  C_20
REMARK    5  A    between atoms: C_4  and  C_26
REMARK    6  A    between atoms: C_5  and  O_7
REMARK    7  A    between atoms: O_7  and  C_8
REMARK    8  A    between atoms: C_8  and  C_9
REMARK    9  A    between atoms: N_11  and  C_12
REMARK                            x       y       z     vdW  Elec       q    Type
REMARK                         _______ _______ _______ _____ _____    ______ ____
ROOT
ATOM      1  C   UNL     1      12.466   0.113  28.109  0.00  0.00    +0.000 C 
ENDROOT
BRANCH   1   2
ATOM      2  C   UNL     1      12.152  -1.030  27.154  0.00  0.00    +0.000 A 
ATOM      3  C   UNL     1      12.059  -2.319  27.634  0.00  0.00    +0.000 A 
ATOM      4  C   UNL     1      11.779  -3.383  26.805  0.00  0.00    +0.000 A 
ATOM      5  C   UNL     1      11.585  -3.150  25.452  0.00  0.00    +0.000 A 
ATOM      6  C   UNL     1      11.677  -1.849  24.951  0.00  0.00    +0.000 A 
ATOM      7  C   UNL     1      11.960  -0.817  25.817  0.00  0.00    +0.000 A 
ENDBRANCH   1   2
BRANCH   1   8
ATOM      8  C   UNL     1      11.970   1.363  27.413  0.00  0.00    +0.000 A 
ATOM      9  C   UNL     1      10.742   1.332  26.827  0.00  0.00    +0.000 A 
ATOM     10  C   UNL     1      10.266   2.470  26.182  0.00  0.00    +0.000 A 
ATOM     11  C   UNL     1      11.072   3.586  26.173  0.00  0.00    +0.000 A 
ATOM     12  C   UNL     1      12.316   3.627  26.764  0.00  0.00    +0.000 A 
ATOM     13  C   UNL     1      12.777   2.473  27.405  0.00  0.00    +0.000 A 
ENDBRANCH   1   8
BRANCH   1  14
ATOM     14  C   UNL     1      13.922   0.207  28.154  0.00  0.00    +0.000 C 
ATOM     15  O   UNL     1      14.446   0.256  29.320  0.00  0.00    +0.000 OA
BRANCH  14  16
ATOM     16  O   UNL     1      14.796   0.246  27.088  0.00  0.00    +0.000 OA
BRANCH  16  17
ATOM     17  C   UNL     1      16.164   0.416  27.326  0.00  0.00    +0.000 C 
BRANCH  17  18
ATOM     18  C   UNL     1      16.961   0.209  26.086  0.00  0.00    +0.000 C 
ATOM     19  O   UNL     1      16.380   0.371  24.985  0.00  0.00    +0.000 OA
ATOM     20  N   UNL     1      18.317  -0.157  26.088  0.00  0.00    +0.000 NA
BRANCH  20  21
ATOM     21  C   UNL     1      19.080  -0.354  24.901  0.00  0.00    +0.000 A 
ATOM     22  C   UNL     1      19.775   0.648  24.258  0.00  0.00    +0.000 A 
ATOM     23  C   UNL     1      20.506   0.396  23.100  0.00  0.00    +0.000 A 
ATOM     24  C   UNL     1      20.566  -0.867  22.549  0.00  0.00    +0.000 A 
ATOM     25  C   UNL     1      21.352  -1.143  21.306  0.00  0.00    +0.000 C 
ATOM     26  C   UNL     1      19.872  -1.869  23.193  0.00  0.00    +0.000 A 
ATOM     27  C   UNL     1      19.940  -3.230  22.594  0.00  0.00    +0.000 C 
ATOM     28  C   UNL     1      19.140  -1.617  24.350  0.00  0.00    +0.000 A 
ENDBRANCH  20  21
ENDBRANCH  17  18
ENDBRANCH  16  17
ENDBRANCH  14  16
ENDBRANCH   1  14
BRANCH   1  29
ATOM     29  O   UNL     1      11.860  -0.064  29.299  0.00  0.00    +0.000 OA
BRANCH  29  31
ATOM     30  C   UNL     1      11.754   1.645  31.054  0.00  0.00    +0.000 C 
ATOM     31  C   UNL     1      11.189   0.934  29.903  0.00  0.00    +0.000 C 
ENDBRANCH  29  31
ENDBRANCH   1  29
TORSDOF 9
ENDMDL
MODEL 3
REMARK VINA RESULT:      -7.9      1.636      3.929
REMARK  Name = 
REMARK  9 active torsions:
REMARK  status: ('A' for Active; 'I' for Inactive)
REMARK    1  A    between atoms: C_2  and  O_3
REMARK    2  A    between atoms: O_3  and  C_4
REMARK    3  A    between atoms: C_4  and  C_5
REMARK    4  A    between atoms: C_4  and  C_20
REMARK    5  A    between atoms: C_4  and  C_26
REMARK    6  A    between atoms: C_5  and  O_7
REMARK    7  A    between atoms: O_7  and  C_8
REMARK    8  A    between atoms: C_8  and  C_9
REMARK    9  A    between atoms: N_11  and  C_12
REMARK                            x       y       z     vdW  Elec       q    Type
REMARK                         _______ _______ _______ _____ _____    ______ ____
ROOT
ATOM      1  C   UNL     1      37.154  -1.433  16.385  0.00  0.00    +0.000 C 
ENDROOT
BRANCH   1   2
ATOM      2  C   UNL     1      38.050  -1.195  15.179  0.00  0.00    +0.000 A 
ATOM      3  C   UNL     1      39.370  -0.842  15.362  0.00  0.00    +0.000 A 
ATOM      4  C   UNL     1      40.215  -0.615  14.299  0.00  0.00    +0.000 A 
ATOM      5  C   UNL     1      39.725  -0.746  13.009  0.00  0.00    +0.000 A 
ATOM      6  C   UNL     1      38.389  -1.102  12.806  0.00  0.00    +0.000 A 
ATOM      7  C   UNL     1      37.581  -1.318  13.900  0.00  0.00    +0.000 A 
ENDBRANCH   1   2
BRANCH   1   8
ATOM      8  C   UNL     1      36.453  -2.747  16.109  0.00  0.00    +0.000 A 
ATOM      9  C   UNL     1      35.222  -2.713  15.530  0.00  0.00    +0.000 A 
ATOM     10  C   UNL     1      34.560  -3.908  15.266  0.00  0.00    +0.000 A 
ATOM     11  C   UNL     1      35.195  -5.082  15.607  0.00  0.00    +0.000 A 
ATOM     12  C   UNL     1      36.442  -5.125  16.193  0.00  0.00    +0.000 A 
ATOM     13  C   UNL     1      37.089  -3.914  16.451  0.00  0.00    +0.000 A 
ENDBRANCH   1   8
BRANCH   1  14
ATOM     14  C   UNL     1      36.132  -0.393  16.336  0.00  0.00    +0.000 C 
ATOM     15  O   UNL     1      35.156  -0.524  17.152  0.00  0.00    +0.000 OA
BRANCH  14  16
ATOM     16  O   UNL     1      36.099   0.715  15.514  0.00  0.00    +0.000 OA
BRANCH  16  17
ATOM     17  C   UNL     1      35.855   1.976  16.070  0.00  0.00    +0.000 C 
BRANCH  17  18
ATOM     18  C   UNL     1      37.108   2.771  16.185  0.00  0.00    +0.000 C 
ATOM     19  O   UNL     1      38.099   2.398  15.510  0.00  0.00    +0.000 OA
ATOM     20  N   UNL     1      37.235   3.905  17.003  0.00  0.00    +0.000 NA
BRANCH  20  21
ATOM     21  C   UNL     1      38.434   4.667  17.111  0.00  0.00    +0.000 A 
ATOM     22  C   UNL     1      39.219   5.021  16.036  0.00  0.00    +0.000 A 
ATOM     23  C   UNL     1      40.383   5.769  16.202  0.00  0.00    +0.000 A 
ATOM     24  C   UNL     1      40.796   6.186  17.451  0.00  0.00    +0.000 A 
ATOM     25  C   UNL     1      42.044   6.991  17.635  0.00  0.00    +0.000 C 
ATOM     26  C   UNL     1      40.009   5.832  18.526  0.00  0.00    +0.000 A 
ATOM     27  C   UNL     1      40.460   6.284  19.870  0.00  0.00    +0.000 C 
ATOM     28  C   UNL     1      38.847   5.083  18.360  0.00  0.00    +0.000 A 
ENDBRANCH  20  21
ENDBRANCH  17  18
ENDBRANCH  16  17
ENDBRANCH  14  16
ENDBRANCH   1  14
BRANCH   1  29
ATOM     29  O   UNL     1      37.872  -1.486  17.524  0.00  0.00    +0.000 OA
BRANCH  29  31
ATOM     30  C   UNL     1      37.405  -2.123  19.846  0.00  0.00    +0.000 C 
ATOM     31  C   UNL     1      37.322  -1.191  18.717  0.00  0.00    +0.000 C 
ENDBRANCH  29  31
ENDBRANCH   1  29
TORSDOF 9
ENDMDL
MODEL 4
REMARK VINA RESULT:      -7.8      1.418      2.063
REMARK  Name = 
REMARK  9 active torsions:
REMARK  status: ('A' for Active; 'I' for Inactive)
REMARK    1  A    between atoms: C_2  and  O_3
REMARK    2  A    between atoms: O_3  and  C_4
REMARK    3  A    between atoms: C_4  and  C_5
REMARK    4  A    between atoms: C_4  and  C_20
REMARK    5  A    between atoms: C_4  and  C_26
REMARK    6  A    between atoms: C_5  and  O_7
REMARK    7  A    between atoms: O_7  and  C_8
REMARK    8  A    between atoms: C_8  and  C_9
REMARK    9  A    between atoms: N_11  and  C_12
REMARK                            x       y       z     vdW  Elec       q    Type
REMARK                         _______ _______ _______ _____ _____    ______ ____
ROOT
ATOM      1  C   UNL     1      37.164  -1.106  15.253  0.00  0.00    +0.000 C 
ENDROOT
BRANCH   1   2
ATOM      2  C   UNL     1      37.307  -1.315  16.753  0.00  0.00    +0.000 A 
ATOM      3  C   UNL     1      38.271  -2.172  17.238  0.00  0.00    +0.000 A 
ATOM      4  C   UNL     1      38.435  -2.392  18.588  0.00  0.00    +0.000 A 
ATOM      5  C   UNL     1      37.607  -1.731  19.483  0.00  0.00    +0.000 A 
ATOM      6  C   UNL     1      36.625  -0.859  19.007  0.00  0.00    +0.000 A 
ATOM      7  C   UNL     1      36.498  -0.671  17.649  0.00  0.00    +0.000 A 
ENDBRANCH   1   2
BRANCH   1   8
ATOM      8  C   UNL     1      38.572  -0.889  14.743  0.00  0.00    +0.000 A 
ATOM      9  C   UNL     1      39.169   0.310  14.985  0.00  0.00    +0.000 A 
ATOM     10  C   UNL     1      40.465   0.531  14.526  0.00  0.00    +0.000 A 
ATOM     11  C   UNL     1      41.086  -0.490  13.842  0.00  0.00    +0.000 A 
ATOM     12  C   UNL     1      40.489  -1.707  13.593  0.00  0.00    +0.000 A 
ATOM     13  C   UNL     1      39.188  -1.909  14.061  0.00  0.00    +0.000 A 
ENDBRANCH   1   8
BRANCH   1  14
ATOM     14  C   UNL     1      36.458   0.161  15.091  0.00  0.00    +0.000 C 
ATOM     15  O   UNL     1      36.191   0.507  13.889  0.00  0.00    +0.000 OA
BRANCH  14  16
ATOM     16  O   UNL     1      36.042   1.024  16.084  0.00  0.00    +0.000 OA
BRANCH  16  17
ATOM     17  C   UNL     1      35.528   2.277  15.734  0.00  0.00    +0.000 C 
BRANCH  17  18
ATOM     18  C   UNL     1      36.552   3.347  15.888  0.00  0.00    +0.000 C 
ATOM     19  O   UNL     1      36.495   4.326  15.104  0.00  0.00    +0.000 OA
ATOM     20  N   UNL     1      37.568   3.314  16.857  0.00  0.00    +0.000 NA
BRANCH  20  21
ATOM     21  C   UNL     1      38.547   4.338  17.005  0.00  0.00    +0.000 A 
ATOM     22  C   UNL     1      39.309   4.829  15.967  0.00  0.00    +0.000 A 
ATOM     23  C   UNL     1      40.252   5.834  16.170  0.00  0.00    +0.000 A 
ATOM     24  C   UNL     1      40.462   6.380  17.420  0.00  0.00    +0.000 A 
ATOM     25  C   UNL     1      41.472   7.460  17.644  0.00  0.00    +0.000 C 
ATOM     26  C   UNL     1      39.698   5.889  18.458  0.00  0.00    +0.000 A 
ATOM     27  C   UNL     1      39.928   6.482  19.803  0.00  0.00    +0.000 C 
ATOM     28  C   UNL     1      38.756   4.884  18.254  0.00  0.00    +0.000 A 
ENDBRANCH  20  21
ENDBRANCH  17  18
ENDBRANCH  16  17
ENDBRANCH  14  16
ENDBRANCH   1  14
BRANCH   1  29
ATOM     29  O   UNL     1      36.583  -2.171  14.665  0.00  0.00    +0.000 OA
BRANCH  29  31
ATOM     30  C   UNL     1      35.365  -4.150  15.448  0.00  0.00    +0.000 C 
ATOM     31  C   UNL     1      35.454  -2.716  15.154  0.00  0.00    +0.000 C 
ENDBRANCH  29  31
ENDBRANCH   1  29
TORSDOF 9
ENDMDL
MODEL 5
REMARK VINA RESULT:      -7.8      1.512      3.782
REMARK  Name = 
REMARK  9 active torsions:
REMARK  status: ('A' for Active; 'I' for Inactive)
REMARK    1  A    between atoms: C_2  and  O_3
REMARK    2  A    between atoms: O_3  and  C_4
REMARK    3  A    between atoms: C_4  and  C_5
REMARK    4  A    between atoms: C_4  and  C_20
REMARK    5  A    between atoms: C_4  and  C_26
REMARK    6  A    between atoms: C_5  and  O_7
REMARK    7  A    between atoms: O_7  and  C_8
REMARK    8  A    between atoms: C_8  and  C_9
REMARK    9  A    between atoms: N_11  and  C_12
REMARK                            x       y       z     vdW  Elec       q    Type
REMARK                         _______ _______ _______ _____ _____    ______ ____
ROOT
ATOM      1  C   UNL     1      37.356  -2.373  15.786  0.00  0.00    +0.000 C 
ENDROOT
BRANCH   1   2
ATOM      2  C   UNL     1      36.037  -3.087  15.532  0.00  0.00    +0.000 A 
ATOM      3  C   UNL     1      34.898  -2.683  16.195  0.00  0.00    +0.000 A 
ATOM      4  C   UNL     1      33.684  -3.301  15.997  0.00  0.00    +0.000 A 
ATOM      5  C   UNL     1      33.605  -4.361  15.105  0.00  0.00    +0.000 A 
ATOM      6  C   UNL     1      34.751  -4.783  14.426  0.00  0.00    +0.000 A 
ATOM      7  C   UNL     1      35.943  -4.134  14.657  0.00  0.00    +0.000 A 
ENDBRANCH   1   2
BRANCH   1   8
ATOM      8  C   UNL     1      37.540  -2.395  17.288  0.00  0.00    +0.000 A 
ATOM      9  C   UNL     1      38.445  -3.263  17.816  0.00  0.00    +0.000 A 
ATOM     10  C   UNL     1      38.631  -3.299  19.195  0.00  0.00    +0.000 A 
ATOM     11  C   UNL     1      37.880  -2.440  19.966  0.00  0.00    +0.000 A 
ATOM     12  C   UNL     1      36.962  -1.558  19.440  0.00  0.00    +0.000 A 
ATOM     13  C   UNL     1      36.789  -1.538  18.053  0.00  0.00    +0.000 A 
ENDBRANCH   1   8
BRANCH   1  14
ATOM     14  C   UNL     1      37.135  -0.980  15.409  0.00  0.00    +0.000 C 
ATOM     15  O   UNL     1      36.588  -0.786  14.269  0.00  0.00    +0.000 OA
BRANCH  14  16
ATOM     16  O   UNL     1      37.443   0.147  16.141  0.00  0.00    +0.000 OA
BRANCH  16  17
ATOM     17  C   UNL     1      36.750   1.337  15.896  0.00  0.00    +0.000 C 
BRANCH  17  18
ATOM     18  C   UNL     1      37.631   2.525  16.067  0.00  0.00    +0.000 C 
ATOM     19  O   UNL     1      38.689   2.568  15.392  0.00  0.00    +0.000 OA
ATOM     20  N   UNL     1      37.339   3.588  16.937  0.00  0.00    +0.000 NA
BRANCH  20  21
ATOM     21  C   UNL     1      38.182   4.725  17.100  0.00  0.00    +0.000 A 
ATOM     22  C   UNL     1      38.385   5.677  16.124  0.00  0.00    +0.000 A 
ATOM     23  C   UNL     1      39.221   6.771  16.340  0.00  0.00    +0.000 A 
ATOM     24  C   UNL     1      39.878   6.946  17.540  0.00  0.00    +0.000 A 
ATOM     25  C   UNL     1      40.775   8.120  17.777  0.00  0.00    +0.000 C 
ATOM     26  C   UNL     1      39.673   5.994  18.516  0.00  0.00    +0.000 A 
ATOM     27  C   UNL     1      40.385   6.189  19.808  0.00  0.00    +0.000 C 
ATOM     28  C   UNL     1      38.839   4.900  18.300  0.00  0.00    +0.000 A 
ENDBRANCH  20  21
ENDBRANCH  17  18
ENDBRANCH  16  17
ENDBRANCH  14  16
ENDBRANCH   1  14
BRANCH   1  29
ATOM     29  O   UNL     1      38.374  -2.989  15.153  0.00  0.00    +0.000 OA
BRANCH  29  31
ATOM     30  C   UNL     1      40.738  -2.387  14.896  0.00  0.00    +0.000 C 
ATOM     31  C   UNL     1      39.327  -2.291  14.507  0.00  0.00    +0.000 C 
ENDBRANCH  29  31
ENDBRANCH   1  29
TORSDOF 9
ENDMDL
MODEL 6
REMARK VINA RESULT:      -7.7      2.088      4.190
REMARK  Name = 
REMARK  9 active torsions:
REMARK  status: ('A' for Active; 'I' for Inactive)
REMARK    1  A    between atoms: C_2  and  O_3
REMARK    2  A    between atoms: O_3  and  C_4
REMARK    3  A    between atoms: C_4  and  C_5
REMARK    4  A    between atoms: C_4  and  C_20
REMARK    5  A    between atoms: C_4  and  C_26
REMARK    6  A    between atoms: C_5  and  O_7
REMARK    7  A    between atoms: O_7  and  C_8
REMARK    8  A    between atoms: C_8  and  C_9
REMARK    9  A    between atoms: N_11  and  C_12
REMARK                            x       y       z     vdW  Elec       q    Type
REMARK                         _______ _______ _______ _____ _____    ______ ____
ROOT
ATOM      1  C   UNL     1      37.384  -0.914  16.202  0.00  0.00    +0.000 C 
ENDROOT
BRANCH   1   2
ATOM      2  C   UNL     1      37.844  -0.125  14.984  0.00  0.00    +0.000 A 
ATOM      3  C   UNL     1      39.170   0.229  14.857  0.00  0.00    +0.000 A 
ATOM      4  C   UNL     1      39.629   0.944  13.773  0.00  0.00    +0.000 A 
ATOM      5  C   UNL     1      38.732   1.317  12.783  0.00  0.00    +0.000 A 
ATOM      6  C   UNL     1      37.385   0.966  12.899  0.00  0.00    +0.000 A 
ATOM      7  C   UNL     1      36.972   0.251  14.001  0.00  0.00    +0.000 A 
ENDBRANCH   1   2
BRANCH   1   8
ATOM      8  C   UNL     1      36.626  -2.101  15.646  0.00  0.00    +0.000 A 
ATOM      9  C   UNL     1      35.366  -2.333  16.102  0.00  0.00    +0.000 A 
ATOM     10  C   UNL     1      34.650  -3.418  15.603  0.00  0.00    +0.000 A 
ATOM     11  C   UNL     1      35.262  -4.211  14.658  0.00  0.00    +0.000 A 
ATOM     12  C   UNL     1      36.538  -3.982  14.190  0.00  0.00    +0.000 A 
ATOM     13  C   UNL     1      37.241  -2.889  14.704  0.00  0.00    +0.000 A 
ENDBRANCH   1   8
BRANCH   1  14
ATOM     14  C   UNL     1      36.406  -0.070  16.879  0.00  0.00    +0.000 C 
ATOM     15  O   UNL     1      36.548   0.052  18.144  0.00  0.00    +0.000 OA
BRANCH  14  16
ATOM     16  O   UNL     1      35.350   0.614  16.312  0.00  0.00    +0.000 OA
BRANCH  16  17
ATOM     17  C   UNL     1      35.022   1.888  16.786  0.00  0.00    +0.000 C 
BRANCH  17  18
ATOM     18  C   UNL     1      36.054   2.892  16.405  0.00  0.00    +0.000 C 
ATOM     19  O   UNL     1      35.881   3.527  15.335  0.00  0.00    +0.000 OA
ATOM     20  N   UNL     1      37.198   3.159  17.174  0.00  0.00    +0.000 NA
BRANCH  20  21
ATOM     21  C   UNL     1      38.184   4.119  16.809  0.00  0.00    +0.000 A 
ATOM     22  C   UNL     1      38.555   5.182  17.605  0.00  0.00    +0.000 A 
ATOM     23  C   UNL     1      39.528   6.091  17.196  0.00  0.00    +0.000 A 
ATOM     24  C   UNL     1      40.161   5.965  15.977  0.00  0.00    +0.000 A 
ATOM     25  C   UNL     1      41.208   6.937  15.534  0.00  0.00    +0.000 C 
ATOM     26  C   UNL     1      39.791   4.901  15.181  0.00  0.00    +0.000 A 
ATOM     27  C   UNL     1      40.478   4.771  13.868  0.00  0.00    +0.000 C 
ATOM     28  C   UNL     1      38.818   3.993  15.590  0.00  0.00    +0.000 A 
ENDBRANCH  20  21
ENDBRANCH  17  18
ENDBRANCH  16  17
ENDBRANCH  14  16
ENDBRANCH   1  14
BRANCH   1  29
ATOM     29  O   UNL     1      38.432  -1.305  16.955  0.00  0.00    +0.000 OA
BRANCH  29  31
ATOM     30  C   UNL     1      38.445  -2.811  18.890  0.00  0.00    +0.000 C 
ATOM     31  C   UNL     1      38.517  -2.554  17.447  0.00  0.00    +0.000 C 
ENDBRANCH  29  31
ENDBRANCH   1  29
TORSDOF 9
ENDMDL
MODEL 7
REMARK VINA RESULT:      -7.7      1.739      3.046
REMARK  Name = 
REMARK  9 active torsions:
REMARK  status: ('A' for Active; 'I' for Inactive)
REMARK    1  A    between atoms: C_2  and  O_3
REMARK    2  A    between atoms: O_3  and  C_4
REMARK    3  A    between atoms: C_4  and  C_5
REMARK    4  A    between atoms: C_4  and  C_20
REMARK    5  A    between atoms: C_4  and  C_26
REMARK    6  A    between atoms: C_5  and  O_7
REMARK    7  A    between atoms: O_7  and  C_8
REMARK    8  A    between atoms: C_8  and  C_9
REMARK    9  A    between atoms: N_11  and  C_12
REMARK                            x       y       z     vdW  Elec       q    Type
REMARK                         _______ _______ _______ _____ _____    ______ ____
ROOT
ATOM      1  C   UNL     1      37.550  -0.096  14.172  0.00  0.00    +0.000 C 
ENDROOT
BRANCH   1   2
ATOM      2  C   UNL     1      36.516   0.670  14.985  0.00  0.00    +0.000 A 
ATOM      3  C   UNL     1      35.815   1.704  14.404  0.00  0.00    +0.000 A 
ATOM      4  C   UNL     1      34.872   2.425  15.103  0.00  0.00    +0.000 A 
ATOM      5  C   UNL     1      34.621   2.099  16.427  0.00  0.00    +0.000 A 
ATOM      6  C   UNL     1      35.324   1.053  17.030  0.00  0.00    +0.000 A 
ATOM      7  C   UNL     1      36.258   0.361  16.292  0.00  0.00    +0.000 A 
ENDBRANCH   1   2
BRANCH   1   8
ATOM      8  C   UNL     1      37.711  -1.425  14.879  0.00  0.00    +0.000 A 
ATOM      9  C   UNL     1      38.630  -1.518  15.878  0.00  0.00    +0.000 A 
ATOM     10  C   UNL     1      38.793  -2.731  16.543  0.00  0.00    +0.000 A 
ATOM     11  C   UNL     1      38.003  -3.788  16.151  0.00  0.00    +0.000 A 
ATOM     12  C   UNL     1      37.069  -3.702  15.141  0.00  0.00    +0.000 A 
ATOM     13  C   UNL     1      36.921  -2.477  14.486  0.00  0.00    +0.000 A 
ENDBRANCH   1   8
BRANCH   1  14
ATOM     14  C   UNL     1      38.807   0.626  14.343  0.00  0.00    +0.000 C 
ATOM     15  O   UNL     1      39.765   0.279  13.569  0.00  0.00    +0.000 OA
BRANCH  14  16
ATOM     16  O   UNL     1      39.080   1.639  15.239  0.00  0.00    +0.000 OA
BRANCH  16  17
ATOM     17  C   UNL     1      38.933   2.971  14.836  0.00  0.00    +0.000 C 
BRANCH  17  18
ATOM     18  C   UNL     1      38.690   3.867  16.000  0.00  0.00    +0.000 C 
ATOM     19  O   UNL     1      37.785   3.543  16.806  0.00  0.00    +0.000 OA
ATOM     20  N   UNL     1      39.416   5.046  16.235  0.00  0.00    +0.000 NA
BRANCH  20  21
ATOM     21  C   UNL     1      39.184   5.904  17.348  0.00  0.00    +0.000 A 
ATOM     22  C   UNL     1      39.752   5.722  18.590  0.00  0.00    +0.000 A 
ATOM     23  C   UNL     1      39.490   6.594  19.644  0.00  0.00    +0.000 A 
ATOM     24  C   UNL     1      38.650   7.677  19.487  0.00  0.00    +0.000 A 
ATOM     25  C   UNL     1      38.366   8.619  20.615  0.00  0.00    +0.000 C 
ATOM     26  C   UNL     1      38.082   7.859  18.244  0.00  0.00    +0.000 A 
ATOM     27  C   UNL     1      37.177   9.030  18.080  0.00  0.00    +0.000 C 
ATOM     28  C   UNL     1      38.344   6.987  17.191  0.00  0.00    +0.000 A 
ENDBRANCH  20  21
ENDBRANCH  17  18
ENDBRANCH  16  17
ENDBRANCH  14  16
ENDBRANCH   1  14
BRANCH   1  29
ATOM     29  O   UNL     1      37.146  -0.259  12.897  0.00  0.00    +0.000 OA
BRANCH  29  31
ATOM     30  C   UNL     1      37.220   1.177  10.910  0.00  0.00    +0.000 C 
ATOM     31  C   UNL     1      37.842   0.255  11.867  0.00  0.00    +0.000 C 
ENDBRANCH  29  31
ENDBRANCH   1  29
TORSDOF 9
ENDMDL
MODEL 8
REMARK VINA RESULT:      -7.7      1.644      3.876
REMARK  Name = 
REMARK  9 active torsions:
REMARK  status: ('A' for Active; 'I' for Inactive)
REMARK    1  A    between atoms: C_2  and  O_3
REMARK    2  A    between atoms: O_3  and  C_4
REMARK    3  A    between atoms: C_4  and  C_5
REMARK    4  A    between atoms: C_4  and  C_20
REMARK    5  A    between atoms: C_4  and  C_26
REMARK    6  A    between atoms: C_5  and  O_7
REMARK    7  A    between atoms: O_7  and  C_8
REMARK    8  A    between atoms: C_8  and  C_9
REMARK    9  A    between atoms: N_11  and  C_12
REMARK                            x       y       z     vdW  Elec       q    Type
REMARK                         _______ _______ _______ _____ _____    ______ ____
ROOT
ATOM      1  C   UNL     1      37.517  -1.717  15.920  0.00  0.00    +0.000 C 
ENDROOT
BRANCH   1   2
ATOM      2  C   UNL     1      38.628  -1.852  14.888  0.00  0.00    +0.000 A 
ATOM      3  C   UNL     1      39.904  -1.430  15.194  0.00  0.00    +0.000 A 
ATOM      4  C   UNL     1      40.938  -1.532  14.290  0.00  0.00    +0.000 A 
ATOM      5  C   UNL     1      40.688  -2.074  13.038  0.00  0.00    +0.000 A 
ATOM      6  C   UNL     1      39.399  -2.506  12.714  0.00  0.00    +0.000 A 
ATOM      7  C   UNL     1      38.397  -2.384  13.650  0.00  0.00    +0.000 A 
ENDBRANCH   1   2
BRANCH   1   8
ATOM      8  C   UNL     1      36.691  -2.979  15.786  0.00  0.00    +0.000 A 
ATOM      9  C   UNL     1      37.095  -4.090  16.460  0.00  0.00    +0.000 A 
ATOM     10  C   UNL     1      36.350  -5.261  16.352  0.00  0.00    +0.000 A 
ATOM     11  C   UNL     1      35.225  -5.234  15.557  0.00  0.00    +0.000 A 
ATOM     12  C   UNL     1      34.809  -4.114  14.871  0.00  0.00    +0.000 A 
ATOM     13  C   UNL     1      35.572  -2.949  14.992  0.00  0.00    +0.000 A 
ENDBRANCH   1   8
BRANCH   1  14
ATOM     14  C   UNL     1      36.678  -0.615  15.461  0.00  0.00    +0.000 C 
ATOM     15  O   UNL     1      35.552  -0.481  16.054  0.00  0.00    +0.000 OA
BRANCH  14  16
ATOM     16  O   UNL     1      36.959   0.299  14.468  0.00  0.00    +0.000 OA
BRANCH  16  17
ATOM     17  C   UNL     1      36.559   1.631  14.625  0.00  0.00    +0.000 C 
BRANCH  17  18
ATOM     18  C   UNL     1      37.605   2.435  15.314  0.00  0.00    +0.000 C 
ATOM     19  O   UNL     1      38.771   1.970  15.347  0.00  0.00    +0.000 OA
ATOM     20  N   UNL     1      37.353   3.675  15.924  0.00  0.00    +0.000 NA
BRANCH  20  21
ATOM     21  C   UNL     1      38.354   4.445  16.582  0.00  0.00    +0.000 A 
ATOM     22  C   UNL     1      38.415   4.620  17.948  0.00  0.00    +0.000 A 
ATOM     23  C   UNL     1      39.419   5.384  18.539  0.00  0.00    +0.000 A 
ATOM     24  C   UNL     1      40.395   5.997  17.780  0.00  0.00    +0.000 A 
ATOM     25  C   UNL     1      41.477   6.817  18.408  0.00  0.00    +0.000 C 
ATOM     26  C   UNL     1      40.334   5.820  16.413  0.00  0.00    +0.000 A 
ATOM     27  C   UNL     1      41.390   6.484  15.600  0.00  0.00    +0.000 C 
ATOM     28  C   UNL     1      39.330   5.058  15.823  0.00  0.00    +0.000 A 
ENDBRANCH  20  21
ENDBRANCH  17  18
ENDBRANCH  16  17
ENDBRANCH  14  16
ENDBRANCH   1  14
BRANCH   1  29
ATOM     29  O   UNL     1      38.019  -1.584  17.163  0.00  0.00    +0.000 OA
BRANCH  29  31
ATOM     30  C   UNL     1      37.116  -1.699  19.440  0.00  0.00    +0.000 C 
ATOM     31  C   UNL     1      37.304  -1.020  18.154  0.00  0.00    +0.000 C 
ENDBRANCH  29  31
ENDBRANCH   1  29
TORSDOF 9
ENDMDL
MODEL 9
REMARK VINA RESULT:      -7.7     23.619     25.965
REMARK  Name = 
REMARK  9 active torsions:
REMARK  status: ('A' for Active; 'I' for Inactive)
REMARK    1  A    between atoms: C_2  and  O_3
REMARK    2  A    between atoms: O_3  and  C_4
REMARK    3  A    between atoms: C_4  and  C_5
REMARK    4  A    between atoms: C_4  and  C_20
REMARK    5  A    between atoms: C_4  and  C_26
REMARK    6  A    between atoms: C_5  and  O_7
REMARK    7  A    between atoms: O_7  and  C_8
REMARK    8  A    between atoms: C_8  and  C_9
REMARK    9  A    between atoms: N_11  and  C_12
REMARK                            x       y       z     vdW  Elec       q    Type
REMARK                         _______ _______ _______ _____ _____    ______ ____
ROOT
ATOM      1  C   UNL     1      12.674   0.226  28.101  0.00  0.00    +0.000 C 
ENDROOT
BRANCH   1   2
ATOM      2  C   UNL     1      12.766   0.517  29.592  0.00  0.00    +0.000 A 
ATOM      3  C   UNL     1      11.773   1.243  30.212  0.00  0.00    +0.000 A 
ATOM      4  C   UNL     1      11.817   1.531  31.558  0.00  0.00    +0.000 A 
ATOM      5  C   UNL     1      12.891   1.077  32.309  0.00  0.00    +0.000 A 
ATOM      6  C   UNL     1      13.906   0.340  31.694  0.00  0.00    +0.000 A 
ATOM      7  C   UNL     1      13.819   0.077  30.345  0.00  0.00    +0.000 A 
ENDBRANCH   1   2
BRANCH   1   8
ATOM      8  C   UNL     1      12.564  -1.280  27.994  0.00  0.00    +0.000 A 
ATOM      9  C   UNL     1      12.074  -1.970  29.060  0.00  0.00    +0.000 A 
ATOM     10  C   UNL     1      11.963  -3.355  28.983  0.00  0.00    +0.000 A 
ATOM     11  C   UNL     1      12.359  -3.966  27.814  0.00  0.00    +0.000 A 
ATOM     12  C   UNL     1      12.856  -3.276  26.730  0.00  0.00    +0.000 A 
ATOM     13  C   UNL     1      12.960  -1.886  26.827  0.00  0.00    +0.000 A 
ENDBRANCH   1   8
BRANCH   1  14
ATOM     14  C   UNL     1      13.970   0.593  27.541  0.00  0.00    +0.000 C 
ATOM     15  O   UNL     1      14.105   1.816  27.190  0.00  0.00    +0.000 OA
BRANCH  14  16
ATOM     16  O   UNL     1      15.066  -0.223  27.350  0.00  0.00    +0.000 OA
BRANCH  16  17
ATOM     17  C   UNL     1      16.352   0.313  27.471  0.00  0.00    +0.000 C 
BRANCH  17  18
ATOM     18  C   UNL     1      17.135   0.139  26.216  0.00  0.00    +0.000 C 
ATOM     19  O   UNL     1      16.565   0.414  25.132  0.00  0.00    +0.000 OA
ATOM     20  N   UNL     1      18.463  -0.315  26.188  0.00  0.00    +0.000 NA
BRANCH  20  21
ATOM     21  C   UNL     1      19.211  -0.481  24.987  0.00  0.00    +0.000 A 
ATOM     22  C   UNL     1      19.950   0.521  24.397  0.00  0.00    +0.000 A 
ATOM     23  C   UNL     1      20.665   0.301  23.221  0.00  0.00    +0.000 A 
ATOM     24  C   UNL     1      20.663  -0.931  22.600  0.00  0.00    +0.000 A 
ATOM     25  C   UNL     1      21.430  -1.174  21.339  0.00  0.00    +0.000 C 
ATOM     26  C   UNL     1      19.924  -1.934  23.192  0.00  0.00    +0.000 A 
ATOM     27  C   UNL     1      19.926  -3.261  22.517  0.00  0.00    +0.000 C 
ATOM     28  C   UNL     1      19.209  -1.713  24.366  0.00  0.00    +0.000 A 
ENDBRANCH  20  21
ENDBRANCH  17  18
ENDBRANCH  16  17
ENDBRANCH  14  16
ENDBRANCH   1  14
BRANCH   1  29
ATOM     29  O   UNL     1      11.609   0.840  27.548  0.00  0.00    +0.000 OA
BRANCH  29  31
ATOM     30  C   UNL     1       9.917   0.896  25.774  0.00  0.00    +0.000 C 
ATOM     31  C   UNL     1      11.281   0.653  26.257  0.00  0.00    +0.000 C 
ENDBRANCH  29  31
ENDBRANCH   1  29
TORSDOF 9
ENDMDL
MODEL 10
REMARK VINA RESULT:      -7.6      4.717     10.030
REMARK  Name = 
REMARK  9 active torsions:
REMARK  status: ('A' for Active; 'I' for Inactive)
REMARK    1  A    between atoms: C_2  and  O_3
REMARK    2  A    between atoms: O_3  and  C_4
REMARK    3  A    between atoms: C_4  and  C_5
REMARK    4  A    between atoms: C_4  and  C_20
REMARK    5  A    between atoms: C_4  and  C_26
REMARK    6  A    between atoms: C_5  and  O_7
REMARK    7  A    between atoms: O_7  and  C_8
REMARK    8  A    between atoms: C_8  and  C_9
REMARK    9  A    between atoms: N_11  and  C_12
REMARK                            x       y       z     vdW  Elec       q    Type
REMARK                         _______ _______ _______ _____ _____    ______ ____
ROOT
ATOM      1  C   UNL     1      37.828  -1.347  15.977  0.00  0.00    +0.000 C 
ENDROOT
BRANCH   1   2
ATOM      2  C   UNL     1      39.208  -1.295  15.338  0.00  0.00    +0.000 A 
ATOM      3  C   UNL     1      39.704  -0.097  14.872  0.00  0.00    +0.000 A 
ATOM      4  C   UNL     1      40.947  -0.004  14.286  0.00  0.00    +0.000 A 
ATOM      5  C   UNL     1      41.721  -1.148  14.164  0.00  0.00    +0.000 A 
ATOM      6  C   UNL     1      41.232  -2.370  14.632  0.00  0.00    +0.000 A 
ATOM      7  C   UNL     1      39.983  -2.414  15.210  0.00  0.00    +0.000 A 
ENDBRANCH   1   2
BRANCH   1   8
ATOM      8  C   UNL     1      38.026  -2.056  17.300  0.00  0.00    +0.000 A 
ATOM      9  C   UNL     1      38.638  -3.271  17.297  0.00  0.00    +0.000 A 
ATOM     10  C   UNL     1      38.832  -3.940  18.502  0.00  0.00    +0.000 A 
ATOM     11  C   UNL     1      38.388  -3.328  19.653  0.00  0.00    +0.000 A 
ATOM     12  C   UNL     1      37.767  -2.098  19.666  0.00  0.00    +0.000 A 
ATOM     13  C   UNL     1      37.581  -1.443  18.445  0.00  0.00    +0.000 A 
ENDBRANCH   1   8
BRANCH   1  14
ATOM     14  C   UNL     1      37.033  -2.239  15.137  0.00  0.00    +0.000 C 
ATOM     15  O   UNL     1      37.088  -2.022  13.877  0.00  0.00    +0.000 OA
BRANCH  14  16
ATOM     16  O   UNL     1      36.235  -3.288  15.544  0.00  0.00    +0.000 OA
BRANCH  16  17
ATOM     17  C   UNL     1      34.847  -3.119  15.587  0.00  0.00    +0.000 C 
BRANCH  17  18
ATOM     18  C   UNL     1      34.135  -4.394  15.295  0.00  0.00    +0.000 C 
ATOM     19  O   UNL     1      32.901  -4.334  15.074  0.00  0.00    +0.000 OA
ATOM     20  N   UNL     1      34.770  -5.646  15.258  0.00  0.00    +0.000 NA
BRANCH  20  21
ATOM     21  C   UNL     1      34.089  -6.865  14.979  0.00  0.00    +0.000 A 
ATOM     22  C   UNL     1      33.515  -7.663  15.945  0.00  0.00    +0.000 A 
ATOM     23  C   UNL     1      32.859  -8.847  15.613  0.00  0.00    +0.000 A 
ATOM     24  C   UNL     1      32.757  -9.268  14.303  0.00  0.00    +0.000 A 
ATOM     25  C   UNL     1      32.052 -10.537  13.940  0.00  0.00    +0.000 C 
ATOM     26  C   UNL     1      33.331  -8.468  13.337  0.00  0.00    +0.000 A 
ATOM     27  C   UNL     1      33.217  -8.928  11.926  0.00  0.00    +0.000 C 
ATOM     28  C   UNL     1      33.987  -7.286  13.670  0.00  0.00    +0.000 A 
ENDBRANCH  20  21
ENDBRANCH  17  18
ENDBRANCH  16  17
ENDBRANCH  14  16
ENDBRANCH   1  14
BRANCH   1  29
ATOM     29  O   UNL     1      37.322  -0.110  16.148  0.00  0.00    +0.000 OA
BRANCH  29  31
ATOM     30  C   UNL     1      35.036   0.603  16.677  0.00  0.00    +0.000 C 
ATOM     31  C   UNL     1      36.083   0.208  15.729  0.00  0.00    +0.000 C 
ENDBRANCH  29  31
ENDBRANCH   1  29
TORSDOF 9
ENDMDL
