MODEL 1
REMARK VINA RESULT:      -7.2      0.000      0.000
REMARK  Name = 
REMARK  4 active torsions:
REMARK  status: ('A' for Active; 'I' for Inactive)
REMARK    1  A    between atoms: C_2  and  C_3
REMARK    2  A    between atoms: C_3  and  S_4
REMARK    3  A    between atoms: S_4  and  C_5
REMARK    4  A    between atoms: C_7  and  C_8
REMARK                            x       y       z     vdW  Elec       q    Type
REMARK                         _______ _______ _______ _____ _____    ______ ____
ROOT
ATOM      1  C   UNL     1      16.082  11.613  36.570  0.00  0.00    +0.000 A 
ATOM      2  N   UNL     1      16.061  11.981  35.277  0.00  0.00    +0.000 NA
ATOM      3  C   UNL     1      14.881  12.188  34.627  0.00  0.00    +0.000 A 
ATOM      4  N   UNL     1      13.720  12.026  35.283  0.00  0.00    +0.000 NA
ATOM      5  C   UNL     1      13.665  11.659  36.577  0.00  0.00    +0.000 A 
ATOM      6  C   UNL     1      14.865  11.449  37.231  0.00  0.00    +0.000 A 
ATOM      7  C   UNL     1      14.605  11.061  38.618  0.00  0.00    +0.000 C 
ATOM      8  C   UNL     1      13.140  10.697  38.664  0.00  0.00    +0.000 C 
ATOM      9  C   UNL     1      12.519  11.425  37.478  0.00  0.00    +0.000 C 
ENDROOT
BRANCH   3  10
ATOM     10  C   UNL     1      14.877  12.587  33.226  0.00  0.00    +0.000 A 
ATOM     11  C   UNL     1      14.007  13.591  32.812  0.00  0.00    +0.000 A 
ATOM     12  C   UNL     1      14.008  13.964  31.488  0.00  0.00    +0.000 A 
ATOM     13  C   UNL     1      14.849  13.360  30.598  0.00  0.00    +0.000 A 
ATOM     14  C   UNL     1      15.708  12.359  31.038  0.00  0.00    +0.000 A 
ATOM     15  C   UNL     1      15.727  11.965  32.361  0.00  0.00    +0.000 A 
ENDBRANCH   3  10
BRANCH   1  16
ATOM     16  S   UNL     1      17.641  11.346  37.399  0.00  0.00    +0.000 S 
BRANCH  16  17
ATOM     17  C   UNL     1      18.135   9.593  37.254  0.00  0.00    +0.000 C 
BRANCH  17  19
ATOM     18  O   UNL     1      17.623   8.699  35.066  0.00  0.00    +0.000 OA
ATOM     19  C   UNL     1      18.577   9.367  35.805  0.00  0.00    +0.000 C 
ENDBRANCH  17  19
ENDBRANCH  16  17
ENDBRANCH   1  16
TORSDOF 4
ENDMDL
MODEL 2
REMARK VINA RESULT:      -6.6      1.688      2.143
REMARK  Name = 
REMARK  4 active torsions:
REMARK  status: ('A' for Active; 'I' for Inactive)
REMARK    1  A    between atoms: C_2  and  C_3
REMARK    2  A    between atoms: C_3  and  S_4
REMARK    3  A    between atoms: S_4  and  C_5
REMARK    4  A    between atoms: C_7  and  C_8
REMARK                            x       y       z     vdW  Elec       q    Type
REMARK                         _______ _______ _______ _____ _____    ______ ____
ROOT
ATOM      1  C   UNL     1      17.219  10.458  36.241  0.00  0.00    +0.000 A 
ATOM      2  N   UNL     1      16.934  10.838  34.983  0.00  0.00    +0.000 NA
ATOM      3  C   UNL     1      15.744  11.431  34.683  0.00  0.00    +0.000 A 
ATOM      4  N   UNL     1      14.840  11.643  35.654  0.00  0.00    +0.000 NA
ATOM      5  C   UNL     1      15.058  11.290  36.935  0.00  0.00    +0.000 A 
ATOM      6  C   UNL     1      16.266  10.688  37.233  0.00  0.00    +0.000 A 
ATOM      7  C   UNL     1      16.319  10.379  38.663  0.00  0.00    +0.000 C 
ATOM      8  C   UNL     1      14.897  10.513  39.154  0.00  0.00    +0.000 C 
ATOM      9  C   UNL     1      14.218  11.426  38.141  0.00  0.00    +0.000 C 
ENDROOT
BRANCH   3  10
ATOM     10  C   UNL     1      15.452  11.836  33.315  0.00  0.00    +0.000 A 
ATOM     11  C   UNL     1      16.138  11.223  32.269  0.00  0.00    +0.000 A 
ATOM     12  C   UNL     1      15.858  11.608  30.978  0.00  0.00    +0.000 A 
ATOM     13  C   UNL     1      14.926  12.574  30.729  0.00  0.00    +0.000 A 
ATOM     14  C   UNL     1      14.256  13.169  31.792  0.00  0.00    +0.000 A 
ATOM     15  C   UNL     1      14.517  12.803  33.097  0.00  0.00    +0.000 A 
ENDBRANCH   3  10
BRANCH   1  16
ATOM     16  S   UNL     1      18.784   9.681  36.609  0.00  0.00    +0.000 S 
BRANCH  16  17
ATOM     17  C   UNL     1      19.771  10.755  37.709  0.00  0.00    +0.000 C 
BRANCH  17  19
ATOM     18  O   UNL     1      21.465   9.705  36.340  0.00  0.00    +0.000 OA
ATOM     19  C   UNL     1      21.238  10.351  37.538  0.00  0.00    +0.000 C 
ENDBRANCH  17  19
ENDBRANCH  16  17
ENDBRANCH   1  16
TORSDOF 4
ENDMDL
MODEL 3
REMARK VINA RESULT:      -6.5      2.426      5.912
REMARK  Name = 
REMARK  4 active torsions:
REMARK  status: ('A' for Active; 'I' for Inactive)
REMARK    1  A    between atoms: C_2  and  C_3
REMARK    2  A    between atoms: C_3  and  S_4
REMARK    3  A    between atoms: S_4  and  C_5
REMARK    4  A    between atoms: C_7  and  C_8
REMARK                            x       y       z     vdW  Elec       q    Type
REMARK                         _______ _______ _______ _____ _____    ______ ____
ROOT
ATOM      1  C   UNL     1      15.948  11.637  35.143  0.00  0.00    +0.000 A 
ATOM      2  N   UNL     1      16.316  10.998  36.267  0.00  0.00    +0.000 NA
ATOM      3  C   UNL     1      15.593  11.128  37.416  0.00  0.00    +0.000 A 
ATOM      4  N   UNL     1      14.495  11.901  37.429  0.00  0.00    +0.000 NA
ATOM      5  C   UNL     1      14.067  12.569  36.342  0.00  0.00    +0.000 A 
ATOM      6  C   UNL     1      14.805  12.435  35.181  0.00  0.00    +0.000 A 
ATOM      7  C   UNL     1      14.189  13.228  34.115  0.00  0.00    +0.000 C 
ATOM      8  C   UNL     1      13.216  14.148  34.813  0.00  0.00    +0.000 C 
ATOM      9  C   UNL     1      12.908  13.461  36.137  0.00  0.00    +0.000 C 
ENDROOT
BRANCH   3  10
ATOM     10  C   UNL     1      16.008  10.428  38.624  0.00  0.00    +0.000 A 
ATOM     11  C   UNL     1      15.059  10.155  39.605  0.00  0.00    +0.000 A 
ATOM     12  C   UNL     1      15.456   9.493  40.744  0.00  0.00    +0.000 A 
ATOM     13  C   UNL     1      16.757   9.113  40.908  0.00  0.00    +0.000 A 
ATOM     14  C   UNL     1      17.684   9.399  39.912  0.00  0.00    +0.000 A 
ATOM     15  C   UNL     1      17.314  10.061  38.759  0.00  0.00    +0.000 A 
ENDBRANCH   3  10
BRANCH   1  16
ATOM     16  S   UNL     1      16.912  11.452  33.651  0.00  0.00    +0.000 S 
BRANCH  16  17
ATOM     17  C   UNL     1      15.966  10.504  32.409  0.00  0.00    +0.000 C 
BRANCH  17  19
ATOM     18  O   UNL     1      14.578  11.410  30.649  0.00  0.00    +0.000 OA
ATOM     19  C   UNL     1      15.860  11.380  31.157  0.00  0.00    +0.000 C 
ENDBRANCH  17  19
ENDBRANCH  16  17
ENDBRANCH   1  16
TORSDOF 4
ENDMDL
MODEL 4
REMARK VINA RESULT:      -6.1     28.835     31.387
REMARK  Name = 
REMARK  4 active torsions:
REMARK  status: ('A' for Active; 'I' for Inactive)
REMARK    1  A    between atoms: C_2  and  C_3
REMARK    2  A    between atoms: C_3  and  S_4
REMARK    3  A    between atoms: S_4  and  C_5
REMARK    4  A    between atoms: C_7  and  C_8
REMARK                            x       y       z     vdW  Elec       q    Type
REMARK                         _______ _______ _______ _____ _____    ______ ____
ROOT
ATOM      1  C   UNL     1      31.407  20.900   9.359  0.00  0.00    +0.000 A 
ATOM      2  N   UNL     1      30.390  21.482  10.017  0.00  0.00    +0.000 NA
ATOM      3  C   UNL     1      30.520  21.853  11.323  0.00  0.00    +0.000 A 
ATOM      4  N   UNL     1      31.680  21.639  11.964  0.00  0.00    +0.000 NA
ATOM      5  C   UNL     1      32.741  21.063  11.369  0.00  0.00    +0.000 A 
ATOM      6  C   UNL     1      32.603  20.688  10.046  0.00  0.00    +0.000 A 
ATOM      7  C   UNL     1      33.850  20.084   9.575  0.00  0.00    +0.000 C 
ATOM      8  C   UNL     1      34.649  19.790  10.823  0.00  0.00    +0.000 C 
ATOM      9  C   UNL     1      34.089  20.737  11.878  0.00  0.00    +0.000 C 
ENDROOT
BRANCH   3  10
ATOM     10  C   UNL     1      29.406  22.482  12.019  0.00  0.00    +0.000 A 
ATOM     11  C   UNL     1      28.139  22.435  11.446  0.00  0.00    +0.000 A 
ATOM     12  C   UNL     1      27.090  23.030  12.108  0.00  0.00    +0.000 A 
ATOM     13  C   UNL     1      27.290  23.654  13.306  0.00  0.00    +0.000 A 
ATOM     14  C   UNL     1      28.566  23.685  13.856  0.00  0.00    +0.000 A 
ATOM     15  C   UNL     1      29.637  23.098  13.213  0.00  0.00    +0.000 A 
ENDBRANCH   3  10
BRANCH   1  16
ATOM     16  S   UNL     1      31.212  20.422   7.650  0.00  0.00    +0.000 S 
BRANCH  16  17
ATOM     17  C   UNL     1      31.046  21.908   6.600  0.00  0.00    +0.000 C 
BRANCH  17  19
ATOM     18  O   UNL     1      29.520  22.126   4.737  0.00  0.00    +0.000 OA
ATOM     19  C   UNL     1      30.615  21.433   5.209  0.00  0.00    +0.000 C 
ENDBRANCH  17  19
ENDBRANCH  16  17
ENDBRANCH   1  16
TORSDOF 4
ENDMDL
MODEL 5
REMARK VINA RESULT:      -6.0     21.547     23.738
REMARK  Name = 
REMARK  4 active torsions:
REMARK  status: ('A' for Active; 'I' for Inactive)
REMARK    1  A    between atoms: C_2  and  C_3
REMARK    2  A    between atoms: C_3  and  S_4
REMARK    3  A    between atoms: S_4  and  C_5
REMARK    4  A    between atoms: C_7  and  C_8
REMARK                            x       y       z     vdW  Elec       q    Type
REMARK                         _______ _______ _______ _____ _____    ______ ____
ROOT
ATOM      1  C   UNL     1      22.199  -9.110  23.650  0.00  0.00    +0.000 A 
ATOM      2  N   UNL     1      21.169  -8.645  24.379  0.00  0.00    +0.000 NA
ATOM      3  C   UNL     1      21.250  -7.445  25.020  0.00  0.00    +0.000 A 
ATOM      4  N   UNL     1      22.370  -6.712  24.925  0.00  0.00    +0.000 NA
ATOM      5  C   UNL     1      23.440  -7.112  24.213  0.00  0.00    +0.000 A 
ATOM      6  C   UNL     1      23.353  -8.331  23.565  0.00  0.00    +0.000 A 
ATOM      7  C   UNL     1      24.602  -8.594  22.849  0.00  0.00    +0.000 C 
ATOM      8  C   UNL     1      25.599  -7.605  23.405  0.00  0.00    +0.000 C 
ATOM      9  C   UNL     1      24.751  -6.476  23.977  0.00  0.00    +0.000 C 
ENDROOT
BRANCH   3  10
ATOM     10  C   UNL     1      20.123  -6.959  25.805  0.00  0.00    +0.000 A 
ATOM     11  C   UNL     1      19.318  -7.878  26.472  0.00  0.00    +0.000 A 
ATOM     12  C   UNL     1      18.256  -7.413  27.213  0.00  0.00    +0.000 A 
ATOM     13  C   UNL     1      17.999  -6.075  27.292  0.00  0.00    +0.000 A 
ATOM     14  C   UNL     1      18.819  -5.179  26.616  0.00  0.00    +0.000 A 
ATOM     15  C   UNL     1      19.891  -5.617  25.865  0.00  0.00    +0.000 A 
ENDBRANCH   3  10
BRANCH   1  16
ATOM     16  S   UNL     1      22.070 -10.685  22.819  0.00  0.00    +0.000 S 
BRANCH  16  17
ATOM     17  C   UNL     1      21.834 -10.429  21.025  0.00  0.00    +0.000 C 
BRANCH  17  19
ATOM     18  O   UNL     1      19.595  -9.539  21.221  0.00  0.00    +0.000 OA
ATOM     19  C   UNL     1      20.891  -9.234  20.860  0.00  0.00    +0.000 C 
ENDBRANCH  17  19
ENDBRANCH  16  17
ENDBRANCH   1  16
TORSDOF 4
ENDMDL
MODEL 6
REMARK VINA RESULT:      -5.9      3.041      4.385
REMARK  Name = 
REMARK  4 active torsions:
REMARK  status: ('A' for Active; 'I' for Inactive)
REMARK    1  A    between atoms: C_2  and  C_3
REMARK    2  A    between atoms: C_3  and  S_4
REMARK    3  A    between atoms: S_4  and  C_5
REMARK    4  A    between atoms: C_7  and  C_8
REMARK                            x       y       z     vdW  Elec       q    Type
REMARK                         _______ _______ _______ _____ _____    ______ ____
ROOT
ATOM      1  C   UNL     1      19.364  10.144  38.013  0.00  0.00    +0.000 A 
ATOM      2  N   UNL     1      18.771  10.448  36.846  0.00  0.00    +0.000 NA
ATOM      3  C   UNL     1      17.414  10.518  36.747  0.00  0.00    +0.000 A 
ATOM      4  N   UNL     1      16.653  10.283  37.828  0.00  0.00    +0.000 NA
ATOM      5  C   UNL     1      17.176   9.975  39.029  0.00  0.00    +0.000 A 
ATOM      6  C   UNL     1      18.554   9.904  39.123  0.00  0.00    +0.000 A 
ATOM      7  C   UNL     1      18.934   9.560  40.494  0.00  0.00    +0.000 C 
ATOM      8  C   UNL     1      17.664   9.069  41.150  0.00  0.00    +0.000 C 
ATOM      9  C   UNL     1      16.538   9.682  40.327  0.00  0.00    +0.000 C 
ENDROOT
BRANCH   3  10
ATOM     10  C   UNL     1      16.789  10.848  35.473  0.00  0.00    +0.000 A 
ATOM     11  C   UNL     1      17.317  10.311  34.303  0.00  0.00    +0.000 A 
ATOM     12  C   UNL     1      16.723  10.625  33.102  0.00  0.00    +0.000 A 
ATOM     13  C   UNL     1      15.636  11.449  33.061  0.00  0.00    +0.000 A 
ATOM     14  C   UNL     1      15.129  11.973  34.245  0.00  0.00    +0.000 A 
ATOM     15  C   UNL     1      15.705  11.675  35.464  0.00  0.00    +0.000 A 
ENDBRANCH   3  10
BRANCH   1  16
ATOM     16  S   UNL     1      21.145  10.058  38.118  0.00  0.00    +0.000 S 
BRANCH  16  17
ATOM     17  C   UNL     1      21.856   9.775  36.459  0.00  0.00    +0.000 C 
BRANCH  17  19
ATOM     18  O   UNL     1      24.191   9.560  35.871  0.00  0.00    +0.000 OA
ATOM     19  C   UNL     1      23.258  10.390  36.457  0.00  0.00    +0.000 C 
ENDBRANCH  17  19
ENDBRANCH  16  17
ENDBRANCH   1  16
TORSDOF 4
ENDMDL
MODEL 7
REMARK VINA RESULT:      -5.9     20.782     22.796
REMARK  Name = 
REMARK  4 active torsions:
REMARK  status: ('A' for Active; 'I' for Inactive)
REMARK    1  A    between atoms: C_2  and  C_3
REMARK    2  A    between atoms: C_3  and  S_4
REMARK    3  A    between atoms: S_4  and  C_5
REMARK    4  A    between atoms: C_7  and  C_8
REMARK                            x       y       z     vdW  Elec       q    Type
REMARK                         _______ _______ _______ _____ _____    ______ ____
ROOT
ATOM      1  C   UNL     1      20.558  -8.819  26.510  0.00  0.00    +0.000 A 
ATOM      2  N   UNL     1      21.723  -8.825  25.838  0.00  0.00    +0.000 NA
ATOM      3  C   UNL     1      22.160  -7.713  25.184  0.00  0.00    +0.000 A 
ATOM      4  N   UNL     1      21.423  -6.590  25.209  0.00  0.00    +0.000 NA
ATOM      5  C   UNL     1      20.249  -6.510  25.862  0.00  0.00    +0.000 A 
ATOM      6  C   UNL     1      19.809  -7.642  26.522  0.00  0.00    +0.000 A 
ATOM      7  C   UNL     1      18.525  -7.364  27.168  0.00  0.00    +0.000 C 
ATOM      8  C   UNL     1      18.035  -6.077  26.548  0.00  0.00    +0.000 C 
ATOM      9  C   UNL     1      19.291  -5.397  26.016  0.00  0.00    +0.000 C 
ENDROOT
BRANCH   3  10
ATOM     10  C   UNL     1      23.425  -7.739  24.461  0.00  0.00    +0.000 A 
ATOM     11  C   UNL     1      24.064  -6.536  24.175  0.00  0.00    +0.000 A 
ATOM     12  C   UNL     1      25.258  -6.566  23.493  0.00  0.00    +0.000 A 
ATOM     13  C   UNL     1      25.805  -7.756  23.104  0.00  0.00    +0.000 A 
ATOM     14  C   UNL     1      25.145  -8.942  23.403  0.00  0.00    +0.000 A 
ATOM     15  C   UNL     1      23.946  -8.942  24.086  0.00  0.00    +0.000 A 
ENDBRANCH   3  10
BRANCH   1  16
ATOM     16  S   UNL     1      20.005 -10.290  27.358  0.00  0.00    +0.000 S 
BRANCH  16  17
ATOM     17  C   UNL     1      20.521 -10.232  29.110  0.00  0.00    +0.000 C 
BRANCH  17  19
ATOM     18  O   UNL     1      19.615  -9.587  31.257  0.00  0.00    +0.000 OA
ATOM     19  C   UNL     1      19.313  -9.754  29.921  0.00  0.00    +0.000 C 
ENDBRANCH  17  19
ENDBRANCH  16  17
ENDBRANCH   1  16
TORSDOF 4
ENDMDL
MODEL 8
REMARK VINA RESULT:      -5.9     19.865     21.766
REMARK  Name = 
REMARK  4 active torsions:
REMARK  status: ('A' for Active; 'I' for Inactive)
REMARK    1  A    between atoms: C_2  and  C_3
REMARK    2  A    between atoms: C_3  and  S_4
REMARK    3  A    between atoms: S_4  and  C_5
REMARK    4  A    between atoms: C_7  and  C_8
REMARK                            x       y       z     vdW  Elec       q    Type
REMARK                         _______ _______ _______ _____ _____    ______ ____
ROOT
ATOM      1  C   UNL     1      34.218   2.426  36.445  0.00  0.00    +0.000 A 
ATOM      2  N   UNL     1      33.971   1.133  36.172  0.00  0.00    +0.000 NA
ATOM      3  C   UNL     1      33.470   0.756  34.962  0.00  0.00    +0.000 A 
ATOM      4  N   UNL     1      33.218   1.685  34.025  0.00  0.00    +0.000 NA
ATOM      5  C   UNL     1      33.442   2.997  34.228  0.00  0.00    +0.000 A 
ATOM      6  C   UNL     1      33.949   3.374  35.457  0.00  0.00    +0.000 A 
ATOM      7  C   UNL     1      34.125   4.826  35.490  0.00  0.00    +0.000 C 
ATOM      8  C   UNL     1      33.343   5.351  34.309  0.00  0.00    +0.000 C 
ATOM      9  C   UNL     1      33.240   4.169  33.353  0.00  0.00    +0.000 C 
ENDROOT
BRANCH   3  10
ATOM     10  C   UNL     1      33.208  -0.649  34.685  0.00  0.00    +0.000 A 
ATOM     11  C   UNL     1      32.258  -1.323  35.447  0.00  0.00    +0.000 A 
ATOM     12  C   UNL     1      32.014  -2.650  35.181  0.00  0.00    +0.000 A 
ATOM     13  C   UNL     1      32.693  -3.294  34.186  0.00  0.00    +0.000 A 
ATOM     14  C   UNL     1      33.636  -2.597  33.439  0.00  0.00    +0.000 A 
ATOM     15  C   UNL     1      33.901  -1.265  33.685  0.00  0.00    +0.000 A 
ENDBRANCH   3  10
BRANCH   1  16
ATOM     16  S   UNL     1      34.875   2.896  38.038  0.00  0.00    +0.000 S 
BRANCH  16  17
ATOM     17  C   UNL     1      36.695   3.025  37.951  0.00  0.00    +0.000 C 
BRANCH  17  19
ATOM     18  O   UNL     1      37.523   4.801  36.534  0.00  0.00    +0.000 OA
ATOM     19  C   UNL     1      37.035   4.510  37.791  0.00  0.00    +0.000 C 
ENDBRANCH  17  19
ENDBRANCH  16  17
ENDBRANCH   1  16
TORSDOF 4
ENDMDL
MODEL 9
REMARK VINA RESULT:      -5.9     18.131     20.201
REMARK  Name = 
REMARK  4 active torsions:
REMARK  status: ('A' for Active; 'I' for Inactive)
REMARK    1  A    between atoms: C_2  and  C_3
REMARK    2  A    between atoms: C_3  and  S_4
REMARK    3  A    between atoms: S_4  and  C_5
REMARK    4  A    between atoms: C_7  and  C_8
REMARK                            x       y       z     vdW  Elec       q    Type
REMARK                         _______ _______ _______ _____ _____    ______ ____
ROOT
ATOM      1  C   UNL     1      28.718  22.955  27.924  0.00  0.00    +0.000 A 
ATOM      2  N   UNL     1      29.553  22.642  28.930  0.00  0.00    +0.000 NA
ATOM      3  C   UNL     1      30.857  22.330  28.688  0.00  0.00    +0.000 A 
ATOM      4  N   UNL     1      31.322  22.337  27.428  0.00  0.00    +0.000 NA
ATOM      5  C   UNL     1      30.545  22.641  26.371  0.00  0.00    +0.000 A 
ATOM      6  C   UNL     1      29.223  22.955  26.623  0.00  0.00    +0.000 A 
ATOM      7  C   UNL     1      28.542  23.256  25.362  0.00  0.00    +0.000 C 
ATOM      8  C   UNL     1      29.465  22.748  24.279  0.00  0.00    +0.000 C 
ATOM      9  C   UNL     1      30.843  22.708  24.927  0.00  0.00    +0.000 C 
ENDROOT
BRANCH   3  10
ATOM     10  C   UNL     1      31.746  21.993  29.791  0.00  0.00    +0.000 A 
ATOM     11  C   UNL     1      31.212  21.852  31.069  0.00  0.00    +0.000 A 
ATOM     12  C   UNL     1      32.056  21.533  32.108  0.00  0.00    +0.000 A 
ATOM     13  C   UNL     1      33.392  21.357  31.888  0.00  0.00    +0.000 A 
ATOM     14  C   UNL     1      33.898  21.504  30.601  0.00  0.00    +0.000 A 
ATOM     15  C   UNL     1      33.075  21.824  29.541  0.00  0.00    +0.000 A 
ENDBRANCH   3  10
BRANCH   1  16
ATOM     16  S   UNL     1      27.013  23.358  28.266  0.00  0.00    +0.000 S 
BRANCH  16  17
ATOM     17  C   UNL     1      26.640  23.053  30.029  0.00  0.00    +0.000 C 
BRANCH  17  19
ATOM     18  O   UNL     1      25.604  21.195  31.179  0.00  0.00    +0.000 OA
ATOM     19  C   UNL     1      26.526  21.537  30.211  0.00  0.00    +0.000 C 
ENDBRANCH  17  19
ENDBRANCH  16  17
ENDBRANCH   1  16
TORSDOF 4
ENDMDL
MODEL 10
REMARK VINA RESULT:      -5.8      3.971      7.180
REMARK  Name = 
REMARK  4 active torsions:
REMARK  status: ('A' for Active; 'I' for Inactive)
REMARK    1  A    between atoms: C_2  and  C_3
REMARK    2  A    between atoms: C_3  and  S_4
REMARK    3  A    between atoms: S_4  and  C_5
REMARK    4  A    between atoms: C_7  and  C_8
REMARK                            x       y       z     vdW  Elec       q    Type
REMARK                         _______ _______ _______ _____ _____    ______ ____
ROOT
ATOM      1  C   UNL     1      18.459  10.093  37.531  0.00  0.00    +0.000 A 
ATOM      2  N   UNL     1      19.707  10.255  37.056  0.00  0.00    +0.000 NA
ATOM      3  C   UNL     1      20.791  10.104  37.869  0.00  0.00    +0.000 A 
ATOM      4  N   UNL     1      20.616   9.786  39.162  0.00  0.00    +0.000 NA
ATOM      5  C   UNL     1      19.398   9.608  39.706  0.00  0.00    +0.000 A 
ATOM      6  C   UNL     1      18.302   9.764  38.877  0.00  0.00    +0.000 A 
ATOM      7  C   UNL     1      17.074   9.532  39.640  0.00  0.00    +0.000 C 
ATOM      8  C   UNL     1      17.490   9.576  41.091  0.00  0.00    +0.000 C 
ATOM      9  C   UNL     1      18.981   9.263  41.080  0.00  0.00    +0.000 C 
ENDROOT
BRANCH   3  10
ATOM     10  C   UNL     1      22.135  10.283  37.337  0.00  0.00    +0.000 A 
ATOM     11  C   UNL     1      22.648   9.329  36.464  0.00  0.00    +0.000 A 
ATOM     12  C   UNL     1      23.918   9.504  35.964  0.00  0.00    +0.000 A 
ATOM     13  C   UNL     1      24.659  10.594  36.318  0.00  0.00    +0.000 A 
ATOM     14  C   UNL     1      24.121  11.533  37.192  0.00  0.00    +0.000 A 
ATOM     15  C   UNL     1      22.851  11.382  37.710  0.00  0.00    +0.000 A 
ENDBRANCH   3  10
BRANCH   1  16
ATOM     16  S   UNL     1      17.055  10.298  36.446  0.00  0.00    +0.000 S 
BRANCH  16  17
ATOM     17  C   UNL     1      17.559  10.022  34.712  0.00  0.00    +0.000 C 
BRANCH  17  19
ATOM     18  O   UNL     1      16.716  10.475  32.491  0.00  0.00    +0.000 OA
ATOM     19  C   UNL     1      16.377  10.429  33.828  0.00  0.00    +0.000 C 
ENDBRANCH  17  19
ENDBRANCH  16  17
ENDBRANCH   1  16
TORSDOF 4
ENDMDL
