MODEL 1
REMARK VINA RESULT:      -6.8      0.000      0.000
REMARK  Name = 
REMARK  2 active torsions:
REMARK  status: ('A' for Active; 'I' for Inactive)
REMARK    1  A    between atoms: N_11  and  C_12
REMARK    2  A    between atoms: C_12  and  C_13
REMARK                            x       y       z     vdW  Elec       q    Type
REMARK                         _______ _______ _______ _____ _____    ______ ____
ROOT
ATOM      1  C   UNL     1      24.388  25.919  27.143  0.00  0.00    +0.000 C 
ATOM      2  C   UNL     1      25.291  24.991  27.866  0.00  0.00    +0.000 A 
ATOM      3  C   UNL     1      25.251  24.969  29.220  0.00  0.00    +0.000 A 
ATOM      4  C   UNL     1      26.020  24.171  30.026  0.00  0.00    +0.000 A 
ATOM      5  O   UNL     1      25.963  24.162  31.410  0.00  0.00    +0.000 OA
ATOM      6  C   UNL     1      26.898  23.332  29.357  0.00  0.00    +0.000 A 
ATOM      7  C   UNL     1      27.800  22.407  30.053  0.00  0.00    +0.000 C 
ATOM      8  C   UNL     1      26.960  23.336  27.957  0.00  0.00    +0.000 A 
ATOM      9  S   UNL     1      27.875  22.486  26.769  0.00  0.00    +0.000 S 
ATOM     10  C   UNL     1      27.210  23.208  25.375  0.00  0.00    +0.000 A 
ATOM     11  N   UNL     1      27.466  23.019  23.978  0.00  0.00    +0.000 NA
ATOM     12  N   UNL     1      26.332  24.053  25.880  0.00  0.00    +0.000 NA
ATOM     13  C   UNL     1      26.181  24.143  27.171  0.00  0.00    +0.000 A 
ENDROOT
BRANCH  11  14
ATOM     14  C   UNL     1      26.782  23.742  22.957  0.00  0.00    +0.000 C 
BRANCH  14  15
ATOM     15  C   UNL     1      27.719  24.531  22.125  0.00  0.00    +0.000 A 
ATOM     16  C   UNL     1      27.414  25.847  21.878  0.00  0.00    +0.000 A 
ATOM     17  C   UNL     1      28.222  26.639  21.125  0.00  0.00    +0.000 A 
ATOM     18  C   UNL     1      29.370  26.107  20.599  0.00  0.00    +0.000 A 
ATOM     19  N   UNL     1      29.650  24.827  20.851  0.00  0.00    +0.000 NA
ATOM     20  C   UNL     1      28.874  24.018  21.591  0.00  0.00    +0.000 A 
ENDBRANCH  14  15
ENDBRANCH  11  14
TORSDOF 2
ENDMDL
MODEL 2
REMARK VINA RESULT:      -6.2      1.684      2.774
REMARK  Name = 
REMARK  2 active torsions:
REMARK  status: ('A' for Active; 'I' for Inactive)
REMARK    1  A    between atoms: N_11  and  C_12
REMARK    2  A    between atoms: C_12  and  C_13
REMARK                            x       y       z     vdW  Elec       q    Type
REMARK                         _______ _______ _______ _____ _____    ______ ____
ROOT
ATOM      1  C   UNL     1      27.554  22.558  29.430  0.00  0.00    +0.000 C 
ATOM      2  C   UNL     1      26.605  23.692  29.545  0.00  0.00    +0.000 A 
ATOM      3  C   UNL     1      26.346  24.201  30.773  0.00  0.00    +0.000 A 
ATOM      4  C   UNL     1      25.497  25.243  31.039  0.00  0.00    +0.000 A 
ATOM      5  O   UNL     1      25.246  25.751  32.303  0.00  0.00    +0.000 OA
ATOM      6  C   UNL     1      24.872  25.791  29.929  0.00  0.00    +0.000 A 
ATOM      7  C   UNL     1      23.930  26.912  30.019  0.00  0.00    +0.000 C 
ATOM      8  C   UNL     1      25.122  25.282  28.647  0.00  0.00    +0.000 A 
ATOM      9  S   UNL     1      24.578  25.653  27.055  0.00  0.00    +0.000 S 
ATOM     10  C   UNL     1      25.464  24.470  26.204  0.00  0.00    +0.000 A 
ATOM     11  N   UNL     1      25.543  24.143  24.811  0.00  0.00    +0.000 NA
ATOM     12  N   UNL     1      26.124  23.857  27.168  0.00  0.00    +0.000 NA
ATOM     13  C   UNL     1      25.976  24.239  28.404  0.00  0.00    +0.000 A 
ENDROOT
BRANCH  11  14
ATOM     14  C   UNL     1      26.365  23.094  24.303  0.00  0.00    +0.000 C 
BRANCH  14  15
ATOM     15  C   UNL     1      27.435  23.616  23.423  0.00  0.00    +0.000 A 
ATOM     16  C   UNL     1      27.092  24.544  22.469  0.00  0.00    +0.000 A 
ATOM     17  C   UNL     1      28.014  25.073  21.622  0.00  0.00    +0.000 A 
ATOM     18  C   UNL     1      29.319  24.667  21.724  0.00  0.00    +0.000 A 
ATOM     19  N   UNL     1      29.632  23.766  22.657  0.00  0.00    +0.000 NA
ATOM     20  C   UNL     1      28.747  23.225  23.510  0.00  0.00    +0.000 A 
ENDBRANCH  14  15
ENDBRANCH  11  14
TORSDOF 2
ENDMDL
MODEL 3
REMARK VINA RESULT:      -6.1      4.341      8.311
REMARK  Name = 
REMARK  2 active torsions:
REMARK  status: ('A' for Active; 'I' for Inactive)
REMARK    1  A    between atoms: N_11  and  C_12
REMARK    2  A    between atoms: C_12  and  C_13
REMARK                            x       y       z     vdW  Elec       q    Type
REMARK                         _______ _______ _______ _____ _____    ______ ____
ROOT
ATOM      1  C   UNL     1      31.485  23.097  24.526  0.00  0.00    +0.000 C 
ATOM      2  C   UNL     1      30.006  23.108  24.633  0.00  0.00    +0.000 A 
ATOM      3  C   UNL     1      29.274  23.224  23.500  0.00  0.00    +0.000 A 
ATOM      4  C   UNL     1      27.906  23.250  23.436  0.00  0.00    +0.000 A 
ATOM      5  O   UNL     1      27.173  23.368  22.265  0.00  0.00    +0.000 OA
ATOM      6  C   UNL     1      27.258  23.146  24.657  0.00  0.00    +0.000 A 
ATOM      7  C   UNL     1      25.796  23.156  24.786  0.00  0.00    +0.000 C 
ATOM      8  C   UNL     1      27.992  23.026  25.845  0.00  0.00    +0.000 A 
ATOM      9  S   UNL     1      27.601  22.878  27.517  0.00  0.00    +0.000 S 
ATOM     10  C   UNL     1      29.186  22.797  28.140  0.00  0.00    +0.000 A 
ATOM     11  N   UNL     1      29.690  22.666  29.475  0.00  0.00    +0.000 NA
ATOM     12  N   UNL     1      29.928  22.886  27.052  0.00  0.00    +0.000 NA
ATOM     13  C   UNL     1      29.361  23.002  25.885  0.00  0.00    +0.000 A 
ENDROOT
BRANCH  11  14
ATOM     14  C   UNL     1      31.083  22.617  29.780  0.00  0.00    +0.000 C 
BRANCH  14  15
ATOM     15  C   UNL     1      31.321  22.201  31.181  0.00  0.00    +0.000 A 
ATOM     16  C   UNL     1      30.229  21.956  31.977  0.00  0.00    +0.000 A 
ATOM     17  C   UNL     1      30.361  21.570  33.273  0.00  0.00    +0.000 A 
ATOM     18  C   UNL     1      31.620  21.424  33.797  0.00  0.00    +0.000 A 
ATOM     19  N   UNL     1      32.668  21.666  33.008  0.00  0.00    +0.000 NA
ATOM     20  C   UNL     1      32.572  22.047  31.724  0.00  0.00    +0.000 A 
ENDBRANCH  14  15
ENDBRANCH  11  14
TORSDOF 2
ENDMDL
MODEL 4
REMARK VINA RESULT:      -6.1     18.533     20.178
REMARK  Name = 
REMARK  2 active torsions:
REMARK  status: ('A' for Active; 'I' for Inactive)
REMARK    1  A    between atoms: N_11  and  C_12
REMARK    2  A    between atoms: C_12  and  C_13
REMARK                            x       y       z     vdW  Elec       q    Type
REMARK                         _______ _______ _______ _____ _____    ______ ____
ROOT
ATOM      1  C   UNL     1      21.293  12.895  40.209  0.00  0.00    +0.000 C 
ATOM      2  C   UNL     1      21.934  12.147  39.101  0.00  0.00    +0.000 A 
ATOM      3  C   UNL     1      23.266  12.295  38.902  0.00  0.00    +0.000 A 
ATOM      4  C   UNL     1      23.998  11.673  37.925  0.00  0.00    +0.000 A 
ATOM      5  O   UNL     1      25.361  11.836  37.738  0.00  0.00    +0.000 OA
ATOM      6  C   UNL     1      23.274  10.833  37.093  0.00  0.00    +0.000 A 
ATOM      7  C   UNL     1      23.888  10.084  35.991  0.00  0.00    +0.000 C 
ATOM      8  C   UNL     1      21.896  10.663  37.277  0.00  0.00    +0.000 A 
ATOM      9  S   UNL     1      20.660   9.748  36.498  0.00  0.00    +0.000 S 
ATOM     10  C   UNL     1      19.342  10.227  37.468  0.00  0.00    +0.000 A 
ATOM     11  N   UNL     1      17.951   9.884  37.441  0.00  0.00    +0.000 NA
ATOM     12  N   UNL     1      19.905  11.054  38.329  0.00  0.00    +0.000 NA
ATOM     13  C   UNL     1      21.184  11.294  38.261  0.00  0.00    +0.000 A 
ENDROOT
BRANCH  11  14
ATOM     14  C   UNL     1      17.002  10.411  38.365  0.00  0.00    +0.000 C 
BRANCH  14  15
ATOM     15  C   UNL     1      15.836  11.005  37.671  0.00  0.00    +0.000 A 
ATOM     16  C   UNL     1      14.624  10.996  38.319  0.00  0.00    +0.000 A 
ATOM     17  C   UNL     1      13.507  11.522  37.751  0.00  0.00    +0.000 A 
ATOM     18  C   UNL     1      13.594  12.073  36.499  0.00  0.00    +0.000 A 
ATOM     19  N   UNL     1      14.780  12.073  35.887  0.00  0.00    +0.000 NA
ATOM     20  C   UNL     1      15.903  11.563  36.420  0.00  0.00    +0.000 A 
ENDBRANCH  14  15
ENDBRANCH  11  14
TORSDOF 2
ENDMDL
MODEL 5
REMARK VINA RESULT:      -6.1      1.763      2.209
REMARK  Name = 
REMARK  2 active torsions:
REMARK  status: ('A' for Active; 'I' for Inactive)
REMARK    1  A    between atoms: N_11  and  C_12
REMARK    2  A    between atoms: C_12  and  C_13
REMARK                            x       y       z     vdW  Elec       q    Type
REMARK                         _______ _______ _______ _____ _____    ______ ____
ROOT
ATOM      1  C   UNL     1      23.047  26.454  26.201  0.00  0.00    +0.000 C 
ATOM      2  C   UNL     1      23.773  26.095  27.443  0.00  0.00    +0.000 A 
ATOM      3  C   UNL     1      23.407  26.688  28.604  0.00  0.00    +0.000 A 
ATOM      4  C   UNL     1      23.979  26.461  29.829  0.00  0.00    +0.000 A 
ATOM      5  O   UNL     1      23.590  27.077  31.007  0.00  0.00    +0.000 OA
ATOM      6  C   UNL     1      25.016  25.540  29.831  0.00  0.00    +0.000 A 
ATOM      7  C   UNL     1      25.747  25.170  31.048  0.00  0.00    +0.000 C 
ATOM      8  C   UNL     1      25.414  24.912  28.643  0.00  0.00    +0.000 A 
ATOM      9  S   UNL     1      26.612  23.749  28.215  0.00  0.00    +0.000 S 
ATOM     10  C   UNL     1      26.285  23.655  26.544  0.00  0.00    +0.000 A 
ATOM     11  N   UNL     1      26.876  22.886  25.489  0.00  0.00    +0.000 NA
ATOM     12  N   UNL     1      25.288  24.507  26.398  0.00  0.00    +0.000 NA
ATOM     13  C   UNL     1      24.827  25.154  27.430  0.00  0.00    +0.000 A 
ENDROOT
BRANCH  11  14
ATOM     14  C   UNL     1      26.440  22.961  24.133  0.00  0.00    +0.000 C 
BRANCH  14  15
ATOM     15  C   UNL     1      27.464  23.583  23.264  0.00  0.00    +0.000 A 
ATOM     16  C   UNL     1      27.050  24.509  22.337  0.00  0.00    +0.000 A 
ATOM     17  C   UNL     1      27.927  25.127  21.503  0.00  0.00    +0.000 A 
ATOM     18  C   UNL     1      29.259  24.814  21.589  0.00  0.00    +0.000 A 
ATOM     19  N   UNL     1      29.642  23.913  22.496  0.00  0.00    +0.000 NA
ATOM     20  C   UNL     1      28.802  23.286  23.336  0.00  0.00    +0.000 A 
ENDBRANCH  14  15
ENDBRANCH  11  14
TORSDOF 2
ENDMDL
MODEL 6
REMARK VINA RESULT:      -6.0      3.462      7.786
REMARK  Name = 
REMARK  2 active torsions:
REMARK  status: ('A' for Active; 'I' for Inactive)
REMARK    1  A    between atoms: N_11  and  C_12
REMARK    2  A    between atoms: C_12  and  C_13
REMARK                            x       y       z     vdW  Elec       q    Type
REMARK                         _______ _______ _______ _____ _____    ______ ____
ROOT
ATOM      1  C   UNL     1      29.279  22.717  23.821  0.00  0.00    +0.000 C 
ATOM      2  C   UNL     1      28.847  23.954  23.127  0.00  0.00    +0.000 A 
ATOM      3  C   UNL     1      29.423  24.269  21.942  0.00  0.00    +0.000 A 
ATOM      4  C   UNL     1      29.132  25.374  21.186  0.00  0.00    +0.000 A 
ATOM      5  O   UNL     1      29.731  25.679  19.974  0.00  0.00    +0.000 OA
ATOM      6  C   UNL     1      28.162  26.211  21.716  0.00  0.00    +0.000 A 
ATOM      7  C   UNL     1      27.721  27.440  21.047  0.00  0.00    +0.000 C 
ATOM      8  C   UNL     1      27.552  25.908  22.940  0.00  0.00    +0.000 A 
ATOM      9  S   UNL     1      26.345  26.649  23.924  0.00  0.00    +0.000 S 
ATOM     10  C   UNL     1      26.317  25.507  25.190  0.00  0.00    +0.000 A 
ATOM     11  N   UNL     1      25.552  25.430  26.399  0.00  0.00    +0.000 NA
ATOM     12  N   UNL     1      27.220  24.627  24.803  0.00  0.00    +0.000 NA
ATOM     13  C   UNL     1      27.858  24.798  23.680  0.00  0.00    +0.000 A 
ENDROOT
BRANCH  11  14
ATOM     14  C   UNL     1      25.688  24.366  27.339  0.00  0.00    +0.000 C 
BRANCH  14  15
ATOM     15  C   UNL     1      25.478  24.834  28.728  0.00  0.00    +0.000 A 
ATOM     16  C   UNL     1      24.751  25.984  28.920  0.00  0.00    +0.000 A 
ATOM     17  C   UNL     1      24.513  26.480  30.162  0.00  0.00    +0.000 A 
ATOM     18  C   UNL     1      25.012  25.814  31.251  0.00  0.00    +0.000 A 
ATOM     19  N   UNL     1      25.715  24.698  31.044  0.00  0.00    +0.000 NA
ATOM     20  C   UNL     1      25.968  24.181  29.830  0.00  0.00    +0.000 A 
ENDBRANCH  14  15
ENDBRANCH  11  14
TORSDOF 2
ENDMDL
MODEL 7
REMARK VINA RESULT:      -5.9     28.679     31.186
REMARK  Name = 
REMARK  2 active torsions:
REMARK  status: ('A' for Active; 'I' for Inactive)
REMARK    1  A    between atoms: N_11  and  C_12
REMARK    2  A    between atoms: C_12  and  C_13
REMARK                            x       y       z     vdW  Elec       q    Type
REMARK                         _______ _______ _______ _____ _____    ______ ____
ROOT
ATOM      1  C   UNL     1      30.067  -7.656  32.443  0.00  0.00    +0.000 C 
ATOM      2  C   UNL     1      31.045  -7.666  31.329  0.00  0.00    +0.000 A 
ATOM      3  C   UNL     1      30.875  -8.556  30.323  0.00  0.00    +0.000 A 
ATOM      4  C   UNL     1      31.691  -8.687  29.229  0.00  0.00    +0.000 A 
ATOM      5  O   UNL     1      31.499  -9.604  28.208  0.00  0.00    +0.000 OA
ATOM      6  C   UNL     1      32.768  -7.815  29.192  0.00  0.00    +0.000 A 
ATOM      7  C   UNL     1      33.748  -7.808  28.100  0.00  0.00    +0.000 C 
ATOM      8  C   UNL     1      32.967  -6.884  30.221  0.00  0.00    +0.000 A 
ATOM      9  S   UNL     1      34.134  -5.661  30.557  0.00  0.00    +0.000 S 
ATOM     10  C   UNL     1      33.492  -5.099  32.033  0.00  0.00    +0.000 A 
ATOM     11  N   UNL     1      33.916  -4.073  32.939  0.00  0.00    +0.000 NA
ATOM     12  N   UNL     1      32.430  -5.866  32.195  0.00  0.00    +0.000 NA
ATOM     13  C   UNL     1      32.138  -6.771  31.305  0.00  0.00    +0.000 A 
ENDROOT
BRANCH  11  14
ATOM     14  C   UNL     1      33.218  -3.761  34.142  0.00  0.00    +0.000 C 
BRANCH  14  15
ATOM     15  C   UNL     1      33.066  -2.299  34.322  0.00  0.00    +0.000 A 
ATOM     16  C   UNL     1      33.803  -1.468  33.514  0.00  0.00    +0.000 A 
ATOM     17  C   UNL     1      33.721  -0.115  33.614  0.00  0.00    +0.000 A 
ATOM     18  C   UNL     1      32.880   0.431  34.548  0.00  0.00    +0.000 A 
ATOM     19  N   UNL     1      32.171  -0.392  35.323  0.00  0.00    +0.000 NA
ATOM     20  C   UNL     1      32.228  -1.732  35.249  0.00  0.00    +0.000 A 
ENDBRANCH  14  15
ENDBRANCH  11  14
TORSDOF 2
ENDMDL
MODEL 8
REMARK VINA RESULT:      -5.9     13.659     17.422
REMARK  Name = 
REMARK  2 active torsions:
REMARK  status: ('A' for Active; 'I' for Inactive)
REMARK    1  A    between atoms: N_11  and  C_12
REMARK    2  A    between atoms: C_12  and  C_13
REMARK                            x       y       z     vdW  Elec       q    Type
REMARK                         _______ _______ _______ _____ _____    ______ ____
ROOT
ATOM      1  C   UNL     1      35.252  19.712  12.663  0.00  0.00    +0.000 C 
ATOM      2  C   UNL     1      35.188  19.843  11.188  0.00  0.00    +0.000 A 
ATOM      3  C   UNL     1      36.165  19.272  10.442  0.00  0.00    +0.000 A 
ATOM      4  C   UNL     1      36.244  19.306   9.075  0.00  0.00    +0.000 A 
ATOM      5  O   UNL     1      37.251  18.715   8.329  0.00  0.00    +0.000 OA
ATOM      6  C   UNL     1      35.219  19.994   8.443  0.00  0.00    +0.000 A 
ATOM      7  C   UNL     1      35.138  20.136   6.985  0.00  0.00    +0.000 C 
ATOM      8  C   UNL     1      34.197  20.594   9.191  0.00  0.00    +0.000 A 
ATOM      9  S   UNL     1      32.785  21.511   8.821  0.00  0.00    +0.000 S 
ATOM     10  C   UNL     1      32.226  21.765  10.412  0.00  0.00    +0.000 A 
ATOM     11  N   UNL     1      31.084  22.456  10.932  0.00  0.00    +0.000 NA
ATOM     12  N   UNL     1      33.136  21.144  11.139  0.00  0.00    +0.000 NA
ATOM     13  C   UNL     1      34.138  20.547  10.558  0.00  0.00    +0.000 A 
ENDROOT
BRANCH  11  14
ATOM     14  C   UNL     1      30.799  22.549  12.326  0.00  0.00    +0.000 C 
BRANCH  14  15
ATOM     15  C   UNL     1      29.390  22.933  12.571  0.00  0.00    +0.000 A 
ATOM     16  C   UNL     1      29.108  23.682  13.687  0.00  0.00    +0.000 A 
ATOM     17  C   UNL     1      27.841  24.076  13.983  0.00  0.00    +0.000 A 
ATOM     18  C   UNL     1      26.820  23.713  13.144  0.00  0.00    +0.000 A 
ATOM     19  N   UNL     1      27.114  22.986  12.064  0.00  0.00    +0.000 NA
ATOM     20  C   UNL     1      28.354  22.582  11.743  0.00  0.00    +0.000 A 
ENDBRANCH  14  15
ENDBRANCH  11  14
TORSDOF 2
ENDMDL
MODEL 9
REMARK VINA RESULT:      -5.8      3.331      6.966
REMARK  Name = 
REMARK  2 active torsions:
REMARK  status: ('A' for Active; 'I' for Inactive)
REMARK    1  A    between atoms: N_11  and  C_12
REMARK    2  A    between atoms: C_12  and  C_13
REMARK                            x       y       z     vdW  Elec       q    Type
REMARK                         _______ _______ _______ _____ _____    ______ ____
ROOT
ATOM      1  C   UNL     1      25.520  24.204  24.815  0.00  0.00    +0.000 C 
ATOM      2  C   UNL     1      26.957  23.850  24.726  0.00  0.00    +0.000 A 
ATOM      3  C   UNL     1      27.584  23.976  23.532  0.00  0.00    +0.000 A 
ATOM      4  C   UNL     1      28.902  23.689  23.292  0.00  0.00    +0.000 A 
ATOM      5  O   UNL     1      29.527  23.825  22.063  0.00  0.00    +0.000 OA
ATOM      6  C   UNL     1      29.616  23.236  24.392  0.00  0.00    +0.000 A 
ATOM      7  C   UNL     1      31.037  22.880  24.326  0.00  0.00    +0.000 C 
ATOM      8  C   UNL     1      28.990  23.098  25.638  0.00  0.00    +0.000 A 
ATOM      9  S   UNL     1      29.487  22.587  27.208  0.00  0.00    +0.000 S 
ATOM     10  C   UNL     1      27.999  22.780  28.018  0.00  0.00    +0.000 A 
ATOM     11  N   UNL     1      27.607  22.553  29.378  0.00  0.00    +0.000 NA
ATOM     12  N   UNL     1      27.205  23.220  27.060  0.00  0.00    +0.000 NA
ATOM     13  C   UNL     1      27.670  23.390  25.856  0.00  0.00    +0.000 A 
ENDROOT
BRANCH  11  14
ATOM     14  C   UNL     1      26.283  22.784  29.854  0.00  0.00    +0.000 C 
BRANCH  14  15
ATOM     15  C   UNL     1      26.097  24.187  30.290  0.00  0.00    +0.000 A 
ATOM     16  C   UNL     1      25.292  25.000  29.528  0.00  0.00    +0.000 A 
ATOM     17  C   UNL     1      25.070  26.299  29.860  0.00  0.00    +0.000 A 
ATOM     18  C   UNL     1      25.667  26.809  30.983  0.00  0.00    +0.000 A 
ATOM     19  N   UNL     1      26.445  26.004  31.710  0.00  0.00    +0.000 NA
ATOM     20  C   UNL     1      26.684  24.716  31.411  0.00  0.00    +0.000 A 
ENDBRANCH  14  15
ENDBRANCH  11  14
TORSDOF 2
ENDMDL
MODEL 10
REMARK VINA RESULT:      -5.7     21.338     23.121
REMARK  Name = 
REMARK  2 active torsions:
REMARK  status: ('A' for Active; 'I' for Inactive)
REMARK    1  A    between atoms: N_11  and  C_12
REMARK    2  A    between atoms: C_12  and  C_13
REMARK                            x       y       z     vdW  Elec       q    Type
REMARK                         _______ _______ _______ _____ _____    ______ ____
ROOT
ATOM      1  C   UNL     1      25.941   6.007  13.786  0.00  0.00    +0.000 C 
ATOM      2  C   UNL     1      26.414   5.968  15.192  0.00  0.00    +0.000 A 
ATOM      3  C   UNL     1      27.488   6.717  15.536  0.00  0.00    +0.000 A 
ATOM      4  C   UNL     1      28.041   6.787  16.788  0.00  0.00    +0.000 A 
ATOM      5  O   UNL     1      29.141   7.560  17.122  0.00  0.00    +0.000 OA
ATOM      6  C   UNL     1      27.416   6.009  17.751  0.00  0.00    +0.000 A 
ATOM      7  C   UNL     1      27.867   5.956  19.146  0.00  0.00    +0.000 C 
ATOM      8  C   UNL     1      26.302   5.226  17.420  0.00  0.00    +0.000 A 
ATOM      9  S   UNL     1      25.263   4.151  18.278  0.00  0.00    +0.000 S 
ATOM     10  C   UNL     1      24.233   3.715  16.990  0.00  0.00    +0.000 A 
ATOM     11  N   UNL     1      23.100   2.840  16.917  0.00  0.00    +0.000 NA
ATOM     12  N   UNL     1      24.729   4.404  15.980  0.00  0.00    +0.000 NA
ATOM     13  C   UNL     1      25.766   5.171  16.161  0.00  0.00    +0.000 A 
ENDROOT
BRANCH  11  14
ATOM     14  C   UNL     1      22.368   2.615  15.715  0.00  0.00    +0.000 C 
BRANCH  14  15
ATOM     15  C   UNL     1      20.998   2.127  15.993  0.00  0.00    +0.000 A 
ATOM     16  C   UNL     1      20.442   2.422  17.215  0.00  0.00    +0.000 A 
ATOM     17  C   UNL     1      19.190   2.012  17.548  0.00  0.00    +0.000 A 
ATOM     18  C   UNL     1      18.466   1.285  16.639  0.00  0.00    +0.000 A 
ATOM     19  N   UNL     1      19.023   1.009  15.458  0.00  0.00    +0.000 NA
ATOM     20  C   UNL     1      20.256   1.400  15.097  0.00  0.00    +0.000 A 
ENDBRANCH  14  15
ENDBRANCH  11  14
TORSDOF 2
ENDMDL
