MODEL 1
REMARK VINA RESULT:      -7.6      0.000      0.000
REMARK  Name = 
REMARK  3 active torsions:
REMARK  status: ('A' for Active; 'I' for Inactive)
REMARK    1  A    between atoms: C_4  and  N_5
REMARK    2  A    between atoms: N_13  and  C_14
REMARK    3  A    between atoms: C_14  and  C_15
REMARK                            x       y       z     vdW  Elec       q    Type
REMARK                         _______ _______ _______ _____ _____    ______ ____
ROOT
ATOM      1  O   UNL     1      15.453  11.823  37.425  0.00  0.00    +0.000 OA
ATOM      2  C   UNL     1      15.746  11.523  36.239  0.00  0.00    +0.000 A 
ATOM      3  C   UNL     1      15.088  12.162  35.189  0.00  0.00    +0.000 A 
ATOM      4  C   UNL     1      15.410  11.833  33.889  0.00  0.00    +0.000 A 
ATOM      5  N   UNL     1      16.355  10.900  33.705  0.00  0.00    +0.000 NA
ATOM      6  C   UNL     1      16.980  10.294  34.750  0.00  0.00    +0.000 A 
ATOM      7  O   UNL     1      17.865   9.421  34.554  0.00  0.00    +0.000 OA
ATOM      8  N   UNL     1      16.692  10.589  36.030  0.00  0.00    +0.000 N 
ENDROOT
BRANCH   4   9
ATOM      9  N   UNL     1      14.773  12.450  32.773  0.00  0.00    +0.000 N 
ATOM     10  C   UNL     1      13.955  13.648  32.805  0.00  0.00    +0.000 C 
ATOM     11  C   UNL     1      14.044  14.269  31.432  0.00  0.00    +0.000 C 
ATOM     12  C   UNL     1      14.530  13.168  30.526  0.00  0.00    +0.000 C 
ATOM     13  C   UNL     1      14.831  11.991  31.416  0.00  0.00    +0.000 C 
ENDBRANCH   4   9
BRANCH   8  14
ATOM     14  C   UNL     1      17.384   9.917  37.125  0.00  0.00    +0.000 C 
BRANCH  14  15
ATOM     15  C   UNL     1      18.677  10.556  37.429  0.00  0.00    +0.000 A 
ATOM     16  C   UNL     1      19.838   9.856  37.207  0.00  0.00    +0.000 A 
ATOM     17  C   UNL     1      21.088  10.392  37.471  0.00  0.00    +0.000 A 
ATOM     18  C   UNL     1      21.208  11.666  37.970  0.00  0.00    +0.000 A 
ATOM     19  C   UNL     1      20.060  12.383  38.198  0.00  0.00    +0.000 A 
ATOM     20  C   UNL     1      18.805  11.829  37.929  0.00  0.00    +0.000 A 
ENDBRANCH  14  15
ENDBRANCH   8  14
TORSDOF 3
ENDMDL
MODEL 2
REMARK VINA RESULT:      -7.4      1.463      6.711
REMARK  Name = 
REMARK  3 active torsions:
REMARK  status: ('A' for Active; 'I' for Inactive)
REMARK    1  A    between atoms: C_4  and  N_5
REMARK    2  A    between atoms: N_13  and  C_14
REMARK    3  A    between atoms: C_14  and  C_15
REMARK                            x       y       z     vdW  Elec       q    Type
REMARK                         _______ _______ _______ _____ _____    ______ ____
ROOT
ATOM      1  O   UNL     1      17.419   9.885  32.979  0.00  0.00    +0.000 OA
ATOM      2  C   UNL     1      16.950  10.404  34.025  0.00  0.00    +0.000 A 
ATOM      3  C   UNL     1      17.708  10.390  35.195  0.00  0.00    +0.000 A 
ATOM      4  C   UNL     1      17.193  10.960  36.340  0.00  0.00    +0.000 A 
ATOM      5  N   UNL     1      15.971  11.506  36.262  0.00  0.00    +0.000 NA
ATOM      6  C   UNL     1      15.256  11.506  35.105  0.00  0.00    +0.000 A 
ATOM      7  O   UNL     1      14.110  12.024  35.054  0.00  0.00    +0.000 OA
ATOM      8  N   UNL     1      15.725  10.958  33.970  0.00  0.00    +0.000 N 
ENDROOT
BRANCH   4   9
ATOM      9  N   UNL     1      17.917  10.976  37.568  0.00  0.00    +0.000 N 
ATOM     10  C   UNL     1      17.686  10.117  38.714  0.00  0.00    +0.000 C 
ATOM     11  C   UNL     1      18.997  10.022  39.455  0.00  0.00    +0.000 C 
ATOM     12  C   UNL     1      19.814  11.193  38.976  0.00  0.00    +0.000 C 
ATOM     13  C   UNL     1      19.009  11.850  37.885  0.00  0.00    +0.000 C 
ENDBRANCH   4   9
BRANCH   8  14
ATOM     14  C   UNL     1      14.928  10.977  32.747  0.00  0.00    +0.000 C 
BRANCH  14  15
ATOM     15  C   UNL     1      15.162  12.201  31.959  0.00  0.00    +0.000 A 
ATOM     16  C   UNL     1      16.290  12.289  31.180  0.00  0.00    +0.000 A 
ATOM     17  C   UNL     1      16.575  13.409  30.414  0.00  0.00    +0.000 A 
ATOM     18  C   UNL     1      15.722  14.485  30.410  0.00  0.00    +0.000 A 
ATOM     19  C   UNL     1      14.588  14.416  31.182  0.00  0.00    +0.000 A 
ATOM     20  C   UNL     1      14.314  13.281  31.950  0.00  0.00    +0.000 A 
ENDBRANCH  14  15
ENDBRANCH   8  14
TORSDOF 3
ENDMDL
MODEL 3
REMARK VINA RESULT:      -6.2      2.807      4.176
REMARK  Name = 
REMARK  3 active torsions:
REMARK  status: ('A' for Active; 'I' for Inactive)
REMARK    1  A    between atoms: C_4  and  N_5
REMARK    2  A    between atoms: N_13  and  C_14
REMARK    3  A    between atoms: C_14  and  C_15
REMARK                            x       y       z     vdW  Elec       q    Type
REMARK                         _______ _______ _______ _____ _____    ______ ____
ROOT
ATOM      1  O   UNL     1      20.102  13.277  38.063  0.00  0.00    +0.000 OA
ATOM      2  C   UNL     1      19.262  12.346  37.967  0.00  0.00    +0.000 A 
ATOM      3  C   UNL     1      18.016  12.604  37.396  0.00  0.00    +0.000 A 
ATOM      4  C   UNL     1      17.096  11.583  37.291  0.00  0.00    +0.000 A 
ATOM      5  N   UNL     1      17.458  10.376  37.750  0.00  0.00    +0.000 NA
ATOM      6  C   UNL     1      18.681  10.154  38.302  0.00  0.00    +0.000 A 
ATOM      7  O   UNL     1      19.000   9.014  38.727  0.00  0.00    +0.000 OA
ATOM      8  N   UNL     1      19.603  11.126  38.422  0.00  0.00    +0.000 N 
ENDROOT
BRANCH   4   9
ATOM      9  N   UNL     1      15.806  11.783  36.719  0.00  0.00    +0.000 N 
ATOM     10  C   UNL     1      14.531  11.509  37.355  0.00  0.00    +0.000 C 
ATOM     11  C   UNL     1      13.519  12.424  36.710  0.00  0.00    +0.000 C 
ATOM     12  C   UNL     1      14.145  12.861  35.412  0.00  0.00    +0.000 C 
ATOM     13  C   UNL     1      15.542  12.295  35.406  0.00  0.00    +0.000 C 
ENDBRANCH   4   9
BRANCH   8  14
ATOM     14  C   UNL     1      20.906  10.850  39.019  0.00  0.00    +0.000 C 
BRANCH  14  15
ATOM     15  C   UNL     1      21.977  10.817  38.006  0.00  0.00    +0.000 A 
ATOM     16  C   UNL     1      23.102  11.582  38.196  0.00  0.00    +0.000 A 
ATOM     17  C   UNL     1      24.146  11.601  37.286  0.00  0.00    +0.000 A 
ATOM     18  C   UNL     1      24.090  10.839  36.145  0.00  0.00    +0.000 A 
ATOM     19  C   UNL     1      22.974  10.066  35.937  0.00  0.00    +0.000 A 
ATOM     20  C   UNL     1      21.927  10.058  36.863  0.00  0.00    +0.000 A 
ENDBRANCH  14  15
ENDBRANCH   8  14
TORSDOF 3
ENDMDL
MODEL 4
REMARK VINA RESULT:      -6.1     18.920     20.746
REMARK  Name = 
REMARK  3 active torsions:
REMARK  status: ('A' for Active; 'I' for Inactive)
REMARK    1  A    between atoms: C_4  and  N_5
REMARK    2  A    between atoms: N_13  and  C_14
REMARK    3  A    between atoms: C_14  and  C_15
REMARK                            x       y       z     vdW  Elec       q    Type
REMARK                         _______ _______ _______ _____ _____    ______ ____
ROOT
ATOM      1  O   UNL     1      25.830  22.970  23.124  0.00  0.00    +0.000 OA
ATOM      2  C   UNL     1      26.768  23.160  23.940  0.00  0.00    +0.000 A 
ATOM      3  C   UNL     1      26.518  23.055  25.308  0.00  0.00    +0.000 A 
ATOM      4  C   UNL     1      27.547  23.262  26.202  0.00  0.00    +0.000 A 
ATOM      5  N   UNL     1      28.753  23.558  25.696  0.00  0.00    +0.000 NA
ATOM      6  C   UNL     1      28.967  23.653  24.356  0.00  0.00    +0.000 A 
ATOM      7  O   UNL     1      30.107  23.932  23.903  0.00  0.00    +0.000 OA
ATOM      8  N   UNL     1      27.987  23.458  23.455  0.00  0.00    +0.000 N 
ENDROOT
BRANCH   4   9
ATOM      9  N   UNL     1      27.354  23.170  27.611  0.00  0.00    +0.000 N 
ATOM     10  C   UNL     1      26.354  23.876  28.390  0.00  0.00    +0.000 C 
ATOM     11  C   UNL     1      26.091  23.039  29.617  0.00  0.00    +0.000 C 
ATOM     12  C   UNL     1      27.278  22.118  29.735  0.00  0.00    +0.000 C 
ATOM     13  C   UNL     1      28.121  22.357  28.510  0.00  0.00    +0.000 C 
ENDBRANCH   4   9
BRANCH   8  14
ATOM     14  C   UNL     1      28.256  23.569  22.025  0.00  0.00    +0.000 C 
BRANCH  14  15
ATOM     15  C   UNL     1      28.324  24.975  21.588  0.00  0.00    +0.000 A 
ATOM     16  C   UNL     1      29.392  25.389  20.831  0.00  0.00    +0.000 A 
ATOM     17  C   UNL     1      29.523  26.695  20.386  0.00  0.00    +0.000 A 
ATOM     18  C   UNL     1      28.568  27.633  20.692  0.00  0.00    +0.000 A 
ATOM     19  C   UNL     1      27.491  27.239  21.446  0.00  0.00    +0.000 A 
ATOM     20  C   UNL     1      27.373  25.919  21.890  0.00  0.00    +0.000 A 
ENDBRANCH  14  15
ENDBRANCH   8  14
TORSDOF 3
ENDMDL
MODEL 5
REMARK VINA RESULT:      -6.0     20.697     22.498
REMARK  Name = 
REMARK  3 active torsions:
REMARK  status: ('A' for Active; 'I' for Inactive)
REMARK    1  A    between atoms: C_4  and  N_5
REMARK    2  A    between atoms: N_13  and  C_14
REMARK    3  A    between atoms: C_14  and  C_15
REMARK                            x       y       z     vdW  Elec       q    Type
REMARK                         _______ _______ _______ _____ _____    ______ ____
ROOT
ATOM      1  O   UNL     1      19.873  -9.524  27.283  0.00  0.00    +0.000 OA
ATOM      2  C   UNL     1      20.065  -8.464  26.634  0.00  0.00    +0.000 A 
ATOM      3  C   UNL     1      21.192  -8.353  25.820  0.00  0.00    +0.000 A 
ATOM      4  C   UNL     1      21.400  -7.190  25.109  0.00  0.00    +0.000 A 
ATOM      5  N   UNL     1      20.491  -6.214  25.242  0.00  0.00    +0.000 NA
ATOM      6  C   UNL     1      19.400  -6.351  26.043  0.00  0.00    +0.000 A 
ATOM      7  O   UNL     1      18.559  -5.422  26.153  0.00  0.00    +0.000 OA
ATOM      8  N   UNL     1      19.165  -7.470  26.752  0.00  0.00    +0.000 N 
ENDROOT
BRANCH   4   9
ATOM      9  N   UNL     1      22.533  -7.015  24.262  0.00  0.00    +0.000 N 
ATOM     10  C   UNL     1      23.681  -6.169  24.526  0.00  0.00    +0.000 C 
ATOM     11  C   UNL     1      24.840  -6.759  23.760  0.00  0.00    +0.000 C 
ATOM     12  C   UNL     1      24.217  -7.650  22.717  0.00  0.00    +0.000 C 
ATOM     13  C   UNL     1      22.736  -7.651  22.992  0.00  0.00    +0.000 C 
ENDBRANCH   4   9
BRANCH   8  14
ATOM     14  C   UNL     1      17.983  -7.581  27.601  0.00  0.00    +0.000 C 
BRANCH  14  15
ATOM     15  C   UNL     1      16.931  -8.400  26.971  0.00  0.00    +0.000 A 
ATOM     16  C   UNL     1      16.220  -7.882  25.917  0.00  0.00    +0.000 A 
ATOM     17  C   UNL     1      15.218  -8.594  25.278  0.00  0.00    +0.000 A 
ATOM     18  C   UNL     1      14.899  -9.866  25.686  0.00  0.00    +0.000 A 
ATOM     19  C   UNL     1      15.599 -10.403  26.738  0.00  0.00    +0.000 A 
ATOM     20  C   UNL     1      16.607  -9.672  27.374  0.00  0.00    +0.000 A 
ENDBRANCH  14  15
ENDBRANCH   8  14
TORSDOF 3
ENDMDL
MODEL 6
REMARK VINA RESULT:      -6.0     18.984     20.838
REMARK  Name = 
REMARK  3 active torsions:
REMARK  status: ('A' for Active; 'I' for Inactive)
REMARK    1  A    between atoms: C_4  and  N_5
REMARK    2  A    between atoms: N_13  and  C_14
REMARK    3  A    between atoms: C_14  and  C_15
REMARK                            x       y       z     vdW  Elec       q    Type
REMARK                         _______ _______ _______ _____ _____    ______ ____
ROOT
ATOM      1  O   UNL     1      30.030  24.106  24.006  0.00  0.00    +0.000 OA
ATOM      2  C   UNL     1      28.865  23.795  24.367  0.00  0.00    +0.000 A 
ATOM      3  C   UNL     1      28.568  23.711  25.726  0.00  0.00    +0.000 A 
ATOM      4  C   UNL     1      27.292  23.371  26.120  0.00  0.00    +0.000 A 
ATOM      5  N   UNL     1      26.390  23.137  25.155  0.00  0.00    +0.000 NA
ATOM      6  C   UNL     1      26.709  23.228  23.836  0.00  0.00    +0.000 A 
ATOM      7  O   UNL     1      25.847  23.004  22.947  0.00  0.00    +0.000 OA
ATOM      8  N   UNL     1      27.944  23.556  23.415  0.00  0.00    +0.000 N 
ENDROOT
BRANCH   4   9
ATOM      9  N   UNL     1      26.926  23.268  27.494  0.00  0.00    +0.000 N 
ATOM     10  C   UNL     1      27.616  22.495  28.510  0.00  0.00    +0.000 C 
ATOM     11  C   UNL     1      27.317  23.157  29.833  0.00  0.00    +0.000 C 
ATOM     12  C   UNL     1      26.097  24.006  29.589  0.00  0.00    +0.000 C 
ATOM     13  C   UNL     1      25.807  23.914  28.114  0.00  0.00    +0.000 C 
ENDBRANCH   4   9
BRANCH   8  14
ATOM     14  C   UNL     1      28.248  23.643  21.991  0.00  0.00    +0.000 C 
BRANCH  14  15
ATOM     15  C   UNL     1      28.326  25.043  21.532  0.00  0.00    +0.000 A 
ATOM     16  C   UNL     1      29.411  25.445  20.792  0.00  0.00    +0.000 A 
ATOM     17  C   UNL     1      29.550  26.743  20.329  0.00  0.00    +0.000 A 
ATOM     18  C   UNL     1      28.589  27.686  20.599  0.00  0.00    +0.000 A 
ATOM     19  C   UNL     1      27.496  27.303  21.336  0.00  0.00    +0.000 A 
ATOM     20  C   UNL     1      27.368  25.990  21.798  0.00  0.00    +0.000 A 
ENDBRANCH  14  15
ENDBRANCH   8  14
TORSDOF 3
ENDMDL
MODEL 7
REMARK VINA RESULT:      -6.0     22.728     23.991
REMARK  Name = 
REMARK  3 active torsions:
REMARK  status: ('A' for Active; 'I' for Inactive)
REMARK    1  A    between atoms: C_4  and  N_5
REMARK    2  A    between atoms: N_13  and  C_14
REMARK    3  A    between atoms: C_14  and  C_15
REMARK                            x       y       z     vdW  Elec       q    Type
REMARK                         _______ _______ _______ _____ _____    ______ ____
ROOT
ATOM      1  O   UNL     1      28.582  27.834  22.963  0.00  0.00    +0.000 OA
ATOM      2  C   UNL     1      28.974  27.156  21.978  0.00  0.00    +0.000 A 
ATOM      3  C   UNL     1      29.458  27.810  20.846  0.00  0.00    +0.000 A 
ATOM      4  C   UNL     1      29.888  27.066  19.767  0.00  0.00    +0.000 A 
ATOM      5  N   UNL     1      29.816  25.731  19.871  0.00  0.00    +0.000 NA
ATOM      6  C   UNL     1      29.339  25.121  20.989  0.00  0.00    +0.000 A 
ATOM      7  O   UNL     1      29.280  23.867  21.065  0.00  0.00    +0.000 OA
ATOM      8  N   UNL     1      28.910  25.814  22.059  0.00  0.00    +0.000 N 
ENDROOT
BRANCH   4   9
ATOM      9  N   UNL     1      30.392  27.675  18.582  0.00  0.00    +0.000 N 
ATOM     10  C   UNL     1      31.408  28.709  18.511  0.00  0.00    +0.000 C 
ATOM     11  C   UNL     1      32.062  28.582  17.158  0.00  0.00    +0.000 C 
ATOM     12  C   UNL     1      31.096  27.787  16.319  0.00  0.00    +0.000 C 
ATOM     13  C   UNL     1      29.981  27.369  17.243  0.00  0.00    +0.000 C 
ENDBRANCH   4   9
BRANCH   8  14
ATOM     14  C   UNL     1      28.406  25.125  23.242  0.00  0.00    +0.000 C 
BRANCH  14  15
ATOM     15  C   UNL     1      29.488  24.462  23.993  0.00  0.00    +0.000 A 
ATOM     16  C   UNL     1      29.338  23.147  24.362  0.00  0.00    +0.000 A 
ATOM     17  C   UNL     1      30.312  22.462  25.069  0.00  0.00    +0.000 A 
ATOM     18  C   UNL     1      31.481  23.086  25.430  0.00  0.00    +0.000 A 
ATOM     19  C   UNL     1      31.650  24.400  25.069  0.00  0.00    +0.000 A 
ATOM     20  C   UNL     1      30.658  25.080  24.357  0.00  0.00    +0.000 A 
ENDBRANCH  14  15
ENDBRANCH   8  14
TORSDOF 3
ENDMDL
MODEL 8
REMARK VINA RESULT:      -6.0      3.018      7.118
REMARK  Name = 
REMARK  3 active torsions:
REMARK  status: ('A' for Active; 'I' for Inactive)
REMARK    1  A    between atoms: C_4  and  N_5
REMARK    2  A    between atoms: N_13  and  C_14
REMARK    3  A    between atoms: C_14  and  C_15
REMARK                            x       y       z     vdW  Elec       q    Type
REMARK                         _______ _______ _______ _____ _____    ______ ____
ROOT
ATOM      1  O   UNL     1      18.977  11.222  37.137  0.00  0.00    +0.000 OA
ATOM      2  C   UNL     1      17.908  10.936  37.736  0.00  0.00    +0.000 A 
ATOM      3  C   UNL     1      17.940  10.044  38.807  0.00  0.00    +0.000 A 
ATOM      4  C   UNL     1      16.769   9.732  39.462  0.00  0.00    +0.000 A 
ATOM      5  N   UNL     1      15.643  10.316  39.026  0.00  0.00    +0.000 NA
ATOM      6  C   UNL     1      15.643  11.184  37.979  0.00  0.00    +0.000 A 
ATOM      7  O   UNL     1      14.575  11.720  37.586  0.00  0.00    +0.000 OA
ATOM      8  N   UNL     1      16.766  11.511  37.315  0.00  0.00    +0.000 N 
ENDROOT
BRANCH   4   9
ATOM      9  N   UNL     1      16.736   8.826  40.563  0.00  0.00    +0.000 N 
ATOM     10  C   UNL     1      15.986   8.995  41.793  0.00  0.00    +0.000 C 
ATOM     11  C   UNL     1      15.725   7.611  42.335  0.00  0.00    +0.000 C 
ATOM     12  C   UNL     1      16.726   6.718  41.650  0.00  0.00    +0.000 C 
ATOM     13  C   UNL     1      17.443   7.582  40.645  0.00  0.00    +0.000 C 
ENDBRANCH   4   9
BRANCH   8  14
ATOM     14  C   UNL     1      16.726  12.446  36.196  0.00  0.00    +0.000 C 
BRANCH  14  15
ATOM     15  C   UNL     1      16.463  11.760  34.918  0.00  0.00    +0.000 A 
ATOM     16  C   UNL     1      15.272  11.985  34.270  0.00  0.00    +0.000 A 
ATOM     17  C   UNL     1      14.957  11.375  33.067  0.00  0.00    +0.000 A 
ATOM     18  C   UNL     1      15.843  10.511  32.472  0.00  0.00    +0.000 A 
ATOM     19  C   UNL     1      17.039  10.273  33.102  0.00  0.00    +0.000 A 
ATOM     20  C   UNL     1      17.343  10.895  34.316  0.00  0.00    +0.000 A 
ENDBRANCH  14  15
ENDBRANCH   8  14
TORSDOF 3
ENDMDL
MODEL 9
REMARK VINA RESULT:      -5.9      9.079     10.220
REMARK  Name = 
REMARK  3 active torsions:
REMARK  status: ('A' for Active; 'I' for Inactive)
REMARK    1  A    between atoms: C_4  and  N_5
REMARK    2  A    between atoms: N_13  and  C_14
REMARK    3  A    between atoms: C_14  and  C_15
REMARK                            x       y       z     vdW  Elec       q    Type
REMARK                         _______ _______ _______ _____ _____    ______ ____
ROOT
ATOM      1  O   UNL     1      19.219  20.245  39.058  0.00  0.00    +0.000 OA
ATOM      2  C   UNL     1      19.525  20.778  37.959  0.00  0.00    +0.000 A 
ATOM      3  C   UNL     1      18.604  20.766  36.912  0.00  0.00    +0.000 A 
ATOM      4  C   UNL     1      18.940  21.350  35.710  0.00  0.00    +0.000 A 
ATOM      5  N   UNL     1      20.156  21.907  35.613  0.00  0.00    +0.000 NA
ATOM      6  C   UNL     1      21.033  21.904  36.653  0.00  0.00    +0.000 A 
ATOM      7  O   UNL     1      22.169  22.432  36.540  0.00  0.00    +0.000 OA
ATOM      8  N   UNL     1      20.740  21.343  37.840  0.00  0.00    +0.000 N 
ENDROOT
BRANCH   4   9
ATOM      9  N   UNL     1      18.043  21.370  34.602  0.00  0.00    +0.000 N 
ATOM     10  C   UNL     1      18.232  20.696  33.331  0.00  0.00    +0.000 C 
ATOM     11  C   UNL     1      16.856  20.449  32.764  0.00  0.00    +0.000 C 
ATOM     12  C   UNL     1      15.944  21.397  33.498  0.00  0.00    +0.000 C 
ATOM     13  C   UNL     1      16.790  22.065  34.551  0.00  0.00    +0.000 C 
ENDBRANCH   4   9
BRANCH   8  14
ATOM     14  C   UNL     1      21.707  21.359  38.932  0.00  0.00    +0.000 C 
BRANCH  14  15
ATOM     15  C   UNL     1      22.745  20.325  38.760  0.00  0.00    +0.000 A 
ATOM     16  C   UNL     1      24.052  20.712  38.588  0.00  0.00    +0.000 A 
ATOM     17  C   UNL     1      25.078  19.796  38.420  0.00  0.00    +0.000 A 
ATOM     18  C   UNL     1      24.816  18.448  38.421  0.00  0.00    +0.000 A 
ATOM     19  C   UNL     1      23.516  18.041  38.593  0.00  0.00    +0.000 A 
ATOM     20  C   UNL     1      22.490  18.976  38.760  0.00  0.00    +0.000 A 
ENDBRANCH  14  15
ENDBRANCH   8  14
TORSDOF 3
ENDMDL
MODEL 10
REMARK VINA RESULT:      -5.8     20.988     22.190
REMARK  Name = 
REMARK  3 active torsions:
REMARK  status: ('A' for Active; 'I' for Inactive)
REMARK    1  A    between atoms: C_4  and  N_5
REMARK    2  A    between atoms: N_13  and  C_14
REMARK    3  A    between atoms: C_14  and  C_15
REMARK                            x       y       z     vdW  Elec       q    Type
REMARK                         _______ _______ _______ _____ _____    ______ ____
ROOT
ATOM      1  O   UNL     1      27.945  26.323  24.804  0.00  0.00    +0.000 OA
ATOM      2  C   UNL     1      28.165  25.975  23.615  0.00  0.00    +0.000 A 
ATOM      3  C   UNL     1      28.652  26.913  22.706  0.00  0.00    +0.000 A 
ATOM      4  C   UNL     1      28.894  26.530  21.404  0.00  0.00    +0.000 A 
ATOM      5  N   UNL     1      28.643  25.253  21.080  0.00  0.00    +0.000 NA
ATOM      6  C   UNL     1      28.168  24.360  21.989  0.00  0.00    +0.000 A 
ATOM      7  O   UNL     1      27.939  23.167  21.663  0.00  0.00    +0.000 OA
ATOM      8  N   UNL     1      27.920  24.698  23.267  0.00  0.00    +0.000 N 
ENDROOT
BRANCH   4   9
ATOM      9  N   UNL     1      29.391  27.441  20.427  0.00  0.00    +0.000 N 
ATOM     10  C   UNL     1      29.321  28.889  20.489  0.00  0.00    +0.000 C 
ATOM     11  C   UNL     1      30.468  29.414  19.659  0.00  0.00    +0.000 C 
ATOM     12  C   UNL     1      30.878  28.266  18.774  0.00  0.00    +0.000 C 
ATOM     13  C   UNL     1      30.051  27.084  19.206  0.00  0.00    +0.000 C 
ENDBRANCH   4   9
BRANCH   8  14
ATOM     14  C   UNL     1      27.411  23.712  24.215  0.00  0.00    +0.000 C 
BRANCH  14  15
ATOM     15  C   UNL     1      28.484  23.165  25.065  0.00  0.00    +0.000 A 
ATOM     16  C   UNL     1      28.203  22.837  26.369  0.00  0.00    +0.000 A 
ATOM     17  C   UNL     1      29.161  22.319  27.225  0.00  0.00    +0.000 A 
ATOM     18  C   UNL     1      30.446  22.112  26.788  0.00  0.00    +0.000 A 
ATOM     19  C   UNL     1      30.747  22.431  25.487  0.00  0.00    +0.000 A 
ATOM     20  C   UNL     1      29.771  22.954  24.635  0.00  0.00    +0.000 A 
ENDBRANCH  14  15
ENDBRANCH   8  14
TORSDOF 3
ENDMDL
