MODEL 1
REMARK VINA RESULT:      -5.9      0.000      0.000
REMARK  Name = 
REMARK  2 active torsions:
REMARK  status: ('A' for Active; 'I' for Inactive)
REMARK    1  A    between atoms: C_6  and  C_7
REMARK    2  A    between atoms: C_8  and  C_9
REMARK                            x       y       z     vdW  Elec       q    Type
REMARK                         _______ _______ _______ _____ _____    ______ ____
ROOT
ATOM      1  C   UNL     1      17.221  10.195  36.884  0.00  0.00    +0.000 C 
ATOM      2  C   UNL     1      16.102  10.478  37.903  0.00  0.00    +0.000 C 
ATOM      3  C   UNL     1      15.011  11.101  37.635  0.00  0.00    +0.000 C 
ATOM      4  N   UNL     1      14.083  11.269  38.702  0.00  0.00    +0.000 NA
ATOM      5  O   UNL     1      14.790  11.578  36.351  0.00  0.00    +0.000 OA
ATOM      6  C   UNL     1      15.715  11.395  35.375  0.00  0.00    +0.000 C 
ATOM      7  C   UNL     1      16.809  10.791  35.565  0.00  0.00    +0.000 C 
ATOM      8  C   UNL     1      17.754  10.653  34.430  0.00  0.00    +0.000 C 
ATOM      9  C   UNL     1      16.959  10.204  33.233  0.00  0.00    +0.000 C 
ATOM     10  C   UNL     1      15.660  10.887  33.025  0.00  0.00    +0.000 C 
ATOM     11  C   UNL     1      15.373  11.962  34.013  0.00  0.00    +0.000 C 
ENDROOT
BRANCH   1  17
ATOM     12  C   UNL     1      20.184   9.727  38.109  0.00  0.00    +0.000 C 
ATOM     13  C   UNL     1      19.502  11.071  37.909  0.00  0.00    +0.000 A 
ATOM     14  C   UNL     1      20.150  12.197  38.258  0.00  0.00    +0.000 A 
ATOM     15  C   UNL     1      19.538  13.375  38.066  0.00  0.00    +0.000 A 
ATOM     16  S   UNL     1      18.045  12.927  37.395  0.00  0.00    +0.000 S 
ATOM     17  C   UNL     1      18.290  11.220  37.396  0.00  0.00    +0.000 A 
ENDBRANCH   1  17
BRANCH   2  18
ATOM     18  C   UNL     1      16.413   9.957  39.228  0.00  0.00    +0.000 C 
ATOM     19  N   UNL     1      16.673   9.558  40.284  0.00  0.00    +0.000 NA
ENDBRANCH   2  18
TORSDOF 2
ENDMDL
MODEL 2
REMARK VINA RESULT:      -5.7     20.432     21.905
REMARK  Name = 
REMARK  2 active torsions:
REMARK  status: ('A' for Active; 'I' for Inactive)
REMARK    1  A    between atoms: C_6  and  C_7
REMARK    2  A    between atoms: C_8  and  C_9
REMARK                            x       y       z     vdW  Elec       q    Type
REMARK                         _______ _______ _______ _____ _____    ______ ____
ROOT
ATOM      1  C   UNL     1      27.867  23.515  24.405  0.00  0.00    +0.000 C 
ATOM      2  C   UNL     1      28.196  23.770  22.923  0.00  0.00    +0.000 C 
ATOM      3  C   UNL     1      29.367  24.043  22.471  0.00  0.00    +0.000 C 
ATOM      4  N   UNL     1      29.488  24.245  21.067  0.00  0.00    +0.000 NA
ATOM      5  O   UNL     1      30.437  24.135  23.349  0.00  0.00    +0.000 OA
ATOM      6  C   UNL     1      30.261  23.940  24.680  0.00  0.00    +0.000 C 
ATOM      7  C   UNL     1      29.139  23.666  25.195  0.00  0.00    +0.000 C 
ATOM      8  C   UNL     1      29.054  23.480  26.664  0.00  0.00    +0.000 C 
ATOM      9  C   UNL     1      30.196  22.588  27.072  0.00  0.00    +0.000 C 
ATOM     10  C   UNL     1      31.506  22.885  26.446  0.00  0.00    +0.000 C 
ATOM     11  C   UNL     1      31.496  24.070  25.546  0.00  0.00    +0.000 C 
ENDROOT
BRANCH   1  17
ATOM     12  C   UNL     1      25.367  24.108  26.378  0.00  0.00    +0.000 C 
ATOM     13  C   UNL     1      26.086  25.132  25.515  0.00  0.00    +0.000 A 
ATOM     14  C   UNL     1      25.682  26.415  25.540  0.00  0.00    +0.000 A 
ATOM     15  C   UNL     1      26.333  27.307  24.780  0.00  0.00    +0.000 A 
ATOM     16  S   UNL     1      27.521  26.367  24.015  0.00  0.00    +0.000 S 
ATOM     17  C   UNL     1      27.112  24.849  24.726  0.00  0.00    +0.000 A 
ENDBRANCH   1  17
BRANCH   2  18
ATOM     18  C   UNL     1      27.020  23.667  22.067  0.00  0.00    +0.000 C 
ATOM     19  N   UNL     1      26.077  23.572  21.401  0.00  0.00    +0.000 NA
ENDBRANCH   2  18
TORSDOF 2
ENDMDL
MODEL 3
REMARK VINA RESULT:      -5.5     19.796     21.154
REMARK  Name = 
REMARK  2 active torsions:
REMARK  status: ('A' for Active; 'I' for Inactive)
REMARK    1  A    between atoms: C_6  and  C_7
REMARK    2  A    between atoms: C_8  and  C_9
REMARK                            x       y       z     vdW  Elec       q    Type
REMARK                         _______ _______ _______ _____ _____    ______ ____
ROOT
ATOM      1  C   UNL     1      27.995  25.129  24.566  0.00  0.00    +0.000 C 
ATOM      2  C   UNL     1      27.388  24.267  23.444  0.00  0.00    +0.000 C 
ATOM      3  C   UNL     1      26.211  23.751  23.474  0.00  0.00    +0.000 C 
ATOM      4  N   UNL     1      25.811  22.984  22.344  0.00  0.00    +0.000 NA
ATOM      5  O   UNL     1      25.402  23.953  24.583  0.00  0.00    +0.000 OA
ATOM      6  C   UNL     1      25.839  24.688  25.636  0.00  0.00    +0.000 C 
ATOM      7  C   UNL     1      26.982  25.226  25.676  0.00  0.00    +0.000 C 
ATOM      8  C   UNL     1      27.365  26.003  26.880  0.00  0.00    +0.000 C 
ATOM      9  C   UNL     1      26.208  26.903  27.222  0.00  0.00    +0.000 C 
ATOM     10  C   UNL     1      24.863  26.285  27.146  0.00  0.00    +0.000 C 
ATOM     11  C   UNL     1      24.876  24.839  26.795  0.00  0.00    +0.000 C 
ENDROOT
BRANCH   1  17
ATOM     12  C   UNL     1      31.235  25.152  24.563  0.00  0.00    +0.000 C 
ATOM     13  C   UNL     1      30.350  24.066  25.154  0.00  0.00    +0.000 A 
ATOM     14  C   UNL     1      30.920  22.998  25.741  0.00  0.00    +0.000 A 
ATOM     15  C   UNL     1      30.125  22.054  26.265  0.00  0.00    +0.000 A 
ATOM     16  S   UNL     1      28.566  22.643  25.946  0.00  0.00    +0.000 S 
ATOM     17  C   UNL     1      29.025  24.099  25.142  0.00  0.00    +0.000 A 
ENDBRANCH   1  17
BRANCH   2  18
ATOM     18  C   UNL     1      28.301  24.091  22.322  0.00  0.00    +0.000 C 
ATOM     19  N   UNL     1      29.043  23.959  21.442  0.00  0.00    +0.000 NA
ENDBRANCH   2  18
TORSDOF 2
ENDMDL
MODEL 4
REMARK VINA RESULT:      -5.5      1.675      2.229
REMARK  Name = 
REMARK  2 active torsions:
REMARK  status: ('A' for Active; 'I' for Inactive)
REMARK    1  A    between atoms: C_6  and  C_7
REMARK    2  A    between atoms: C_8  and  C_9
REMARK                            x       y       z     vdW  Elec       q    Type
REMARK                         _______ _______ _______ _____ _____    ______ ____
ROOT
ATOM      1  C   UNL     1      18.902   9.433  37.220  0.00  0.00    +0.000 C 
ATOM      2  C   UNL     1      18.227   9.339  38.601  0.00  0.00    +0.000 C 
ATOM      3  C   UNL     1      17.084   9.848  38.892  0.00  0.00    +0.000 C 
ATOM      4  N   UNL     1      16.610   9.660  40.221  0.00  0.00    +0.000 NA
ATOM      5  O   UNL     1      16.379  10.550  37.924  0.00  0.00    +0.000 OA
ATOM      6  C   UNL     1      16.884  10.705  36.675  0.00  0.00    +0.000 C 
ATOM      7  C   UNL     1      18.000  10.230  36.317  0.00  0.00    +0.000 C 
ATOM      8  C   UNL     1      18.463  10.464  34.927  0.00  0.00    +0.000 C 
ATOM      9  C   UNL     1      17.305  10.173  34.011  0.00  0.00    +0.000 C 
ATOM     10  C   UNL     1      15.989  10.700  34.442  0.00  0.00    +0.000 C 
ATOM     11  C   UNL     1      16.034  11.493  35.700  0.00  0.00    +0.000 C 
ENDROOT
BRANCH   1  17
ATOM     12  C   UNL     1      22.087   9.354  36.636  0.00  0.00    +0.000 C 
ATOM     13  C   UNL     1      21.338  10.466  37.352  0.00  0.00    +0.000 A 
ATOM     14  C   UNL     1      22.018  11.537  37.801  0.00  0.00    +0.000 A 
ATOM     15  C   UNL     1      21.340  12.513  38.421  0.00  0.00    +0.000 A 
ATOM     16  S   UNL     1      19.739  11.951  38.388  0.00  0.00    +0.000 S 
ATOM     17  C   UNL     1      20.030  10.464  37.563  0.00  0.00    +0.000 A 
ENDBRANCH   1  17
BRANCH   2  18
ATOM     18  C   UNL     1      19.033   8.599  39.564  0.00  0.00    +0.000 C 
ATOM     19  N   UNL     1      19.667   8.024  40.344  0.00  0.00    +0.000 NA
ENDBRANCH   2  18
TORSDOF 2
ENDMDL
MODEL 5
REMARK VINA RESULT:      -5.4     21.103     22.735
REMARK  Name = 
REMARK  2 active torsions:
REMARK  status: ('A' for Active; 'I' for Inactive)
REMARK    1  A    between atoms: C_6  and  C_7
REMARK    2  A    between atoms: C_8  and  C_9
REMARK                            x       y       z     vdW  Elec       q    Type
REMARK                         _______ _______ _______ _____ _____    ______ ____
ROOT
ATOM      1  C   UNL     1      18.189  -9.080  25.617  0.00  0.00    +0.000 C 
ATOM      2  C   UNL     1      16.649  -9.067  25.628  0.00  0.00    +0.000 C 
ATOM      3  C   UNL     1      15.930  -8.067  25.992  0.00  0.00    +0.000 C 
ATOM      4  N   UNL     1      14.517  -8.230  25.934  0.00  0.00    +0.000 NA
ATOM      5  O   UNL     1      16.544  -6.900  26.422  0.00  0.00    +0.000 OA
ATOM      6  C   UNL     1      17.897  -6.803  26.465  0.00  0.00    +0.000 C 
ATOM      7  C   UNL     1      18.667  -7.744  26.120  0.00  0.00    +0.000 C 
ATOM      8  C   UNL     1      20.133  -7.537  26.212  0.00  0.00    +0.000 C 
ATOM      9  C   UNL     1      20.437  -6.192  25.610  0.00  0.00    +0.000 C 
ATOM     10  C   UNL     1      19.517  -5.092  25.985  0.00  0.00    +0.000 C 
ATOM     11  C   UNL     1      18.460  -5.486  26.955  0.00  0.00    +0.000 C 
ENDROOT
BRANCH   1  17
ATOM     12  C   UNL     1      19.803 -11.878  25.860  0.00  0.00    +0.000 C 
ATOM     13  C   UNL     1      19.082 -11.163  26.990  0.00  0.00    +0.000 A 
ATOM     14  C   UNL     1      19.088 -11.703  28.222  0.00  0.00    +0.000 A 
ATOM     15  C   UNL     1      18.456 -11.054  29.210  0.00  0.00    +0.000 A 
ATOM     16  S   UNL     1      17.840  -9.677  28.433  0.00  0.00    +0.000 S 
ATOM     17  C   UNL     1      18.439 -10.013  26.850  0.00  0.00    +0.000 A 
ENDBRANCH   1  17
BRANCH   2  18
ATOM     18  C   UNL     1      16.080 -10.330  25.175  0.00  0.00    +0.000 C 
ATOM     19  N   UNL     1      15.623 -11.325  24.796  0.00  0.00    +0.000 NA
ENDBRANCH   2  18
TORSDOF 2
ENDMDL
MODEL 6
REMARK VINA RESULT:      -5.2     18.855     20.456
REMARK  Name = 
REMARK  2 active torsions:
REMARK  status: ('A' for Active; 'I' for Inactive)
REMARK    1  A    between atoms: C_6  and  C_7
REMARK    2  A    between atoms: C_8  and  C_9
REMARK                            x       y       z     vdW  Elec       q    Type
REMARK                         _______ _______ _______ _____ _____    ______ ____
ROOT
ATOM      1  C   UNL     1      27.204  23.454  26.002  0.00  0.00    +0.000 C 
ATOM      2  C   UNL     1      28.435  23.005  25.192  0.00  0.00    +0.000 C 
ATOM      3  C   UNL     1      29.544  22.611  25.707  0.00  0.00    +0.000 C 
ATOM      4  N   UNL     1      30.577  22.227  24.805  0.00  0.00    +0.000 NA
ATOM      5  O   UNL     1      29.688  22.583  27.087  0.00  0.00    +0.000 OA
ATOM      6  C   UNL     1      28.672  22.968  27.898  0.00  0.00    +0.000 C 
ATOM      7  C   UNL     1      27.553  23.364  27.463  0.00  0.00    +0.000 C 
ATOM      8  C   UNL     1      26.511  23.771  28.437  0.00  0.00    +0.000 C 
ATOM      9  C   UNL     1      26.457  22.713  29.507  0.00  0.00    +0.000 C 
ATOM     10  C   UNL     1      27.766  22.221  29.998  0.00  0.00    +0.000 C 
ATOM     11  C   UNL     1      28.940  22.902  29.387  0.00  0.00    +0.000 C 
ENDROOT
BRANCH   1  17
ATOM     12  C   UNL     1      24.932  25.538  25.008  0.00  0.00    +0.000 C 
ATOM     13  C   UNL     1      26.380  25.878  25.320  0.00  0.00    +0.000 A 
ATOM     14  C   UNL     1      26.803  27.148  25.186  0.00  0.00    +0.000 A 
ATOM     15  C   UNL     1      28.081  27.433  25.474  0.00  0.00    +0.000 A 
ATOM     16  S   UNL     1      28.715  25.928  25.937  0.00  0.00    +0.000 S 
ATOM     17  C   UNL     1      27.278  24.995  25.733  0.00  0.00    +0.000 A 
ENDBRANCH   1  17
BRANCH   2  18
ATOM     18  C   UNL     1      28.209  23.074  23.754  0.00  0.00    +0.000 C 
ATOM     19  N   UNL     1      28.030  23.149  22.612  0.00  0.00    +0.000 NA
ENDBRANCH   2  18
TORSDOF 2
ENDMDL
MODEL 7
REMARK VINA RESULT:      -5.2     19.567     20.751
REMARK  Name = 
REMARK  2 active torsions:
REMARK  status: ('A' for Active; 'I' for Inactive)
REMARK    1  A    between atoms: C_6  and  C_7
REMARK    2  A    between atoms: C_8  and  C_9
REMARK                            x       y       z     vdW  Elec       q    Type
REMARK                         _______ _______ _______ _____ _____    ______ ____
ROOT
ATOM      1  C   UNL     1      11.103  22.281  22.000  0.00  0.00    +0.000 C 
ATOM      2  C   UNL     1      10.701  20.966  21.308  0.00  0.00    +0.000 C 
ATOM      3  C   UNL     1      11.396  20.374  20.404  0.00  0.00    +0.000 C 
ATOM      4  N   UNL     1      10.873  19.160  19.876  0.00  0.00    +0.000 NA
ATOM      5  O   UNL     1      12.595  20.933  19.985  0.00  0.00    +0.000 OA
ATOM      6  C   UNL     1      13.042  22.097  20.519  0.00  0.00    +0.000 C 
ATOM      7  C   UNL     1      12.413  22.733  21.413  0.00  0.00    +0.000 C 
ATOM      8  C   UNL     1      12.986  24.002  21.923  0.00  0.00    +0.000 C 
ATOM      9  C   UNL     1      14.445  23.758  22.200  0.00  0.00    +0.000 C 
ATOM     10  C   UNL     1      15.180  22.986  21.170  0.00  0.00    +0.000 C 
ATOM     11  C   UNL     1      14.359  22.619  19.984  0.00  0.00    +0.000 C 
ENDROOT
BRANCH   1  17
ATOM     12  C   UNL     1       8.750  24.112  23.268  0.00  0.00    +0.000 C 
ATOM     13  C   UNL     1       9.099  24.002  21.793  0.00  0.00    +0.000 A 
ATOM     14  C   UNL     1       8.395  24.713  20.894  0.00  0.00    +0.000 A 
ATOM     15  C   UNL     1       8.721  24.613  19.598  0.00  0.00    +0.000 A 
ATOM     16  S   UNL     1      10.021  23.521  19.613  0.00  0.00    +0.000 S 
ATOM     17  C   UNL     1      10.077  23.247  21.315  0.00  0.00    +0.000 A 
ENDBRANCH   1  17
BRANCH   2  18
ATOM     18  C   UNL     1       9.427  20.449  21.793  0.00  0.00    +0.000 C 
ATOM     19  N   UNL     1       8.407  20.058  22.177  0.00  0.00    +0.000 NA
ENDBRANCH   2  18
TORSDOF 2
ENDMDL
MODEL 8
REMARK VINA RESULT:      -5.2     20.391     21.543
REMARK  Name = 
REMARK  2 active torsions:
REMARK  status: ('A' for Active; 'I' for Inactive)
REMARK    1  A    between atoms: C_6  and  C_7
REMARK    2  A    between atoms: C_8  and  C_9
REMARK                            x       y       z     vdW  Elec       q    Type
REMARK                         _______ _______ _______ _____ _____    ______ ____
ROOT
ATOM      1  C   UNL     1      30.313  23.313  24.946  0.00  0.00    +0.000 C 
ATOM      2  C   UNL     1      29.658  22.735  26.214  0.00  0.00    +0.000 C 
ATOM      3  C   UNL     1      28.394  22.716  26.440  0.00  0.00    +0.000 C 
ATOM      4  N   UNL     1      27.963  22.136  27.667  0.00  0.00    +0.000 NA
ATOM      5  O   UNL     1      27.521  23.254  25.504  0.00  0.00    +0.000 OA
ATOM      6  C   UNL     1      27.989  23.801  24.355  0.00  0.00    +0.000 C 
ATOM      7  C   UNL     1      29.218  23.853  24.065  0.00  0.00    +0.000 C 
ATOM      8  C   UNL     1      29.624  24.480  22.783  0.00  0.00    +0.000 C 
ATOM      9  C   UNL     1      28.722  23.935  21.709  0.00  0.00    +0.000 C 
ATOM     10  C   UNL     1      27.284  23.842  22.055  0.00  0.00    +0.000 C 
ATOM     11  C   UNL     1      26.949  24.364  23.408  0.00  0.00    +0.000 C 
ENDROOT
BRANCH   1  17
ATOM     12  C   UNL     1      33.346  24.449  24.888  0.00  0.00    +0.000 C 
ATOM     13  C   UNL     1      32.156  25.113  25.563  0.00  0.00    +0.000 A 
ATOM     14  C   UNL     1      32.331  26.281  26.206  0.00  0.00    +0.000 A 
ATOM     15  C   UNL     1      31.270  26.858  26.787  0.00  0.00    +0.000 A 
ATOM     16  S   UNL     1      30.008  25.776  26.445  0.00  0.00    +0.000 S 
ATOM     17  C   UNL     1      30.927  24.618  25.556  0.00  0.00    +0.000 A 
ENDBRANCH   1  17
BRANCH   2  18
ATOM     18  C   UNL     1      30.638  22.200  27.151  0.00  0.00    +0.000 C 
ATOM     19  N   UNL     1      31.432  21.787  27.886  0.00  0.00    +0.000 NA
ENDBRANCH   2  18
TORSDOF 2
ENDMDL
MODEL 9
REMARK VINA RESULT:      -5.2     21.199     22.911
REMARK  Name = 
REMARK  2 active torsions:
REMARK  status: ('A' for Active; 'I' for Inactive)
REMARK    1  A    between atoms: C_6  and  C_7
REMARK    2  A    between atoms: C_8  and  C_9
REMARK                            x       y       z     vdW  Elec       q    Type
REMARK                         _______ _______ _______ _____ _____    ______ ____
ROOT
ATOM      1  C   UNL     1      20.063  -8.378  27.032  0.00  0.00    +0.000 C 
ATOM      2  C   UNL     1      18.894  -7.384  26.901  0.00  0.00    +0.000 C 
ATOM      3  C   UNL     1      17.713  -7.580  27.370  0.00  0.00    +0.000 C 
ATOM      4  N   UNL     1      16.754  -6.549  27.160  0.00  0.00    +0.000 NA
ATOM      5  O   UNL     1      17.427  -8.762  28.038  0.00  0.00    +0.000 OA
ATOM      6  C   UNL     1      18.380  -9.714  28.201  0.00  0.00    +0.000 C 
ATOM      7  C   UNL     1      19.561  -9.590  27.770  0.00  0.00    +0.000 C 
ATOM      8  C   UNL     1      20.524 -10.695  27.995  0.00  0.00    +0.000 C 
ATOM      9  C   UNL     1      20.395 -11.118  29.434  0.00  0.00    +0.000 C 
ATOM     10  C   UNL     1      19.012 -11.235  29.954  0.00  0.00    +0.000 C 
ATOM     11  C   UNL     1      17.957 -10.966  28.940  0.00  0.00    +0.000 C 
ENDROOT
BRANCH   1  17
ATOM     12  C   UNL     1      22.406  -8.140  24.807  0.00  0.00    +0.000 C 
ATOM     13  C   UNL     1      21.053  -8.803  24.611  0.00  0.00    +0.000 A 
ATOM     14  C   UNL     1      20.756  -9.358  23.421  0.00  0.00    +0.000 A 
ATOM     15  C   UNL     1      19.562  -9.947  23.268  0.00  0.00    +0.000 A 
ATOM     16  S   UNL     1      18.832  -9.736  24.786  0.00  0.00    +0.000 S 
ATOM     17  C   UNL     1      20.123  -8.887  25.552  0.00  0.00    +0.000 A 
ENDBRANCH   1  17
BRANCH   2  18
ATOM     18  C   UNL     1      19.269  -6.175  26.179  0.00  0.00    +0.000 C 
ATOM     19  N   UNL     1      19.582  -5.211  25.619  0.00  0.00    +0.000 NA
ENDBRANCH   2  18
TORSDOF 2
ENDMDL
MODEL 10
REMARK VINA RESULT:      -5.1     23.853     26.017
REMARK  Name = 
REMARK  2 active torsions:
REMARK  status: ('A' for Active; 'I' for Inactive)
REMARK    1  A    between atoms: C_6  and  C_7
REMARK    2  A    between atoms: C_8  and  C_9
REMARK                            x       y       z     vdW  Elec       q    Type
REMARK                         _______ _______ _______ _____ _____    ______ ____
ROOT
ATOM      1  C   UNL     1      10.164  10.528  12.022  0.00  0.00    +0.000 C 
ATOM      2  C   UNL     1       9.779  11.405  13.228  0.00  0.00    +0.000 C 
ATOM      3  C   UNL     1       9.639  10.973  14.430  0.00  0.00    +0.000 C 
ATOM      4  N   UNL     1       9.283  11.928  15.424  0.00  0.00    +0.000 NA
ATOM      5  O   UNL     1       9.830   9.626  14.702  0.00  0.00    +0.000 OA
ATOM      6  C   UNL     1      10.162   8.759  13.713  0.00  0.00    +0.000 C 
ATOM      7  C   UNL     1      10.318   9.112  12.509  0.00  0.00    +0.000 C 
ATOM      8  C   UNL     1      10.673   8.082  11.502  0.00  0.00    +0.000 C 
ATOM      9  C   UNL     1      11.779   7.245  12.086  0.00  0.00    +0.000 C 
ATOM     10  C   UNL     1      11.617   6.855  13.506  0.00  0.00    +0.000 C 
ATOM     11  C   UNL     1      10.340   7.312  14.120  0.00  0.00    +0.000 C 
ENDROOT
BRANCH   1  17
ATOM     12  C   UNL     1       9.220  11.802   9.197  0.00  0.00    +0.000 C 
ATOM     13  C   UNL     1       8.351  10.996  10.148  0.00  0.00    +0.000 A 
ATOM     14  C   UNL     1       7.065  10.764   9.829  0.00  0.00    +0.000 A 
ATOM     15  C   UNL     1       6.314  10.044  10.674  0.00  0.00    +0.000 A 
ATOM     16  S   UNL     1       7.394   9.678  11.932  0.00  0.00    +0.000 S 
ATOM     17  C   UNL     1       8.779  10.485  11.293  0.00  0.00    +0.000 A 
ENDBRANCH   1  17
BRANCH   2  18
ATOM     18  C   UNL     1       9.584  12.802  12.861  0.00  0.00    +0.000 C 
ATOM     19  N   UNL     1       9.446  13.910  12.555  0.00  0.00    +0.000 NA
ENDBRANCH   2  18
TORSDOF 2
ENDMDL
