MODEL 1
REMARK VINA RESULT:      -7.3      0.000      0.000
REMARK  Name = 
REMARK  4 active torsions:
REMARK  status: ('A' for Active; 'I' for Inactive)
REMARK    1  A    between atoms: C_2  and  C_14
REMARK    2  A    between atoms: N_3  and  C_4
REMARK    3  A    between atoms: C_9  and  N_10
REMARK    4  A    between atoms: C_16  and  C_17
REMARK                            x       y       z     vdW  Elec       q    Type
REMARK                         _______ _______ _______ _____ _____    ______ ____
ROOT
ATOM      1  O   UNL     1      28.356  25.684  25.576  0.00  0.00    +0.000 OA
ATOM      2  C   UNL     1      27.496  24.969  25.094  0.00  0.00    +0.000 C 
ATOM      3  N   UNL     1      27.021  23.844  25.776  0.00  0.00    +0.000 NA
ENDROOT
BRANCH   3   4
ATOM      4  C   UNL     1      27.489  23.441  27.066  0.00  0.00    +0.000 A 
ATOM      5  C   UNL     1      28.819  23.153  27.300  0.00  0.00    +0.000 A 
ATOM      6  C   UNL     1      29.321  22.761  28.521  0.00  0.00    +0.000 A 
ATOM      7  C   UNL     1      28.473  22.638  29.595  0.00  0.00    +0.000 A 
ATOM      8  F   UNL     1      28.869  22.261  30.824  0.00  0.00    +0.000 F 
ATOM      9  C   UNL     1      27.129  22.920  29.392  0.00  0.00    +0.000 A 
ATOM     10  C   UNL     1      26.655  23.313  28.152  0.00  0.00    +0.000 A 
BRANCH   9  11
ATOM     11  N   UNL     1      26.250  22.792  30.505  0.00  0.00    +0.000 N 
ATOM     12  O   UNL     1      25.911  23.819  31.107  0.00  0.00    +0.000 OA
ATOM     13  O   UNL     1      25.797  21.566  30.892  0.00  0.00    +0.000 OA
ENDBRANCH   9  11
ENDBRANCH   3   4
BRANCH   2  14
ATOM     14  C   UNL     1      26.851  25.243  23.682  0.00  0.00    +0.000 C 
ATOM     15  C   UNL     1      26.632  23.621  23.095  0.00  0.00    +0.000 C 
ATOM     16  C   UNL     1      27.968  24.615  22.512  0.00  0.00    +0.000 C 
BRANCH  16  17
ATOM     17  C   UNL     1      29.179  24.019  23.351  0.00  0.00    +0.000 A 
ATOM     18  C   UNL     1      30.141  24.974  23.539  0.00  0.00    +0.000 A 
ATOM     19  C   UNL     1      31.306  24.650  24.262  0.00  0.00    +0.000 A 
ATOM     20  C   UNL     1      31.435  23.375  24.756  0.00  0.00    +0.000 A 
ATOM     21  C   UNL     1      30.436  22.466  24.533  0.00  0.00    +0.000 A 
ATOM     22  C   UNL     1      29.310  22.812  23.823  0.00  0.00    +0.000 A 
ENDBRANCH  16  17
ENDBRANCH   2  14
TORSDOF 4
ENDMDL
MODEL 2
REMARK VINA RESULT:      -6.9      1.357      2.945
REMARK  Name = 
REMARK  4 active torsions:
REMARK  status: ('A' for Active; 'I' for Inactive)
REMARK    1  A    between atoms: C_2  and  C_14
REMARK    2  A    between atoms: N_3  and  C_4
REMARK    3  A    between atoms: C_9  and  N_10
REMARK    4  A    between atoms: C_16  and  C_17
REMARK                            x       y       z     vdW  Elec       q    Type
REMARK                         _______ _______ _______ _____ _____    ______ ____
ROOT
ATOM      1  O   UNL     1      29.829  24.471  25.727  0.00  0.00    +0.000 OA
ATOM      2  C   UNL     1      29.584  23.344  25.335  0.00  0.00    +0.000 C 
ATOM      3  N   UNL     1      29.186  22.339  26.223  0.00  0.00    +0.000 NA
ENDROOT
BRANCH   3   4
ATOM      4  C   UNL     1      29.034  22.536  27.632  0.00  0.00    +0.000 A 
ATOM      5  C   UNL     1      30.121  22.732  28.460  0.00  0.00    +0.000 A 
ATOM      6  C   UNL     1      30.030  22.925  29.820  0.00  0.00    +0.000 A 
ATOM      7  C   UNL     1      28.795  22.930  30.423  0.00  0.00    +0.000 A 
ATOM      8  F   UNL     1      28.606  23.111  31.743  0.00  0.00    +0.000 F 
ATOM      9  C   UNL     1      27.681  22.736  29.617  0.00  0.00    +0.000 A 
ATOM     10  C   UNL     1      27.806  22.544  28.251  0.00  0.00    +0.000 A 
BRANCH   9  11
ATOM     11  N   UNL     1      26.402  22.740  30.242  0.00  0.00    +0.000 N 
ATOM     12  O   UNL     1      25.751  23.792  30.238  0.00  0.00    +0.000 OA
ATOM     13  O   UNL     1      25.915  21.610  30.829  0.00  0.00    +0.000 OA
ENDBRANCH   9  11
ENDBRANCH   3   4
BRANCH   2  14
ATOM     14  C   UNL     1      29.692  22.924  23.821  0.00  0.00    +0.000 C 
ATOM     15  C   UNL     1      29.602  24.474  23.037  0.00  0.00    +0.000 C 
ATOM     16  C   UNL     1      28.199  23.407  23.079  0.00  0.00    +0.000 C 
BRANCH  16  17
ATOM     17  C   UNL     1      27.341  24.076  24.237  0.00  0.00    +0.000 A 
ATOM     18  C   UNL     1      26.482  23.161  24.782  0.00  0.00    +0.000 A 
ATOM     19  C   UNL     1      25.626  23.553  25.829  0.00  0.00    +0.000 A 
ATOM     20  C   UNL     1      25.685  24.853  26.270  0.00  0.00    +0.000 A 
ATOM     21  C   UNL     1      26.566  25.719  25.683  0.00  0.00    +0.000 A 
ATOM     22  C   UNL     1      27.390  25.307  24.661  0.00  0.00    +0.000 A 
ENDBRANCH  16  17
ENDBRANCH   2  14
TORSDOF 4
ENDMDL
MODEL 3
REMARK VINA RESULT:      -6.8      2.839      6.152
REMARK  Name = 
REMARK  4 active torsions:
REMARK  status: ('A' for Active; 'I' for Inactive)
REMARK    1  A    between atoms: C_2  and  C_14
REMARK    2  A    between atoms: N_3  and  C_4
REMARK    3  A    between atoms: C_9  and  N_10
REMARK    4  A    between atoms: C_16  and  C_17
REMARK                            x       y       z     vdW  Elec       q    Type
REMARK                         _______ _______ _______ _____ _____    ______ ____
ROOT
ATOM      1  O   UNL     1      28.928  24.309  28.601  0.00  0.00    +0.000 OA
ATOM      2  C   UNL     1      28.553  23.172  28.825  0.00  0.00    +0.000 C 
ATOM      3  N   UNL     1      28.360  22.254  27.788  0.00  0.00    +0.000 NA
ENDROOT
BRANCH   3   4
ATOM      4  C   UNL     1      28.579  22.556  26.407  0.00  0.00    +0.000 A 
ATOM      5  C   UNL     1      29.810  22.374  25.809  0.00  0.00    +0.000 A 
ATOM      6  C   UNL     1      30.074  22.650  24.486  0.00  0.00    +0.000 A 
ATOM      7  C   UNL     1      29.072  23.137  23.682  0.00  0.00    +0.000 A 
ATOM      8  F   UNL     1      29.233  23.435  22.380  0.00  0.00    +0.000 F 
ATOM      9  C   UNL     1      27.821  23.331  24.253  0.00  0.00    +0.000 A 
ATOM     10  C   UNL     1      27.587  23.044  25.588  0.00  0.00    +0.000 A 
BRANCH   9  11
ATOM     11  N   UNL     1      26.784  23.836  23.419  0.00  0.00    +0.000 N 
ATOM     12  O   UNL     1      26.526  25.045  23.470  0.00  0.00    +0.000 OA
ATOM     13  O   UNL     1      26.096  23.001  22.589  0.00  0.00    +0.000 OA
ENDBRANCH   9  11
ENDBRANCH   3   4
BRANCH   2  14
ATOM     14  C   UNL     1      28.256  22.643  30.279  0.00  0.00    +0.000 C 
ATOM     15  C   UNL     1      26.776  21.767  30.021  0.00  0.00    +0.000 C 
ATOM     16  C   UNL     1      26.755  23.368  30.759  0.00  0.00    +0.000 C 
BRANCH  16  17
ATOM     17  C   UNL     1      26.298  24.265  29.530  0.00  0.00    +0.000 A 
ATOM     18  C   UNL     1      26.636  25.573  29.745  0.00  0.00    +0.000 A 
ATOM     19  C   UNL     1      26.318  26.540  28.770  0.00  0.00    +0.000 A 
ATOM     20  C   UNL     1      25.675  26.129  27.628  0.00  0.00    +0.000 A 
ATOM     21  C   UNL     1      25.365  24.805  27.473  0.00  0.00    +0.000 A 
ATOM     22  C   UNL     1      25.688  23.885  28.443  0.00  0.00    +0.000 A 
ENDBRANCH  16  17
ENDBRANCH   2  14
TORSDOF 4
ENDMDL
MODEL 4
REMARK VINA RESULT:      -6.7      1.704      2.536
REMARK  Name = 
REMARK  4 active torsions:
REMARK  status: ('A' for Active; 'I' for Inactive)
REMARK    1  A    between atoms: C_2  and  C_14
REMARK    2  A    between atoms: N_3  and  C_4
REMARK    3  A    between atoms: C_9  and  N_10
REMARK    4  A    between atoms: C_16  and  C_17
REMARK                            x       y       z     vdW  Elec       q    Type
REMARK                         _______ _______ _______ _____ _____    ______ ____
ROOT
ATOM      1  O   UNL     1      29.338  25.520  26.144  0.00  0.00    +0.000 OA
ATOM      2  C   UNL     1      28.671  24.848  25.377  0.00  0.00    +0.000 C 
ATOM      3  N   UNL     1      27.501  24.210  25.802  0.00  0.00    +0.000 NA
ENDROOT
BRANCH   3   4
ATOM      4  C   UNL     1      26.994  24.285  27.137  0.00  0.00    +0.000 A 
ATOM      5  C   UNL     1      26.293  25.386  27.588  0.00  0.00    +0.000 A 
ATOM      6  C   UNL     1      25.785  25.509  28.862  0.00  0.00    +0.000 A 
ATOM      7  C   UNL     1      25.967  24.490  29.766  0.00  0.00    +0.000 A 
ATOM      8  F   UNL     1      25.508  24.518  31.030  0.00  0.00    +0.000 F 
ATOM      9  C   UNL     1      26.667  23.368  29.343  0.00  0.00    +0.000 A 
ATOM     10  C   UNL     1      27.166  23.275  28.054  0.00  0.00    +0.000 A 
BRANCH   9  11
ATOM     11  N   UNL     1      26.856  22.313  30.279  0.00  0.00    +0.000 N 
ATOM     12  O   UNL     1      28.009  22.049  30.642  0.00  0.00    +0.000 OA
ATOM     13  O   UNL     1      25.787  21.616  30.761  0.00  0.00    +0.000 OA
ENDBRANCH   9  11
ENDBRANCH   3   4
BRANCH   2  14
ATOM     14  C   UNL     1      29.060  24.642  23.864  0.00  0.00    +0.000 C 
ATOM     15  C   UNL     1      28.703  22.953  23.655  0.00  0.00    +0.000 C 
ATOM     16  C   UNL     1      30.367  23.500  23.855  0.00  0.00    +0.000 C 
BRANCH  16  17
ATOM     17  C   UNL     1      30.628  23.133  25.378  0.00  0.00    +0.000 A 
ATOM     18  C   UNL     1      31.627  23.915  25.891  0.00  0.00    +0.000 A 
ATOM     19  C   UNL     1      32.017  23.748  27.234  0.00  0.00    +0.000 A 
ATOM     20  C   UNL     1      31.373  22.797  27.988  0.00  0.00    +0.000 A 
ATOM     21  C   UNL     1      30.382  22.048  27.416  0.00  0.00    +0.000 A 
ATOM     22  C   UNL     1      30.024  22.233  26.101  0.00  0.00    +0.000 A 
ENDBRANCH  16  17
ENDBRANCH   2  14
TORSDOF 4
ENDMDL
MODEL 5
REMARK VINA RESULT:      -6.4      2.734      4.028
REMARK  Name = 
REMARK  4 active torsions:
REMARK  status: ('A' for Active; 'I' for Inactive)
REMARK    1  A    between atoms: C_2  and  C_14
REMARK    2  A    between atoms: N_3  and  C_4
REMARK    3  A    between atoms: C_9  and  N_10
REMARK    4  A    between atoms: C_16  and  C_17
REMARK                            x       y       z     vdW  Elec       q    Type
REMARK                         _______ _______ _______ _____ _____    ______ ____
ROOT
ATOM      1  O   UNL     1      29.570  25.237  24.206  0.00  0.00    +0.000 OA
ATOM      2  C   UNL     1      29.446  24.209  23.564  0.00  0.00    +0.000 C 
ATOM      3  N   UNL     1      29.307  22.970  24.199  0.00  0.00    +0.000 NA
ENDROOT
BRANCH   3   4
ATOM      4  C   UNL     1      29.299  22.801  25.619  0.00  0.00    +0.000 A 
ATOM      5  C   UNL     1      28.121  22.705  26.333  0.00  0.00    +0.000 A 
ATOM      6  C   UNL     1      28.057  22.542  27.699  0.00  0.00    +0.000 A 
ATOM      7  C   UNL     1      29.219  22.466  28.428  0.00  0.00    +0.000 A 
ATOM      8  F   UNL     1      29.258  22.308  29.763  0.00  0.00    +0.000 F 
ATOM      9  C   UNL     1      30.421  22.558  27.739  0.00  0.00    +0.000 A 
ATOM     10  C   UNL     1      30.452  22.722  26.364  0.00  0.00    +0.000 A 
BRANCH   9  11
ATOM     11  N   UNL     1      31.625  22.480  28.495  0.00  0.00    +0.000 N 
ATOM     12  O   UNL     1      32.086  21.360  28.750  0.00  0.00    +0.000 OA
ATOM     13  O   UNL     1      32.249  23.614  28.922  0.00  0.00    +0.000 OA
ENDBRANCH   9  11
ENDBRANCH   3   4
BRANCH   2  14
ATOM     14  C   UNL     1      29.431  24.183  21.989  0.00  0.00    +0.000 C 
ATOM     15  C   UNL     1      28.895  25.798  21.633  0.00  0.00    +0.000 C 
ATOM     16  C   UNL     1      27.780  24.437  21.519  0.00  0.00    +0.000 C 
BRANCH  16  17
ATOM     17  C   UNL     1      26.966  24.595  22.874  0.00  0.00    +0.000 A 
ATOM     18  C   UNL     1      26.302  23.436  23.167  0.00  0.00    +0.000 A 
ATOM     19  C   UNL     1      25.516  23.364  24.334  0.00  0.00    +0.000 A 
ATOM     20  C   UNL     1      25.444  24.472  25.143  0.00  0.00    +0.000 A 
ATOM     21  C   UNL     1      26.133  25.601  24.794  0.00  0.00    +0.000 A 
ATOM     22  C   UNL     1      26.892  25.641  23.647  0.00  0.00    +0.000 A 
ENDBRANCH  16  17
ENDBRANCH   2  14
TORSDOF 4
ENDMDL
MODEL 6
REMARK VINA RESULT:      -6.4     22.849     24.985
REMARK  Name = 
REMARK  4 active torsions:
REMARK  status: ('A' for Active; 'I' for Inactive)
REMARK    1  A    between atoms: C_2  and  C_14
REMARK    2  A    between atoms: N_3  and  C_4
REMARK    3  A    between atoms: C_9  and  N_10
REMARK    4  A    between atoms: C_16  and  C_17
REMARK                            x       y       z     vdW  Elec       q    Type
REMARK                         _______ _______ _______ _____ _____    ______ ____
ROOT
ATOM      1  O   UNL     1      35.230  -0.668  35.907  0.00  0.00    +0.000 OA
ATOM      2  C   UNL     1      34.124  -0.568  36.407  0.00  0.00    +0.000 C 
ATOM      3  N   UNL     1      33.695   0.631  36.986  0.00  0.00    +0.000 NA
ENDROOT
BRANCH   3   4
ATOM      4  C   UNL     1      34.492   1.817  37.041  0.00  0.00    +0.000 A 
ATOM      5  C   UNL     1      35.663   1.873  37.770  0.00  0.00    +0.000 A 
ATOM      6  C   UNL     1      36.466   2.988  37.857  0.00  0.00    +0.000 A 
ATOM      7  C   UNL     1      36.110   4.135  37.188  0.00  0.00    +0.000 A 
ATOM      8  F   UNL     1      36.828   5.272  37.212  0.00  0.00    +0.000 F 
ATOM      9  C   UNL     1      34.936   4.111  36.445  0.00  0.00    +0.000 A 
ATOM     10  C   UNL     1      34.150   2.973  36.378  0.00  0.00    +0.000 A 
BRANCH   9  11
ATOM     11  N   UNL     1      34.567   5.298  35.753  0.00  0.00    +0.000 N 
ATOM     12  O   UNL     1      34.776   5.357  34.535  0.00  0.00    +0.000 OA
ATOM     13  O   UNL     1      33.997   6.340  36.422  0.00  0.00    +0.000 OA
ENDBRANCH   9  11
ENDBRANCH   3   4
BRANCH   2  14
ATOM     14  C   UNL     1      33.095  -1.761  36.448  0.00  0.00    +0.000 C 
ATOM     15  C   UNL     1      33.810  -2.859  35.305  0.00  0.00    +0.000 C 
ATOM     16  C   UNL     1      32.422  -1.871  34.852  0.00  0.00    +0.000 C 
BRANCH  16  17
ATOM     17  C   UNL     1      33.125  -0.723  34.009  0.00  0.00    +0.000 A 
ATOM     18  C   UNL     1      32.468   0.464  34.181  0.00  0.00    +0.000 A 
ATOM     19  C   UNL     1      32.932   1.615  33.516  0.00  0.00    +0.000 A 
ATOM     20  C   UNL     1      34.040   1.503  32.710  0.00  0.00    +0.000 A 
ATOM     21  C   UNL     1      34.652   0.287  32.581  0.00  0.00    +0.000 A 
ATOM     22  C   UNL     1      34.175  -0.820  33.243  0.00  0.00    +0.000 A 
ENDBRANCH  16  17
ENDBRANCH   2  14
TORSDOF 4
ENDMDL
MODEL 7
REMARK VINA RESULT:      -6.2     20.885     22.190
REMARK  Name = 
REMARK  4 active torsions:
REMARK  status: ('A' for Active; 'I' for Inactive)
REMARK    1  A    between atoms: C_2  and  C_14
REMARK    2  A    between atoms: N_3  and  C_4
REMARK    3  A    between atoms: C_9  and  N_10
REMARK    4  A    between atoms: C_16  and  C_17
REMARK                            x       y       z     vdW  Elec       q    Type
REMARK                         _______ _______ _______ _____ _____    ______ ____
ROOT
ATOM      1  O   UNL     1      25.379   6.221  17.715  0.00  0.00    +0.000 OA
ATOM      2  C   UNL     1      26.146   5.307  17.958  0.00  0.00    +0.000 C 
ATOM      3  N   UNL     1      25.843   3.990  17.597  0.00  0.00    +0.000 NA
ENDROOT
BRANCH   3   4
ATOM      4  C   UNL     1      24.639   3.607  16.927  0.00  0.00    +0.000 A 
ATOM      5  C   UNL     1      24.511   3.693  15.555  0.00  0.00    +0.000 A 
ATOM      6  C   UNL     1      23.375   3.338  14.862  0.00  0.00    +0.000 A 
ATOM      7  C   UNL     1      22.283   2.863  15.547  0.00  0.00    +0.000 A 
ATOM      8  F   UNL     1      21.131   2.492  14.959  0.00  0.00    +0.000 F 
ATOM      9  C   UNL     1      22.380   2.765  16.929  0.00  0.00    +0.000 A 
ATOM     10  C   UNL     1      23.537   3.130  17.597  0.00  0.00    +0.000 A 
BRANCH   9  11
ATOM     11  N   UNL     1      21.248   2.274  17.639  0.00  0.00    +0.000 N 
ATOM     12  O   UNL     1      21.153   1.054  17.822  0.00  0.00    +0.000 OA
ATOM     13  O   UNL     1      20.296   3.133  18.102  0.00  0.00    +0.000 OA
ENDBRANCH   9  11
ENDBRANCH   3   4
BRANCH   2  14
ATOM     14  C   UNL     1      27.525   5.522  18.689  0.00  0.00    +0.000 C 
ATOM     15  C   UNL     1      27.738   7.238  18.505  0.00  0.00    +0.000 C 
ATOM     16  C   UNL     1      28.625   6.108  17.482  0.00  0.00    +0.000 C 
BRANCH  16  17
ATOM     17  C   UNL     1      27.783   6.189  16.137  0.00  0.00    +0.000 A 
ATOM     18  C   UNL     1      27.999   5.075  15.374  0.00  0.00    +0.000 A 
ATOM     19  C   UNL     1      27.344   4.947  14.133  0.00  0.00    +0.000 A 
ATOM     20  C   UNL     1      26.504   5.958  13.731  0.00  0.00    +0.000 A 
ATOM     21  C   UNL     1      26.332   7.047  14.541  0.00  0.00    +0.000 A 
ATOM     22  C   UNL     1      26.986   7.143  15.747  0.00  0.00    +0.000 A 
ENDBRANCH  16  17
ENDBRANCH   2  14
TORSDOF 4
ENDMDL
MODEL 8
REMARK VINA RESULT:      -6.2     20.714     22.030
REMARK  Name = 
REMARK  4 active torsions:
REMARK  status: ('A' for Active; 'I' for Inactive)
REMARK    1  A    between atoms: C_2  and  C_14
REMARK    2  A    between atoms: N_3  and  C_4
REMARK    3  A    between atoms: C_9  and  N_10
REMARK    4  A    between atoms: C_16  and  C_17
REMARK                            x       y       z     vdW  Elec       q    Type
REMARK                         _______ _______ _______ _____ _____    ______ ____
ROOT
ATOM      1  O   UNL     1      29.392   4.239  17.143  0.00  0.00    +0.000 OA
ATOM      2  C   UNL     1      29.212   4.349  15.944  0.00  0.00    +0.000 C 
ATOM      3  N   UNL     1      28.111   3.755  15.318  0.00  0.00    +0.000 NA
ENDROOT
BRANCH   3   4
ATOM      4  C   UNL     1      27.122   2.987  16.009  0.00  0.00    +0.000 A 
ATOM      5  C   UNL     1      27.356   1.683  16.399  0.00  0.00    +0.000 A 
ATOM      6  C   UNL     1      26.440   0.900  17.064  0.00  0.00    +0.000 A 
ATOM      7  C   UNL     1      25.206   1.418  17.378  0.00  0.00    +0.000 A 
ATOM      8  F   UNL     1      24.247   0.732  18.025  0.00  0.00    +0.000 F 
ATOM      9  C   UNL     1      24.940   2.728  17.000  0.00  0.00    +0.000 A 
ATOM     10  C   UNL     1      25.883   3.489  16.331  0.00  0.00    +0.000 A 
BRANCH   9  11
ATOM     11  N   UNL     1      23.662   3.264  17.325  0.00  0.00    +0.000 N 
ATOM     12  O   UNL     1      22.696   2.945  16.619  0.00  0.00    +0.000 OA
ATOM     13  O   UNL     1      23.514   4.106  18.387  0.00  0.00    +0.000 OA
ENDBRANCH   9  11
ENDBRANCH   3   4
BRANCH   2  14
ATOM     14  C   UNL     1      30.188   5.156  15.005  0.00  0.00    +0.000 C 
ATOM     15  C   UNL     1      30.988   6.182  16.158  0.00  0.00    +0.000 C 
ATOM     16  C   UNL     1      29.708   6.819  15.127  0.00  0.00    +0.000 C 
BRANCH  16  17
ATOM     17  C   UNL     1      28.483   6.840  16.139  0.00  0.00    +0.000 A 
ATOM     18  C   UNL     1      27.300   6.842  15.453  0.00  0.00    +0.000 A 
ATOM     19  C   UNL     1      26.086   6.860  16.167  0.00  0.00    +0.000 A 
ATOM     20  C   UNL     1      26.135   6.876  17.540  0.00  0.00    +0.000 A 
ATOM     21  C   UNL     1      27.351   6.873  18.166  0.00  0.00    +0.000 A 
ATOM     22  C   UNL     1      28.520   6.856  17.441  0.00  0.00    +0.000 A 
ENDBRANCH  16  17
ENDBRANCH   2  14
TORSDOF 4
ENDMDL
MODEL 9
REMARK VINA RESULT:      -6.1      3.363      6.320
REMARK  Name = 
REMARK  4 active torsions:
REMARK  status: ('A' for Active; 'I' for Inactive)
REMARK    1  A    between atoms: C_2  and  C_14
REMARK    2  A    between atoms: N_3  and  C_4
REMARK    3  A    between atoms: C_9  and  N_10
REMARK    4  A    between atoms: C_16  and  C_17
REMARK                            x       y       z     vdW  Elec       q    Type
REMARK                         _______ _______ _______ _____ _____    ______ ____
ROOT
ATOM      1  O   UNL     1      25.782  26.768  26.982  0.00  0.00    +0.000 OA
ATOM      2  C   UNL     1      24.913  25.991  27.333  0.00  0.00    +0.000 C 
ATOM      3  N   UNL     1      24.883  24.674  26.863  0.00  0.00    +0.000 NA
ENDROOT
BRANCH   3   4
ATOM      4  C   UNL     1      25.845  24.133  25.952  0.00  0.00    +0.000 A 
ATOM      5  C   UNL     1      26.980  23.483  26.394  0.00  0.00    +0.000 A 
ATOM      6  C   UNL     1      27.936  22.946  25.561  0.00  0.00    +0.000 A 
ATOM      7  C   UNL     1      27.782  23.044  24.200  0.00  0.00    +0.000 A 
ATOM      8  F   UNL     1      28.660  22.552  23.307  0.00  0.00    +0.000 F 
ATOM      9  C   UNL     1      26.650  23.693  23.723  0.00  0.00    +0.000 A 
ATOM     10  C   UNL     1      25.706  24.223  24.587  0.00  0.00    +0.000 A 
BRANCH   9  11
ATOM     11  N   UNL     1      26.491  23.795  22.312  0.00  0.00    +0.000 N 
ATOM     12  O   UNL     1      25.678  23.045  21.756  0.00  0.00    +0.000 OA
ATOM     13  O   UNL     1      27.219  24.700  21.597  0.00  0.00    +0.000 OA
ENDBRANCH   9  11
ENDBRANCH   3   4
BRANCH   2  14
ATOM     14  C   UNL     1      23.761  26.392  28.331  0.00  0.00    +0.000 C 
ATOM     15  C   UNL     1      24.507  27.709  29.189  0.00  0.00    +0.000 C 
ATOM     16  C   UNL     1      24.386  26.111  29.926  0.00  0.00    +0.000 C 
BRANCH  16  17
ATOM     17  C   UNL     1      25.865  25.567  29.718  0.00  0.00    +0.000 A 
ATOM     18  C   UNL     1      25.902  24.212  29.899  0.00  0.00    +0.000 A 
ATOM     19  C   UNL     1      27.125  23.528  29.760  0.00  0.00    +0.000 A 
ATOM     20  C   UNL     1      28.248  24.254  29.445  0.00  0.00    +0.000 A 
ATOM     21  C   UNL     1      28.144  25.608  29.277  0.00  0.00    +0.000 A 
ATOM     22  C   UNL     1      26.935  26.248  29.420  0.00  0.00    +0.000 A 
ENDBRANCH  16  17
ENDBRANCH   2  14
TORSDOF 4
ENDMDL
MODEL 10
REMARK VINA RESULT:      -6.1     19.608     22.521
REMARK  Name = 
REMARK  4 active torsions:
REMARK  status: ('A' for Active; 'I' for Inactive)
REMARK    1  A    between atoms: C_2  and  C_14
REMARK    2  A    between atoms: N_3  and  C_4
REMARK    3  A    between atoms: C_9  and  N_10
REMARK    4  A    between atoms: C_16  and  C_17
REMARK                            x       y       z     vdW  Elec       q    Type
REMARK                         _______ _______ _______ _____ _____    ______ ____
ROOT
ATOM      1  O   UNL     1      18.624   7.641  39.064  0.00  0.00    +0.000 OA
ATOM      2  C   UNL     1      19.288   8.566  39.498  0.00  0.00    +0.000 C 
ATOM      3  N   UNL     1      19.008   9.889  39.141  0.00  0.00    +0.000 NA
ENDROOT
BRANCH   3   4
ATOM      4  C   UNL     1      17.947  10.268  38.259  0.00  0.00    +0.000 A 
ATOM      5  C   UNL     1      16.683  10.562  38.728  0.00  0.00    +0.000 A 
ATOM      6  C   UNL     1      15.627  10.931  37.924  0.00  0.00    +0.000 A 
ATOM      7  C   UNL     1      15.810  11.023  36.566  0.00  0.00    +0.000 A 
ATOM      8  F   UNL     1      14.842  11.375  35.700  0.00  0.00    +0.000 F 
ATOM      9  C   UNL     1      17.072  10.734  36.062  0.00  0.00    +0.000 A 
ATOM     10  C   UNL     1      18.113  10.366  36.898  0.00  0.00    +0.000 A 
BRANCH   9  11
ATOM     11  N   UNL     1      17.261  10.829  34.654  0.00  0.00    +0.000 N 
ATOM     12  O   UNL     1      17.091  11.928  34.112  0.00  0.00    +0.000 OA
ATOM     13  O   UNL     1      17.620   9.732  33.929  0.00  0.00    +0.000 OA
ENDBRANCH   9  11
ENDBRANCH   3   4
BRANCH   2  14
ATOM     14  C   UNL     1      20.500   8.358  40.482  0.00  0.00    +0.000 C 
ATOM     15  C   UNL     1      20.222   6.726  41.015  0.00  0.00    +0.000 C 
ATOM     16  C   UNL     1      19.808   8.091  42.051  0.00  0.00    +0.000 C 
BRANCH  16  17
ATOM     17  C   UNL     1      18.234   8.164  41.844  0.00  0.00    +0.000 A 
ATOM     18  C   UNL     1      17.773   9.417  42.143  0.00  0.00    +0.000 A 
ATOM     19  C   UNL     1      16.397   9.695  42.025  0.00  0.00    +0.000 A 
ATOM     20  C   UNL     1      15.560   8.688  41.610  0.00  0.00    +0.000 A 
ATOM     21  C   UNL     1      16.084   7.457  41.326  0.00  0.00    +0.000 A 
ATOM     22  C   UNL     1      17.432   7.215  41.451  0.00  0.00    +0.000 A 
ENDBRANCH  16  17
ENDBRANCH   2  14
TORSDOF 4
ENDMDL
