MODEL 1
REMARK VINA RESULT:      -6.5      0.000      0.000
REMARK  Name = 
REMARK  3 active torsions:
REMARK  status: ('A' for Active; 'I' for Inactive)
REMARK    1  A    between atoms: C_6  and  N_7
REMARK    2  A    between atoms: C_9  and  N_11
REMARK    3  A    between atoms: C_13  and  C_14
REMARK                            x       y       z     vdW  Elec       q    Type
REMARK                         _______ _______ _______ _____ _____    ______ ____
ROOT
ATOM      1  C   UNL     1      29.630  27.374  20.881  0.00  0.00    +0.000 C 
ATOM      2  C   UNL     1      28.645  26.539  21.671  0.00  0.00    +0.000 C 
ATOM      3  C   UNL     1      27.395  26.538  21.263  0.00  0.00    +0.000 C 
ATOM      4  C   UNL     1      29.248  24.940  21.763  0.00  0.00    +0.000 C 
ATOM      5  C   UNL     1      28.080  24.062  22.233  0.00  0.00    +0.000 C 
ATOM      6  C   UNL     1      27.197  24.101  23.093  0.00  0.00    +0.000 C 
ATOM      7  C   UNL     1      27.189  25.287  23.966  0.00  0.00    +0.000 C 
ATOM      8  C   UNL     1      26.073  26.277  23.757  0.00  0.00    +0.000 C 
ATOM      9  C   UNL     1      28.495  25.692  24.135  0.00  0.00    +0.000 C 
ATOM     10  C   UNL     1      29.508  26.053  23.011  0.00  0.00    +0.000 C 
ENDROOT
BRANCH   7  11
ATOM     11  N   UNL     1      26.777  24.744  25.290  0.00  0.00    +0.000 N 
ATOM     12  O   UNL     1      25.454  24.460  25.513  0.00  0.00    +0.000 OA
ATOM     13  C   UNL     1      27.551  24.514  26.254  0.00  0.00    +0.000 C 
BRANCH  13  14
ATOM     14  C   UNL     1      27.167  23.980  27.563  0.00  0.00    +0.000 A 
ATOM     15  C   UNL     1      26.372  24.607  28.455  0.00  0.00    +0.000 A 
ATOM     16  C   UNL     1      26.074  24.011  29.663  0.00  0.00    +0.000 A 
ATOM     17  C   UNL     1      26.608  22.767  29.931  0.00  0.00    +0.000 A 
ATOM     18  C   UNL     1      27.423  22.099  29.042  0.00  0.00    +0.000 A 
ATOM     19  C   UNL     1      27.695  22.734  27.844  0.00  0.00    +0.000 A 
ATOM     20  F   UNL     1      28.509  22.072  26.954  0.00  0.00    +0.000 F 
ENDBRANCH  13  14
ENDBRANCH   7  11
BRANCH   6  21
ATOM     21  N   UNL     1      26.198  23.068  23.292  0.00  0.00    +0.000 NA
ATOM     22  O   UNL     1      25.334  22.699  22.337  0.00  0.00    +0.000 OA
ENDBRANCH   6  21
TORSDOF 3
ENDMDL
MODEL 2
REMARK VINA RESULT:      -6.5      2.735      3.902
REMARK  Name = 
REMARK  3 active torsions:
REMARK  status: ('A' for Active; 'I' for Inactive)
REMARK    1  A    between atoms: C_6  and  N_7
REMARK    2  A    between atoms: C_9  and  N_11
REMARK    3  A    between atoms: C_13  and  C_14
REMARK                            x       y       z     vdW  Elec       q    Type
REMARK                         _______ _______ _______ _____ _____    ______ ____
ROOT
ATOM      1  C   UNL     1      32.027  23.756  24.906  0.00  0.00    +0.000 C 
ATOM      2  C   UNL     1      30.598  24.099  24.543  0.00  0.00    +0.000 C 
ATOM      3  C   UNL     1      30.419  25.019  23.620  0.00  0.00    +0.000 C 
ATOM      4  C   UNL     1      29.789  22.654  24.117  0.00  0.00    +0.000 C 
ATOM      5  C   UNL     1      28.491  23.074  23.414  0.00  0.00    +0.000 C 
ATOM      6  C   UNL     1      27.581  23.889  23.587  0.00  0.00    +0.000 C 
ATOM      7  C   UNL     1      27.685  24.736  24.787  0.00  0.00    +0.000 C 
ATOM      8  C   UNL     1      28.016  26.189  24.566  0.00  0.00    +0.000 C 
ATOM      9  C   UNL     1      28.299  23.995  25.772  0.00  0.00    +0.000 C 
ATOM     10  C   UNL     1      29.685  23.294  25.679  0.00  0.00    +0.000 C 
ENDROOT
BRANCH   7  11
ATOM     11  N   UNL     1      26.272  24.883  25.235  0.00  0.00    +0.000 N 
ATOM     12  O   UNL     1      25.540  23.758  25.515  0.00  0.00    +0.000 OA
ATOM     13  C   UNL     1      25.668  25.975  25.385  0.00  0.00    +0.000 C 
BRANCH  13  14
ATOM     14  C   UNL     1      24.280  26.142  25.824  0.00  0.00    +0.000 A 
ATOM     15  C   UNL     1      23.235  26.405  25.013  0.00  0.00    +0.000 A 
ATOM     16  C   UNL     1      21.965  26.544  25.534  0.00  0.00    +0.000 A 
ATOM     17  C   UNL     1      21.796  26.407  26.897  0.00  0.00    +0.000 A 
ATOM     18  C   UNL     1      22.842  26.139  27.754  0.00  0.00    +0.000 A 
ATOM     19  C   UNL     1      24.097  26.008  27.188  0.00  0.00    +0.000 A 
ATOM     20  F   UNL     1      25.145  25.741  28.039  0.00  0.00    +0.000 F 
ENDBRANCH  13  14
ENDBRANCH   7  11
BRANCH   6  21
ATOM     21  N   UNL     1      26.442  24.049  22.702  0.00  0.00    +0.000 NA
ATOM     22  O   UNL     1      25.741  23.012  22.225  0.00  0.00    +0.000 OA
ENDBRANCH   6  21
TORSDOF 3
ENDMDL
MODEL 3
REMARK VINA RESULT:      -6.4      1.718      2.250
REMARK  Name = 
REMARK  3 active torsions:
REMARK  status: ('A' for Active; 'I' for Inactive)
REMARK    1  A    between atoms: C_6  and  N_7
REMARK    2  A    between atoms: C_9  and  N_11
REMARK    3  A    between atoms: C_13  and  C_14
REMARK                            x       y       z     vdW  Elec       q    Type
REMARK                         _______ _______ _______ _____ _____    ______ ____
ROOT
ATOM      1  C   UNL     1      29.407  25.656  20.737  0.00  0.00    +0.000 C 
ATOM      2  C   UNL     1      28.655  25.417  22.029  0.00  0.00    +0.000 C 
ATOM      3  C   UNL     1      28.063  26.455  22.579  0.00  0.00    +0.000 C 
ATOM      4  C   UNL     1      27.534  24.151  21.773  0.00  0.00    +0.000 C 
ATOM      5  C   UNL     1      26.558  24.189  22.957  0.00  0.00    +0.000 C 
ATOM      6  C   UNL     1      26.615  24.297  24.185  0.00  0.00    +0.000 C 
ATOM      7  C   UNL     1      27.963  24.424  24.765  0.00  0.00    +0.000 C 
ATOM      8  C   UNL     1      28.340  25.773  25.317  0.00  0.00    +0.000 C 
ATOM      9  C   UNL     1      28.827  23.693  23.981  0.00  0.00    +0.000 C 
ATOM     10  C   UNL     1      29.056  23.856  22.450  0.00  0.00    +0.000 C 
ENDROOT
BRANCH   7  11
ATOM     11  N   UNL     1      27.864  23.667  26.044  0.00  0.00    +0.000 N 
ATOM     12  O   UNL     1      27.686  22.308  26.004  0.00  0.00    +0.000 OA
ATOM     13  C   UNL     1      27.932  24.171  27.194  0.00  0.00    +0.000 C 
BRANCH  13  14
ATOM     14  C   UNL     1      27.838  23.446  28.463  0.00  0.00    +0.000 A 
ATOM     15  C   UNL     1      28.889  23.030  29.200  0.00  0.00    +0.000 A 
ATOM     16  C   UNL     1      28.686  22.353  30.385  0.00  0.00    +0.000 A 
ATOM     17  C   UNL     1      27.388  22.116  30.791  0.00  0.00    +0.000 A 
ATOM     18  C   UNL     1      26.293  22.527  30.063  0.00  0.00    +0.000 A 
ATOM     19  C   UNL     1      26.543  23.202  28.882  0.00  0.00    +0.000 A 
ATOM     20  F   UNL     1      25.453  23.614  28.151  0.00  0.00    +0.000 F 
ENDBRANCH  13  14
ENDBRANCH   7  11
BRANCH   6  21
ATOM     21  N   UNL     1      25.461  24.299  25.064  0.00  0.00    +0.000 NA
ATOM     22  O   UNL     1      24.846  25.423  25.454  0.00  0.00    +0.000 OA
ENDBRANCH   6  21
TORSDOF 3
ENDMDL
MODEL 4
REMARK VINA RESULT:      -6.3     31.983     34.503
REMARK  Name = 
REMARK  3 active torsions:
REMARK  status: ('A' for Active; 'I' for Inactive)
REMARK    1  A    between atoms: C_6  and  N_7
REMARK    2  A    between atoms: C_9  and  N_11
REMARK    3  A    between atoms: C_13  and  C_14
REMARK                            x       y       z     vdW  Elec       q    Type
REMARK                         _______ _______ _______ _____ _____    ______ ____
ROOT
ATOM      1  C   UNL     1      16.204 -11.715  29.031  0.00  0.00    +0.000 C 
ATOM      2  C   UNL     1      16.788 -10.700  28.071  0.00  0.00    +0.000 C 
ATOM      3  C   UNL     1      15.976 -10.189  27.172  0.00  0.00    +0.000 C 
ATOM      4  C   UNL     1      17.528  -9.458  28.986  0.00  0.00    +0.000 C 
ATOM      5  C   UNL     1      17.772  -8.292  28.018  0.00  0.00    +0.000 C 
ATOM      6  C   UNL     1      18.211  -8.129  26.878  0.00  0.00    +0.000 C 
ATOM      7  C   UNL     1      18.658  -9.342  26.172  0.00  0.00    +0.000 C 
ATOM      8  C   UNL     1      17.798  -9.820  25.032  0.00  0.00    +0.000 C 
ATOM      9  C   UNL     1      19.164 -10.211  27.112  0.00  0.00    +0.000 C 
ATOM     10  C   UNL     1      18.426 -10.753  28.369  0.00  0.00    +0.000 C 
ENDROOT
BRANCH   7  11
ATOM     11  N   UNL     1      19.841  -8.878  25.395  0.00  0.00    +0.000 N 
ATOM     12  O   UNL     1      19.761  -8.817  24.027  0.00  0.00    +0.000 OA
ATOM     13  C   UNL     1      20.942  -8.525  25.890  0.00  0.00    +0.000 C 
BRANCH  13  14
ATOM     14  C   UNL     1      22.117  -8.066  25.145  0.00  0.00    +0.000 A 
ATOM     15  C   UNL     1      23.141  -8.849  24.748  0.00  0.00    +0.000 A 
ATOM     16  C   UNL     1      24.201  -8.311  24.050  0.00  0.00    +0.000 A 
ATOM     17  C   UNL     1      24.186  -6.959  23.771  0.00  0.00    +0.000 A 
ATOM     18  C   UNL     1      23.157  -6.130  24.162  0.00  0.00    +0.000 A 
ATOM     19  C   UNL     1      22.114  -6.713  24.860  0.00  0.00    +0.000 A 
ATOM     20  F   UNL     1      21.084  -5.889  25.253  0.00  0.00    +0.000 F 
ENDBRANCH  13  14
ENDBRANCH   7  11
BRANCH   6  21
ATOM     21  N   UNL     1      18.316  -6.843  26.214  0.00  0.00    +0.000 NA
ATOM     22  O   UNL     1      17.805  -5.716  26.728  0.00  0.00    +0.000 OA
ENDBRANCH   6  21
TORSDOF 3
ENDMDL
MODEL 5
REMARK VINA RESULT:      -6.3      2.601      3.633
REMARK  Name = 
REMARK  3 active torsions:
REMARK  status: ('A' for Active; 'I' for Inactive)
REMARK    1  A    between atoms: C_6  and  N_7
REMARK    2  A    between atoms: C_9  and  N_11
REMARK    3  A    between atoms: C_13  and  C_14
REMARK                            x       y       z     vdW  Elec       q    Type
REMARK                         _______ _______ _______ _____ _____    ______ ____
ROOT
ATOM      1  C   UNL     1      27.573  25.001  21.636  0.00  0.00    +0.000 C 
ATOM      2  C   UNL     1      27.471  24.777  23.130  0.00  0.00    +0.000 C 
ATOM      3  C   UNL     1      27.072  25.793  23.863  0.00  0.00    +0.000 C 
ATOM      4  C   UNL     1      26.477  23.412  23.402  0.00  0.00    +0.000 C 
ATOM      5  C   UNL     1      26.101  23.439  24.890  0.00  0.00    +0.000 C 
ATOM      6  C   UNL     1      26.665  23.622  25.972  0.00  0.00    +0.000 C 
ATOM      7  C   UNL     1      28.112  23.890  25.915  0.00  0.00    +0.000 C 
ATOM      8  C   UNL     1      28.554  25.296  26.227  0.00  0.00    +0.000 C 
ATOM      9  C   UNL     1      28.627  23.189  24.847  0.00  0.00    +0.000 C 
ATOM     10  C   UNL     1      28.164  23.281  23.365  0.00  0.00    +0.000 C 
ENDROOT
BRANCH   7  11
ATOM     11  N   UNL     1      28.643  23.203  27.124  0.00  0.00    +0.000 N 
ATOM     12  O   UNL     1      28.427  21.857  27.277  0.00  0.00    +0.000 OA
ATOM     13  C   UNL     1      29.291  23.756  28.048  0.00  0.00    +0.000 C 
BRANCH  13  14
ATOM     14  C   UNL     1      29.823  23.100  29.245  0.00  0.00    +0.000 A 
ATOM     15  C   UNL     1      29.171  22.980  30.420  0.00  0.00    +0.000 A 
ATOM     16  C   UNL     1      29.767  22.340  31.487  0.00  0.00    +0.000 A 
ATOM     17  C   UNL     1      31.039  21.831  31.320  0.00  0.00    +0.000 A 
ATOM     18  C   UNL     1      31.733  21.936  30.134  0.00  0.00    +0.000 A 
ATOM     19  C   UNL     1      31.097  22.585  29.091  0.00  0.00    +0.000 A 
ATOM     20  F   UNL     1      31.786  22.693  27.905  0.00  0.00    +0.000 F 
ENDBRANCH  13  14
ENDBRANCH   7  11
BRANCH   6  21
ATOM     21  N   UNL     1      26.002  23.580  27.262  0.00  0.00    +0.000 NA
ATOM     22  O   UNL     1      25.423  24.654  27.816  0.00  0.00    +0.000 OA
ENDBRANCH   6  21
TORSDOF 3
ENDMDL
MODEL 6
REMARK VINA RESULT:      -6.2      3.575      4.208
REMARK  Name = 
REMARK  3 active torsions:
REMARK  status: ('A' for Active; 'I' for Inactive)
REMARK    1  A    between atoms: C_6  and  N_7
REMARK    2  A    between atoms: C_9  and  N_11
REMARK    3  A    between atoms: C_13  and  C_14
REMARK                            x       y       z     vdW  Elec       q    Type
REMARK                         _______ _______ _______ _____ _____    ______ ____
ROOT
ATOM      1  C   UNL     1      27.877  26.402  21.143  0.00  0.00    +0.000 C 
ATOM      2  C   UNL     1      28.114  25.666  22.445  0.00  0.00    +0.000 C 
ATOM      3  C   UNL     1      27.394  26.035  23.482  0.00  0.00    +0.000 C 
ATOM      4  C   UNL     1      27.935  23.990  22.155  0.00  0.00    +0.000 C 
ATOM      5  C   UNL     1      27.814  23.322  23.533  0.00  0.00    +0.000 C 
ATOM      6  C   UNL     1      28.377  23.380  24.629  0.00  0.00    +0.000 C 
ATOM      7  C   UNL     1      29.499  24.329  24.735  0.00  0.00    +0.000 C 
ATOM      8  C   UNL     1      29.265  25.567  25.560  0.00  0.00    +0.000 C 
ATOM      9  C   UNL     1      30.121  24.382  23.507  0.00  0.00    +0.000 C 
ATOM     10  C   UNL     1      29.457  24.729  22.144  0.00  0.00    +0.000 C 
ENDROOT
BRANCH   7  11
ATOM     11  N   UNL     1      30.463  23.630  25.629  0.00  0.00    +0.000 N 
ATOM     12  O   UNL     1      31.179  22.567  25.140  0.00  0.00    +0.000 OA
ATOM     13  C   UNL     1      30.691  23.931  26.829  0.00  0.00    +0.000 C 
BRANCH  13  14
ATOM     14  C   UNL     1      31.634  23.258  27.725  0.00  0.00    +0.000 A 
ATOM     15  C   UNL     1      31.405  22.090  28.360  0.00  0.00    +0.000 A 
ATOM     16  C   UNL     1      32.366  21.544  29.185  0.00  0.00    +0.000 A 
ATOM     17  C   UNL     1      33.559  22.220  29.341  0.00  0.00    +0.000 A 
ATOM     18  C   UNL     1      33.825  23.415  28.708  0.00  0.00    +0.000 A 
ATOM     19  C   UNL     1      32.833  23.926  27.891  0.00  0.00    +0.000 A 
ATOM     20  F   UNL     1      33.094  25.119  27.257  0.00  0.00    +0.000 F 
ENDBRANCH  13  14
ENDBRANCH   7  11
BRANCH   6  21
ATOM     21  N   UNL     1      28.010  22.583  25.784  0.00  0.00    +0.000 NA
ATOM     22  O   UNL     1      27.036  22.939  26.633  0.00  0.00    +0.000 OA
ENDBRANCH   6  21
TORSDOF 3
ENDMDL
MODEL 7
REMARK VINA RESULT:      -6.2      2.088      2.515
REMARK  Name = 
REMARK  3 active torsions:
REMARK  status: ('A' for Active; 'I' for Inactive)
REMARK    1  A    between atoms: C_6  and  N_7
REMARK    2  A    between atoms: C_9  and  N_11
REMARK    3  A    between atoms: C_13  and  C_14
REMARK                            x       y       z     vdW  Elec       q    Type
REMARK                         _______ _______ _______ _____ _____    ______ ____
ROOT
ATOM      1  C   UNL     1      27.741  27.402  21.144  0.00  0.00    +0.000 C 
ATOM      2  C   UNL     1      27.969  26.182  22.012  0.00  0.00    +0.000 C 
ATOM      3  C   UNL     1      27.981  25.012  21.411  0.00  0.00    +0.000 C 
ATOM      4  C   UNL     1      29.413  26.417  22.898  0.00  0.00    +0.000 C 
ATOM      5  C   UNL     1      29.801  25.044  23.467  0.00  0.00    +0.000 C 
ATOM      6  C   UNL     1      29.247  24.103  24.038  0.00  0.00    +0.000 C 
ATOM      7  C   UNL     1      27.804  24.255  24.294  0.00  0.00    +0.000 C 
ATOM      8  C   UNL     1      26.875  23.405  23.468  0.00  0.00    +0.000 C 
ATOM      9  C   UNL     1      27.557  25.591  24.519  0.00  0.00    +0.000 C 
ATOM     10  C   UNL     1      27.901  26.773  23.568  0.00  0.00    +0.000 C 
ENDROOT
BRANCH   7  11
ATOM     11  N   UNL     1      27.612  23.596  25.616  0.00  0.00    +0.000 N 
ATOM     12  O   UNL     1      27.142  22.309  25.659  0.00  0.00    +0.000 OA
ATOM     13  C   UNL     1      27.848  24.125  26.732  0.00  0.00    +0.000 C 
BRANCH  13  14
ATOM     14  C   UNL     1      27.667  23.496  28.042  0.00  0.00    +0.000 A 
ATOM     15  C   UNL     1      28.634  22.868  28.743  0.00  0.00    +0.000 A 
ATOM     16  C   UNL     1      28.352  22.309  29.972  0.00  0.00    +0.000 A 
ATOM     17  C   UNL     1      27.066  22.410  30.461  0.00  0.00    +0.000 A 
ATOM     18  C   UNL     1      26.055  23.045  29.772  0.00  0.00    +0.000 A 
ATOM     19  C   UNL     1      26.382  23.591  28.544  0.00  0.00    +0.000 A 
ATOM     20  F   UNL     1      25.377  24.225  27.851  0.00  0.00    +0.000 F 
ENDBRANCH  13  14
ENDBRANCH   7  11
BRANCH   6  21
ATOM     21  N   UNL     1      29.919  22.891  24.467  0.00  0.00    +0.000 NA
ATOM     22  O   UNL     1      31.230  22.683  24.283  0.00  0.00    +0.000 OA
ENDBRANCH   6  21
TORSDOF 3
ENDMDL
MODEL 8
REMARK VINA RESULT:      -6.0     29.095     31.406
REMARK  Name = 
REMARK  3 active torsions:
REMARK  status: ('A' for Active; 'I' for Inactive)
REMARK    1  A    between atoms: C_6  and  N_7
REMARK    2  A    between atoms: C_9  and  N_11
REMARK    3  A    between atoms: C_13  and  C_14
REMARK                            x       y       z     vdW  Elec       q    Type
REMARK                         _______ _______ _______ _____ _____    ______ ____
ROOT
ATOM      1  C   UNL     1      34.128  -0.452  35.773  0.00  0.00    +0.000 C 
ATOM      2  C   UNL     1      33.851  -1.882  35.363  0.00  0.00    +0.000 C 
ATOM      3  C   UNL     1      34.112  -2.821  36.247  0.00  0.00    +0.000 C 
ATOM      4  C   UNL     1      32.226  -1.986  34.838  0.00  0.00    +0.000 C 
ATOM      5  C   UNL     1      31.881  -3.481  34.788  0.00  0.00    +0.000 C 
ATOM      6  C   UNL     1      32.397  -4.524  34.380  0.00  0.00    +0.000 C 
ATOM      7  C   UNL     1      33.716  -4.391  33.739  0.00  0.00    +0.000 C 
ATOM      8  C   UNL     1      34.900  -4.916  34.507  0.00  0.00    +0.000 C 
ATOM      9  C   UNL     1      33.749  -3.173  33.098  0.00  0.00    +0.000 C 
ATOM     10  C   UNL     1      33.495  -1.778  33.739  0.00  0.00    +0.000 C 
ENDROOT
BRANCH   7  11
ATOM     11  N   UNL     1      33.677  -5.404  32.647  0.00  0.00    +0.000 N 
ATOM     12  O   UNL     1      34.260  -6.628  32.850  0.00  0.00    +0.000 OA
ATOM     13  C   UNL     1      33.144  -5.237  31.520  0.00  0.00    +0.000 C 
BRANCH  13  14
ATOM     14  C   UNL     1      33.095  -6.217  30.433  0.00  0.00    +0.000 A 
ATOM     15  C   UNL     1      32.348  -7.341  30.434  0.00  0.00    +0.000 A 
ATOM     16  C   UNL     1      32.377  -8.198  29.353  0.00  0.00    +0.000 A 
ATOM     17  C   UNL     1      33.184  -7.876  28.281  0.00  0.00    +0.000 A 
ATOM     18  C   UNL     1      33.958  -6.736  28.248  0.00  0.00    +0.000 A 
ATOM     19  C   UNL     1      33.899  -5.906  29.352  0.00  0.00    +0.000 A 
ATOM     20  F   UNL     1      34.671  -4.768  29.325  0.00  0.00    +0.000 F 
ENDBRANCH  13  14
ENDBRANCH   7  11
BRANCH   6  21
ATOM     21  N   UNL     1      31.790  -5.838  34.486  0.00  0.00    +0.000 NA
ATOM     22  O   UNL     1      31.577  -6.447  35.661  0.00  0.00    +0.000 OA
ENDBRANCH   6  21
TORSDOF 3
ENDMDL
MODEL 9
REMARK VINA RESULT:      -6.0      3.905      5.209
REMARK  Name = 
REMARK  3 active torsions:
REMARK  status: ('A' for Active; 'I' for Inactive)
REMARK    1  A    between atoms: C_6  and  N_7
REMARK    2  A    between atoms: C_9  and  N_11
REMARK    3  A    between atoms: C_13  and  C_14
REMARK                            x       y       z     vdW  Elec       q    Type
REMARK                         _______ _______ _______ _____ _____    ______ ____
ROOT
ATOM      1  C   UNL     1      25.586  23.058  22.999  0.00  0.00    +0.000 C 
ATOM      2  C   UNL     1      26.864  23.407  23.731  0.00  0.00    +0.000 C 
ATOM      3  C   UNL     1      27.915  23.700  22.996  0.00  0.00    +0.000 C 
ATOM      4  C   UNL     1      26.526  24.675  24.828  0.00  0.00    +0.000 C 
ATOM      5  C   UNL     1      27.884  25.241  25.269  0.00  0.00    +0.000 C 
ATOM      6  C   UNL     1      28.978  24.807  25.637  0.00  0.00    +0.000 C 
ATOM      7  C   UNL     1      29.107  23.342  25.710  0.00  0.00    +0.000 C 
ATOM      8  C   UNL     1      29.969  22.683  24.665  0.00  0.00    +0.000 C 
ATOM      9  C   UNL     1      27.878  22.830  26.065  0.00  0.00    +0.000 C 
ATOM     10  C   UNL     1      26.529  23.057  25.324  0.00  0.00    +0.000 C 
ENDROOT
BRANCH   7  11
ATOM     11  N   UNL     1      29.975  23.127  26.901  0.00  0.00    +0.000 N 
ATOM     12  O   UNL     1      29.454  23.327  28.153  0.00  0.00    +0.000 OA
ATOM     13  C   UNL     1      31.180  22.767  26.865  0.00  0.00    +0.000 C 
BRANCH  13  14
ATOM     14  C   UNL     1      32.052  22.550  28.022  0.00  0.00    +0.000 A 
ATOM     15  C   UNL     1      32.054  21.446  28.797  0.00  0.00    +0.000 A 
ATOM     16  C   UNL     1      32.920  21.345  29.866  0.00  0.00    +0.000 A 
ATOM     17  C   UNL     1      33.778  22.397  30.117  0.00  0.00    +0.000 A 
ATOM     18  C   UNL     1      33.802  23.538  29.345  0.00  0.00    +0.000 A 
ATOM     19  C   UNL     1      32.916  23.596  28.285  0.00  0.00    +0.000 A 
ATOM     20  F   UNL     1      32.937  24.734  27.511  0.00  0.00    +0.000 F 
ENDBRANCH  13  14
ENDBRANCH   7  11
BRANCH   6  21
ATOM     21  N   UNL     1      30.111  25.638  25.999  0.00  0.00    +0.000 NA
ATOM     22  O   UNL     1      30.059  26.551  26.977  0.00  0.00    +0.000 OA
ENDBRANCH   6  21
TORSDOF 3
ENDMDL
MODEL 10
REMARK VINA RESULT:      -6.0      2.392      2.574
REMARK  Name = 
REMARK  3 active torsions:
REMARK  status: ('A' for Active; 'I' for Inactive)
REMARK    1  A    between atoms: C_6  and  N_7
REMARK    2  A    between atoms: C_9  and  N_11
REMARK    3  A    between atoms: C_13  and  C_14
REMARK                            x       y       z     vdW  Elec       q    Type
REMARK                         _______ _______ _______ _____ _____    ______ ____
ROOT
ATOM      1  C   UNL     1      28.517  28.900  20.064  0.00  0.00    +0.000 C 
ATOM      2  C   UNL     1      28.260  27.693  20.940  0.00  0.00    +0.000 C 
ATOM      3  C   UNL     1      27.042  27.198  20.937  0.00  0.00    +0.000 C 
ATOM      4  C   UNL     1      29.401  26.483  20.537  0.00  0.00    +0.000 C 
ATOM      5  C   UNL     1      28.888  25.178  21.162  0.00  0.00    +0.000 C 
ATOM      6  C   UNL     1      28.420  24.803  22.240  0.00  0.00    +0.000 C 
ATOM      7  C   UNL     1      28.284  25.833  23.284  0.00  0.00    +0.000 C 
ATOM      8  C   UNL     1      26.886  26.283  23.616  0.00  0.00    +0.000 C 
ATOM      9  C   UNL     1      29.316  26.731  23.124  0.00  0.00    +0.000 C 
ATOM     10  C   UNL     1      29.655  27.536  21.837  0.00  0.00    +0.000 C 
ENDROOT
BRANCH   7  11
ATOM     11  N   UNL     1      28.599  25.099  24.541  0.00  0.00    +0.000 N 
ATOM     12  O   UNL     1      27.573  24.700  25.357  0.00  0.00    +0.000 OA
ATOM     13  C   UNL     1      29.755  24.802  24.938  0.00  0.00    +0.000 C 
BRANCH  13  14
ATOM     14  C   UNL     1      30.088  24.081  26.169  0.00  0.00    +0.000 A 
ATOM     15  C   UNL     1      30.209  24.643  27.390  0.00  0.00    +0.000 A 
ATOM     16  C   UNL     1      30.527  23.868  28.486  0.00  0.00    +0.000 A 
ATOM     17  C   UNL     1      30.716  22.513  28.300  0.00  0.00    +0.000 A 
ATOM     18  C   UNL     1      30.599  21.908  27.068  0.00  0.00    +0.000 A 
ATOM     19  C   UNL     1      30.279  22.723  25.997  0.00  0.00    +0.000 A 
ATOM     20  F   UNL     1      30.162  22.123  24.764  0.00  0.00    +0.000 F 
ENDBRANCH  13  14
ENDBRANCH   7  11
BRANCH   6  21
ATOM     21  N   UNL     1      28.013  23.441  22.530  0.00  0.00    +0.000 NA
ATOM     22  O   UNL     1      26.735  23.041  22.491  0.00  0.00    +0.000 OA
ENDBRANCH   6  21
TORSDOF 3
ENDMDL
