MODEL 1
REMARK VINA RESULT:      -6.8      0.000      0.000
REMARK  Name = 
REMARK  3 active torsions:
REMARK  status: ('A' for Active; 'I' for Inactive)
REMARK    1  A    between atoms: C_5  and  O_6
REMARK    2  A    between atoms: O_6  and  C_7
REMARK    3  A    between atoms: C_13  and  C_14
REMARK                            x       y       z     vdW  Elec       q    Type
REMARK                         _______ _______ _______ _____ _____    ______ ____
ROOT
ATOM      1  C   UNL     1      19.321   9.590  37.977  0.00  0.00    +0.000 A 
ATOM      2  C   UNL     1      19.795   9.239  39.175  0.00  0.00    +0.000 A 
ATOM      3  C   UNL     1      18.884   9.224  40.206  0.00  0.00    +0.000 A 
ATOM      4  C   UNL     1      17.540   9.564  40.041  0.00  0.00    +0.000 A 
ATOM      5 CL   UNL     1      16.435   9.623  41.395  0.00  0.00    +0.000 Cl
ATOM      6  C   UNL     1      17.106   9.922  38.749  0.00  0.00    +0.000 A 
ATOM      7  C   UNL     1      17.979   9.946  37.707  0.00  0.00    +0.000 A 
ENDROOT
BRANCH   7   8
ATOM      8  C   UNL     1      17.828  10.506  36.365  0.00  0.00    +0.000 C 
ATOM      9  C   UNL     1      17.155   9.526  35.373  0.00  0.00    +0.000 C 
ATOM     10  C   UNL     1      17.649  10.166  34.010  0.00  0.00    +0.000 C 
ATOM     11  C   UNL     1      16.899  11.517  33.981  0.00  0.00    +0.000 C 
ATOM     12  C   UNL     1      15.945  11.558  35.171  0.00  0.00    +0.000 C 
ATOM     13  C   UNL     1      16.774  11.698  36.462  0.00  0.00    +0.000 C 
ENDBRANCH   7   8
BRANCH   1  14
ATOM     14  O   UNL     1      20.194   9.621  36.830  0.00  0.00    +0.000 OA
BRANCH  14  19
ATOM     15  N   UNL     1      25.299  11.598  37.677  0.00  0.00    +0.000 NA
ATOM     16  C   UNL     1      23.971  11.064  37.498  0.00  0.00    +0.000 A 
ATOM     17  C   UNL     1      23.794   9.878  36.802  0.00  0.00    +0.000 A 
ATOM     18  C   UNL     1      22.552   9.411  36.577  0.00  0.00    +0.000 A 
ATOM     19  C   UNL     1      21.437  10.137  37.058  0.00  0.00    +0.000 A 
ATOM     20  N   UNL     1      21.627  11.269  37.721  0.00  0.00    +0.000 NA
ATOM     21  C   UNL     1      22.872  11.758  37.962  0.00  0.00    +0.000 A 
ENDBRANCH  14  19
ENDBRANCH   1  14
TORSDOF 3
ENDMDL
MODEL 2
REMARK VINA RESULT:      -6.7      3.734      6.579
REMARK  Name = 
REMARK  3 active torsions:
REMARK  status: ('A' for Active; 'I' for Inactive)
REMARK    1  A    between atoms: C_5  and  O_6
REMARK    2  A    between atoms: O_6  and  C_7
REMARK    3  A    between atoms: C_13  and  C_14
REMARK                            x       y       z     vdW  Elec       q    Type
REMARK                         _______ _______ _______ _____ _____    ______ ____
ROOT
ATOM      1  C   UNL     1      18.456  10.897  38.087  0.00  0.00    +0.000 A 
ATOM      2  C   UNL     1      18.715  12.127  37.635  0.00  0.00    +0.000 A 
ATOM      3  C   UNL     1      19.726  12.806  38.274  0.00  0.00    +0.000 A 
ATOM      4  C   UNL     1      20.448  12.272  39.344  0.00  0.00    +0.000 A 
ATOM      5 CL   UNL     1      21.662  13.204  40.189  0.00  0.00    +0.000 Cl
ATOM      6  C   UNL     1      20.124  10.968  39.767  0.00  0.00    +0.000 A 
ATOM      7  C   UNL     1      19.133  10.267  39.158  0.00  0.00    +0.000 A 
ENDROOT
BRANCH   7   8
ATOM      8  C   UNL     1      18.465   9.031  39.564  0.00  0.00    +0.000 C 
ATOM      9  C   UNL     1      19.442   7.978  40.143  0.00  0.00    +0.000 C 
ATOM     10  C   UNL     1      18.562   6.676  39.940  0.00  0.00    +0.000 C 
ATOM     11  C   UNL     1      17.400   6.897  40.934  0.00  0.00    +0.000 C 
ATOM     12  C   UNL     1      17.693   8.160  41.738  0.00  0.00    +0.000 C 
ATOM     13  C   UNL     1      17.534   9.380  40.811  0.00  0.00    +0.000 C 
ENDBRANCH   7   8
BRANCH   1  14
ATOM     14  O   UNL     1      17.425  10.099  37.473  0.00  0.00    +0.000 OA
BRANCH  14  19
ATOM     15  N   UNL     1      12.651  12.749  36.537  0.00  0.00    +0.000 NA
ATOM     16  C   UNL     1      13.876  12.022  36.763  0.00  0.00    +0.000 A 
ATOM     17  C   UNL     1      14.143  11.497  38.019  0.00  0.00    +0.000 A 
ATOM     18  C   UNL     1      15.313  10.874  38.251  0.00  0.00    +0.000 A 
ATOM     19  C   UNL     1      16.259  10.758  37.206  0.00  0.00    +0.000 A 
ATOM     20  N   UNL     1      15.986  11.265  36.013  0.00  0.00    +0.000 NA
ATOM     21  C   UNL     1      14.810  11.897  35.755  0.00  0.00    +0.000 A 
ENDBRANCH  14  19
ENDBRANCH   1  14
TORSDOF 3
ENDMDL
MODEL 3
REMARK VINA RESULT:      -6.7      3.592      5.914
REMARK  Name = 
REMARK  3 active torsions:
REMARK  status: ('A' for Active; 'I' for Inactive)
REMARK    1  A    between atoms: C_5  and  O_6
REMARK    2  A    between atoms: O_6  and  C_7
REMARK    3  A    between atoms: C_13  and  C_14
REMARK                            x       y       z     vdW  Elec       q    Type
REMARK                         _______ _______ _______ _____ _____    ______ ____
ROOT
ATOM      1  C   UNL     1      18.259  11.090  38.037  0.00  0.00    +0.000 A 
ATOM      2  C   UNL     1      18.481  12.330  37.594  0.00  0.00    +0.000 A 
ATOM      3  C   UNL     1      19.565  12.982  38.136  0.00  0.00    +0.000 A 
ATOM      4  C   UNL     1      20.394  12.410  39.103  0.00  0.00    +0.000 A 
ATOM      5 CL   UNL     1      21.705  13.305  39.836  0.00  0.00    +0.000 Cl
ATOM      6  C   UNL     1      20.103  11.096  39.523  0.00  0.00    +0.000 A 
ATOM      7  C   UNL     1      19.041  10.423  39.007  0.00  0.00    +0.000 A 
ENDROOT
BRANCH   7   8
ATOM      8  C   UNL     1      18.408   9.181  39.450  0.00  0.00    +0.000 C 
ATOM      9  C   UNL     1      19.416   8.165  40.041  0.00  0.00    +0.000 C 
ATOM     10  C   UNL     1      18.565   6.838  39.878  0.00  0.00    +0.000 C 
ATOM     11  C   UNL     1      17.409   7.055  40.881  0.00  0.00    +0.000 C 
ATOM     12  C   UNL     1      17.681   8.343  41.652  0.00  0.00    +0.000 C 
ATOM     13  C   UNL     1      17.484   9.537  40.699  0.00  0.00    +0.000 C 
ENDBRANCH   7   8
BRANCH   1  14
ATOM     14  O   UNL     1      17.156  10.320  37.518  0.00  0.00    +0.000 OA
BRANCH  14  19
ATOM     15  N   UNL     1      16.240  10.923  32.088  0.00  0.00    +0.000 NA
ATOM     16  C   UNL     1      16.500  10.806  33.502  0.00  0.00    +0.000 A 
ATOM     17  C   UNL     1      17.569  10.040  33.943  0.00  0.00    +0.000 A 
ATOM     18  C   UNL     1      17.777   9.875  35.263  0.00  0.00    +0.000 A 
ATOM     19  C   UNL     1      16.901  10.491  36.187  0.00  0.00    +0.000 A 
ATOM     20  N   UNL     1      15.885  11.220  35.746  0.00  0.00    +0.000 NA
ATOM     21  C   UNL     1      15.658  11.401  34.418  0.00  0.00    +0.000 A 
ENDBRANCH  14  19
ENDBRANCH   1  14
TORSDOF 3
ENDMDL
MODEL 4
REMARK VINA RESULT:      -6.7      3.741      6.779
REMARK  Name = 
REMARK  3 active torsions:
REMARK  status: ('A' for Active; 'I' for Inactive)
REMARK    1  A    between atoms: C_5  and  O_6
REMARK    2  A    between atoms: O_6  and  C_7
REMARK    3  A    between atoms: C_13  and  C_14
REMARK                            x       y       z     vdW  Elec       q    Type
REMARK                         _______ _______ _______ _____ _____    ______ ____
ROOT
ATOM      1  C   UNL     1      15.223  11.864  36.243  0.00  0.00    +0.000 A 
ATOM      2  C   UNL     1      13.904  12.025  36.108  0.00  0.00    +0.000 A 
ATOM      3  C   UNL     1      13.130  11.592  37.159  0.00  0.00    +0.000 A 
ATOM      4  C   UNL     1      13.663  11.003  38.308  0.00  0.00    +0.000 A 
ATOM      5 CL   UNL     1      12.639  10.381  39.581  0.00  0.00    +0.000 Cl
ATOM      6  C   UNL     1      15.063  10.868  38.386  0.00  0.00    +0.000 A 
ATOM      7  C   UNL     1      15.859  11.286  37.367  0.00  0.00    +0.000 A 
ENDROOT
BRANCH   7   8
ATOM      8  C   UNL     1      17.277  11.035  37.114  0.00  0.00    +0.000 C 
ATOM      9  C   UNL     1      18.096  10.832  38.413  0.00  0.00    +0.000 C 
ATOM     10  C   UNL     1      19.543  11.152  37.853  0.00  0.00    +0.000 C 
ATOM     11  C   UNL     1      19.803   9.968  36.894  0.00  0.00    +0.000 C 
ATOM     12  C   UNL     1      18.644   8.984  37.026  0.00  0.00    +0.000 C 
ATOM     13  C   UNL     1      17.389   9.616  36.394  0.00  0.00    +0.000 C 
ENDBRANCH   7   8
BRANCH   1  14
ATOM     14  O   UNL     1      16.119  12.300  35.202  0.00  0.00    +0.000 OA
BRANCH  14  19
ATOM     15  N   UNL     1      14.333  11.419  30.033  0.00  0.00    +0.000 NA
ATOM     16  C   UNL     1      14.765  11.622  31.394  0.00  0.00    +0.000 A 
ATOM     17  C   UNL     1      14.373  12.763  32.077  0.00  0.00    +0.000 A 
ATOM     18  C   UNL     1      14.827  12.988  33.324  0.00  0.00    +0.000 A 
ATOM     19  C   UNL     1      15.698  12.050  33.928  0.00  0.00    +0.000 A 
ATOM     20  N   UNL     1      16.060  10.965  33.259  0.00  0.00    +0.000 NA
ATOM     21  C   UNL     1      15.613  10.717  31.999  0.00  0.00    +0.000 A 
ENDBRANCH  14  19
ENDBRANCH   1  14
TORSDOF 3
ENDMDL
MODEL 5
REMARK VINA RESULT:      -6.6     17.954     19.861
REMARK  Name = 
REMARK  3 active torsions:
REMARK  status: ('A' for Active; 'I' for Inactive)
REMARK    1  A    between atoms: C_5  and  O_6
REMARK    2  A    between atoms: O_6  and  C_7
REMARK    3  A    between atoms: C_13  and  C_14
REMARK                            x       y       z     vdW  Elec       q    Type
REMARK                         _______ _______ _______ _____ _____    ______ ____
ROOT
ATOM      1  C   UNL     1      29.253  22.712  26.392  0.00  0.00    +0.000 A 
ATOM      2  C   UNL     1      30.309  22.508  27.183  0.00  0.00    +0.000 A 
ATOM      3  C   UNL     1      31.502  23.036  26.748  0.00  0.00    +0.000 A 
ATOM      4  C   UNL     1      31.635  23.737  25.549  0.00  0.00    +0.000 A 
ATOM      5 CL   UNL     1      33.187  24.311  24.986  0.00  0.00    +0.000 Cl
ATOM      6  C   UNL     1      30.479  23.919  24.764  0.00  0.00    +0.000 A 
ATOM      7  C   UNL     1      29.282  23.413  25.164  0.00  0.00    +0.000 A 
ENDROOT
BRANCH   7   8
ATOM      8  C   UNL     1      28.029  23.261  24.425  0.00  0.00    +0.000 C 
ATOM      9  C   UNL     1      27.149  24.535  24.459  0.00  0.00    +0.000 C 
ATOM     10  C   UNL     1      25.747  23.883  24.109  0.00  0.00    +0.000 C 
ATOM     11  C   UNL     1      25.942  23.434  22.643  0.00  0.00    +0.000 C 
ATOM     12  C   UNL     1      27.303  23.933  22.167  0.00  0.00    +0.000 C 
ATOM     13  C   UNL     1      28.401  23.122  22.881  0.00  0.00    +0.000 C 
ENDBRANCH   7   8
BRANCH   1  14
ATOM     14  O   UNL     1      27.955  22.212  26.769  0.00  0.00    +0.000 OA
BRANCH  14  19
ATOM     15  N   UNL     1      25.764  24.489  31.318  0.00  0.00    +0.000 NA
ATOM     16  C   UNL     1      26.372  23.919  30.141  0.00  0.00    +0.000 A 
ATOM     17  C   UNL     1      26.114  24.472  28.896  0.00  0.00    +0.000 A 
ATOM     18  C   UNL     1      26.627  23.904  27.790  0.00  0.00    +0.000 A 
ATOM     19  C   UNL     1      27.432  22.747  27.911  0.00  0.00    +0.000 A 
ATOM     20  N   UNL     1      27.669  22.233  29.109  0.00  0.00    +0.000 NA
ATOM     21  C   UNL     1      27.162  22.792  30.241  0.00  0.00    +0.000 A 
ENDBRANCH  14  19
ENDBRANCH   1  14
TORSDOF 3
ENDMDL
MODEL 6
REMARK VINA RESULT:      -6.5     18.221     20.153
REMARK  Name = 
REMARK  3 active torsions:
REMARK  status: ('A' for Active; 'I' for Inactive)
REMARK    1  A    between atoms: C_5  and  O_6
REMARK    2  A    between atoms: O_6  and  C_7
REMARK    3  A    between atoms: C_13  and  C_14
REMARK                            x       y       z     vdW  Elec       q    Type
REMARK                         _______ _______ _______ _____ _____    ______ ____
ROOT
ATOM      1  C   UNL     1      27.089  23.433  26.383  0.00  0.00    +0.000 A 
ATOM      2  C   UNL     1      25.849  23.742  25.993  0.00  0.00    +0.000 A 
ATOM      3  C   UNL     1      25.139  24.567  26.834  0.00  0.00    +0.000 A 
ATOM      4  C   UNL     1      25.652  25.057  28.036  0.00  0.00    +0.000 A 
ATOM      5 CL   UNL     1      24.684  26.026  29.122  0.00  0.00    +0.000 Cl
ATOM      6  C   UNL     1      26.968  24.693  28.384  0.00  0.00    +0.000 A 
ATOM      7  C   UNL     1      27.700  23.882  27.576  0.00  0.00    +0.000 A 
ENDROOT
BRANCH   7   8
ATOM      8  C   UNL     1      28.959  23.184  27.833  0.00  0.00    +0.000 C 
ATOM      9  C   UNL     1      30.187  24.128  27.816  0.00  0.00    +0.000 C 
ATOM     10  C   UNL     1      31.326  23.057  27.555  0.00  0.00    +0.000 C 
ATOM     11  C   UNL     1      31.327  22.240  28.866  0.00  0.00    +0.000 C 
ATOM     12  C   UNL     1      30.360  22.903  29.843  0.00  0.00    +0.000 C 
ATOM     13  C   UNL     1      28.921  22.672  29.342  0.00  0.00    +0.000 C 
ENDBRANCH   7   8
BRANCH   1  14
ATOM     14  O   UNL     1      27.919  22.587  25.562  0.00  0.00    +0.000 OA
BRANCH  14  19
ATOM     15  N   UNL     1      29.592  24.819  20.776  0.00  0.00    +0.000 NA
ATOM     16  C   UNL     1      29.133  24.276  22.030  0.00  0.00    +0.000 A 
ATOM     17  C   UNL     1      29.947  24.348  23.151  0.00  0.00    +0.000 A 
ATOM     18  C   UNL     1      29.550  23.784  24.306  0.00  0.00    +0.000 A 
ATOM     19  C   UNL     1      28.299  23.127  24.366  0.00  0.00    +0.000 A 
ATOM     20  N   UNL     1      27.534  23.069  23.285  0.00  0.00    +0.000 NA
ATOM     21  C   UNL     1      27.915  23.632  22.108  0.00  0.00    +0.000 A 
ENDBRANCH  14  19
ENDBRANCH   1  14
TORSDOF 3
ENDMDL
MODEL 7
REMARK VINA RESULT:      -6.3     18.048     19.653
REMARK  Name = 
REMARK  3 active torsions:
REMARK  status: ('A' for Active; 'I' for Inactive)
REMARK    1  A    between atoms: C_5  and  O_6
REMARK    2  A    between atoms: O_6  and  C_7
REMARK    3  A    between atoms: C_13  and  C_14
REMARK                            x       y       z     vdW  Elec       q    Type
REMARK                         _______ _______ _______ _____ _____    ______ ____
ROOT
ATOM      1  C   UNL     1      29.171  24.059  27.078  0.00  0.00    +0.000 A 
ATOM      2  C   UNL     1      30.203  23.676  26.322  0.00  0.00    +0.000 A 
ATOM      3  C   UNL     1      31.115  22.839  26.923  0.00  0.00    +0.000 A 
ATOM      4  C   UNL     1      31.001  22.410  28.247  0.00  0.00    +0.000 A 
ATOM      5 CL   UNL     1      32.231  21.423  29.002  0.00  0.00    +0.000 Cl
ATOM      6  C   UNL     1      29.885  22.850  28.985  0.00  0.00    +0.000 A 
ATOM      7  C   UNL     1      28.963  23.675  28.423  0.00  0.00    +0.000 A 
ENDROOT
BRANCH   7   8
ATOM      8  C   UNL     1      27.884  24.443  29.042  0.00  0.00    +0.000 C 
ATOM      9  C   UNL     1      26.615  23.596  29.309  0.00  0.00    +0.000 C 
ATOM     10  C   UNL     1      25.548  24.764  29.417  0.00  0.00    +0.000 C 
ATOM     11  C   UNL     1      25.967  25.483  30.719  0.00  0.00    +0.000 C 
ATOM     12  C   UNL     1      27.093  24.682  31.366  0.00  0.00    +0.000 C 
ATOM     13  C   UNL     1      28.364  24.842  30.510  0.00  0.00    +0.000 C 
ENDBRANCH   7   8
BRANCH   1  14
ATOM     14  O   UNL     1      28.153  24.923  26.533  0.00  0.00    +0.000 OA
BRANCH  14  19
ATOM     15  N   UNL     1      25.257  22.764  22.333  0.00  0.00    +0.000 NA
ATOM     16  C   UNL     1      26.043  23.296  23.419  0.00  0.00    +0.000 A 
ATOM     17  C   UNL     1      25.780  22.896  24.720  0.00  0.00    +0.000 A 
ATOM     18  C   UNL     1      26.468  23.439  25.742  0.00  0.00    +0.000 A 
ATOM     19  C   UNL     1      27.460  24.411  25.474  0.00  0.00    +0.000 A 
ATOM     20  N   UNL     1      27.698  24.781  24.224  0.00  0.00    +0.000 NA
ATOM     21  C   UNL     1      27.016  24.245  23.176  0.00  0.00    +0.000 A 
ENDBRANCH  14  19
ENDBRANCH   1  14
TORSDOF 3
ENDMDL
MODEL 8
REMARK VINA RESULT:      -6.3     18.936     20.371
REMARK  Name = 
REMARK  3 active torsions:
REMARK  status: ('A' for Active; 'I' for Inactive)
REMARK    1  A    between atoms: C_5  and  O_6
REMARK    2  A    between atoms: O_6  and  C_7
REMARK    3  A    between atoms: C_13  and  C_14
REMARK                            x       y       z     vdW  Elec       q    Type
REMARK                         _______ _______ _______ _____ _____    ______ ____
ROOT
ATOM      1  C   UNL     1      25.712  24.094  25.880  0.00  0.00    +0.000 A 
ATOM      2  C   UNL     1      26.653  23.246  26.304  0.00  0.00    +0.000 A 
ATOM      3  C   UNL     1      26.910  23.254  27.655  0.00  0.00    +0.000 A 
ATOM      4  C   UNL     1      26.251  24.095  28.553  0.00  0.00    +0.000 A 
ATOM      5 CL   UNL     1      26.673  24.140  30.249  0.00  0.00    +0.000 Cl
ATOM      6  C   UNL     1      25.267  24.963  28.038  0.00  0.00    +0.000 A 
ATOM      7  C   UNL     1      24.986  24.981  26.709  0.00  0.00    +0.000 A 
ENDROOT
BRANCH   7   8
ATOM      8  C   UNL     1      24.207  25.937  25.923  0.00  0.00    +0.000 C 
ATOM      9  C   UNL     1      22.850  26.294  26.578  0.00  0.00    +0.000 C 
ATOM     10  C   UNL     1      22.084  26.829  25.298  0.00  0.00    +0.000 C 
ATOM     11  C   UNL     1      22.849  28.130  24.968  0.00  0.00    +0.000 C 
ATOM     12  C   UNL     1      23.872  28.376  26.073  0.00  0.00    +0.000 C 
ATOM     13  C   UNL     1      24.992  27.325  25.948  0.00  0.00    +0.000 C 
ENDBRANCH   7   8
BRANCH   1  14
ATOM     14  O   UNL     1      25.360  24.150  24.483  0.00  0.00    +0.000 OA
BRANCH  14  19
ATOM     15  N   UNL     1      29.656  24.713  21.032  0.00  0.00    +0.000 NA
ATOM     16  C   UNL     1      28.510  24.577  21.897  0.00  0.00    +0.000 A 
ATOM     17  C   UNL     1      28.144  25.628  22.725  0.00  0.00    +0.000 A 
ATOM     18  C   UNL     1      27.115  25.481  23.580  0.00  0.00    +0.000 A 
ATOM     19  C   UNL     1      26.413  24.254  23.620  0.00  0.00    +0.000 A 
ATOM     20  N   UNL     1      26.777  23.261  22.821  0.00  0.00    +0.000 NA
ATOM     21  C   UNL     1      27.812  23.388  21.948  0.00  0.00    +0.000 A 
ENDBRANCH  14  19
ENDBRANCH   1  14
TORSDOF 3
ENDMDL
MODEL 9
REMARK VINA RESULT:      -6.3     18.385     20.149
REMARK  Name = 
REMARK  3 active torsions:
REMARK  status: ('A' for Active; 'I' for Inactive)
REMARK    1  A    between atoms: C_5  and  O_6
REMARK    2  A    between atoms: O_6  and  C_7
REMARK    3  A    between atoms: C_13  and  C_14
REMARK                            x       y       z     vdW  Elec       q    Type
REMARK                         _______ _______ _______ _____ _____    ______ ____
ROOT
ATOM      1  C   UNL     1      25.994  24.397  25.777  0.00  0.00    +0.000 A 
ATOM      2  C   UNL     1      25.203  24.943  24.851  0.00  0.00    +0.000 A 
ATOM      3  C   UNL     1      24.253  25.826  25.310  0.00  0.00    +0.000 A 
ATOM      4  C   UNL     1      24.095  26.142  26.661  0.00  0.00    +0.000 A 
ATOM      5 CL   UNL     1      22.815  27.197  27.213  0.00  0.00    +0.000 Cl
ATOM      6  C   UNL     1      24.967  25.532  27.584  0.00  0.00    +0.000 A 
ATOM      7  C   UNL     1      25.918  24.656  27.166  0.00  0.00    +0.000 A 
ENDROOT
BRANCH   7   8
ATOM      8  C   UNL     1      26.752  23.733  27.934  0.00  0.00    +0.000 C 
ATOM      9  C   UNL     1      28.121  24.341  28.328  0.00  0.00    +0.000 C 
ATOM     10  C   UNL     1      28.925  23.003  28.598  0.00  0.00    +0.000 C 
ATOM     11  C   UNL     1      28.232  22.442  29.860  0.00  0.00    +0.000 C 
ATOM     12  C   UNL     1      27.213  23.471  30.342  0.00  0.00    +0.000 C 
ATOM     13  C   UNL     1      26.041  23.508  29.343  0.00  0.00    +0.000 C 
ENDBRANCH   7   8
BRANCH   1  14
ATOM     14  O   UNL     1      27.031  23.471  25.394  0.00  0.00    +0.000 OA
BRANCH  14  19
ATOM     15  N   UNL     1      29.734  24.754  20.732  0.00  0.00    +0.000 NA
ATOM     16  C   UNL     1      28.999  24.452  21.936  0.00  0.00    +0.000 A 
ATOM     17  C   UNL     1      29.409  24.992  23.146  0.00  0.00    +0.000 A 
ATOM     18  C   UNL     1      28.766  24.661  24.281  0.00  0.00    +0.000 A 
ATOM     19  C   UNL     1      27.673  23.766  24.225  0.00  0.00    +0.000 A 
ATOM     20  N   UNL     1      27.295  23.260  23.060  0.00  0.00    +0.000 NA
ATOM     21  C   UNL     1      27.929  23.582  21.900  0.00  0.00    +0.000 A 
ENDBRANCH  14  19
ENDBRANCH   1  14
TORSDOF 3
ENDMDL
MODEL 10
REMARK VINA RESULT:      -6.2     18.684     20.791
REMARK  Name = 
REMARK  3 active torsions:
REMARK  status: ('A' for Active; 'I' for Inactive)
REMARK    1  A    between atoms: C_5  and  O_6
REMARK    2  A    between atoms: O_6  and  C_7
REMARK    3  A    between atoms: C_13  and  C_14
REMARK                            x       y       z     vdW  Elec       q    Type
REMARK                         _______ _______ _______ _____ _____    ______ ____
ROOT
ATOM      1  C   UNL     1      27.348  23.333  24.220  0.00  0.00    +0.000 A 
ATOM      2  C   UNL     1      26.579  23.664  23.180  0.00  0.00    +0.000 A 
ATOM      3  C   UNL     1      27.226  24.225  22.103  0.00  0.00    +0.000 A 
ATOM      4  C   UNL     1      28.602  24.458  22.077  0.00  0.00    +0.000 A 
ATOM      5 CL   UNL     1      29.373  25.259  20.727  0.00  0.00    +0.000 Cl
ATOM      6  C   UNL     1      29.354  24.081  23.207  0.00  0.00    +0.000 A 
ATOM      7  C   UNL     1      28.748  23.522  24.288  0.00  0.00    +0.000 A 
ENDROOT
BRANCH   7   8
ATOM      8  C   UNL     1      29.260  23.282  25.636  0.00  0.00    +0.000 C 
ATOM      9  C   UNL     1      30.553  22.429  25.648  0.00  0.00    +0.000 C 
ATOM     10  C   UNL     1      30.499  21.908  27.144  0.00  0.00    +0.000 C 
ATOM     11  C   UNL     1      30.731  23.200  27.959  0.00  0.00    +0.000 C 
ATOM     12  C   UNL     1      31.039  24.331  26.983  0.00  0.00    +0.000 C 
ATOM     13  C   UNL     1      29.751  24.684  26.216  0.00  0.00    +0.000 C 
ENDBRANCH   7   8
BRANCH   1  14
ATOM     14  O   UNL     1      26.765  22.724  25.390  0.00  0.00    +0.000 OA
BRANCH  14  19
ATOM     15  N   UNL     1      24.400  26.163  29.032  0.00  0.00    +0.000 NA
ATOM     16  C   UNL     1      24.978  25.242  28.084  0.00  0.00    +0.000 A 
ATOM     17  C   UNL     1      25.840  24.251  28.527  0.00  0.00    +0.000 A 
ATOM     18  C   UNL     1      26.433  23.431  27.639  0.00  0.00    +0.000 A 
ATOM     19  C   UNL     1      26.164  23.588  26.259  0.00  0.00    +0.000 A 
ATOM     20  N   UNL     1      25.337  24.542  25.855  0.00  0.00    +0.000 NA
ATOM     21  C   UNL     1      24.726  25.380  26.734  0.00  0.00    +0.000 A 
ENDBRANCH  14  19
ENDBRANCH   1  14
TORSDOF 3
ENDMDL
