MODEL 1
REMARK VINA RESULT:      -8.1      0.000      0.000
REMARK  Name = 
REMARK  7 active torsions:
REMARK  status: ('A' for Active; 'I' for Inactive)
REMARK    1  A    between atoms: C_5  and  S_6
REMARK    2  A    between atoms: S_6  and  C_7
REMARK    3  A    between atoms: C_7  and  C_8
REMARK    4  A    between atoms: N_10  and  C_11
REMARK    5  A    between atoms: C_16  and  C_17
REMARK    6  A    between atoms: N_19  and  C_20
REMARK    7  A    between atoms: C_20  and  C_22
REMARK                            x       y       z     vdW  Elec       q    Type
REMARK                         _______ _______ _______ _____ _____    ______ ____
ROOT
ATOM      1  C   UNL     1      40.138  -0.705  14.646  0.00  0.00    +0.000 A 
ATOM      2  C   UNL     1      41.110  -0.218  13.803  0.00  0.00    +0.000 A 
ATOM      3  C   UNL     1      42.033  -1.001  13.144  0.00  0.00    +0.000 A 
ATOM      4  C   UNL     1      42.003  -2.360  13.324  0.00  0.00    +0.000 A 
ATOM      5  C   UNL     1      41.042  -2.886  14.161  0.00  0.00    +0.000 A 
ATOM      6  C   UNL     1      40.124  -2.076  14.812  0.00  0.00    +0.000 A 
ENDROOT
BRANCH   1   9
ATOM      7  C   UNL     1      38.197   0.875  14.683  0.00  0.00    +0.000 C 
ATOM      8  O   UNL     1      38.143   0.808  13.422  0.00  0.00    +0.000 OA
ATOM      9  N   UNL     1      39.190   0.124  15.320  0.00  0.00    +0.000 NA
BRANCH   7  10
ATOM     10  C   UNL     1      37.202   1.740  15.330  0.00  0.00    +0.000 C 
BRANCH  10  11
ATOM     11  S   UNL     1      37.295   3.466  14.854  0.00  0.00    +0.000 S 
BRANCH  11  16
ATOM     12  C   UNL     1      40.571   6.305  19.167  0.00  0.00    +0.000 C 
ATOM     13  C   UNL     1      39.782   5.618  18.094  0.00  0.00    +0.000 A 
ATOM     14  C   UNL     1      40.100   5.753  16.760  0.00  0.00    +0.000 A 
ATOM     15  C   UNL     1      39.365   5.115  15.774  0.00  0.00    +0.000 A 
ATOM     16  C   UNL     1      38.285   4.317  16.075  0.00  0.00    +0.000 A 
ATOM     17  C   UNL     1      37.967   4.182  17.408  0.00  0.00    +0.000 A 
ATOM     18  C   UNL     1      38.702   4.821  18.404  0.00  0.00    +0.000 A 
ENDBRANCH  11  16
ENDBRANCH  10  11
ENDBRANCH   7  10
ENDBRANCH   1   9
BRANCH   6  19
ATOM     19  C   UNL     1      39.151  -2.714  15.670  0.00  0.00    +0.000 C 
ATOM     20  O   UNL     1      39.536  -3.366  16.664  0.00  0.00    +0.000 OA
ATOM     21  N   UNL     1      37.771  -2.612  15.404  0.00  0.00    +0.000 NA
BRANCH  21  22
ATOM     22  C   UNL     1      36.822  -3.361  16.430  0.00  0.00    +0.000 C 
ATOM     23  C   UNL     1      35.557  -3.428  15.360  0.00  0.00    +0.000 C 
BRANCH  22  24
ATOM     24  C   UNL     1      36.318  -2.019  17.153  0.00  0.00    +0.000 A 
ATOM     25  C   UNL     1      36.888  -1.574  18.264  0.00  0.00    +0.000 A 
ATOM     26  C   UNL     1      36.444  -0.425  18.871  0.00  0.00    +0.000 A 
ATOM     27  C   UNL     1      35.392   0.245  18.289  0.00  0.00    +0.000 A 
ATOM     28  C   UNL     1      34.795  -0.216  17.130  0.00  0.00    +0.000 A 
ATOM     29  C   UNL     1      35.276  -1.393  16.538  0.00  0.00    +0.000 A 
ENDBRANCH  22  24
ENDBRANCH  21  22
ENDBRANCH   6  19
TORSDOF 7
ENDMDL
MODEL 2
REMARK VINA RESULT:      -7.8      2.323      7.531
REMARK  Name = 
REMARK  7 active torsions:
REMARK  status: ('A' for Active; 'I' for Inactive)
REMARK    1  A    between atoms: C_5  and  S_6
REMARK    2  A    between atoms: S_6  and  C_7
REMARK    3  A    between atoms: C_7  and  C_8
REMARK    4  A    between atoms: N_10  and  C_11
REMARK    5  A    between atoms: C_16  and  C_17
REMARK    6  A    between atoms: N_19  and  C_20
REMARK    7  A    between atoms: C_20  and  C_22
REMARK                            x       y       z     vdW  Elec       q    Type
REMARK                         _______ _______ _______ _____ _____    ______ ____
ROOT
ATOM      1  C   UNL     1      37.204   1.338  15.549  0.00  0.00    +0.000 A 
ATOM      2  C   UNL     1      36.509   0.208  15.911  0.00  0.00    +0.000 A 
ATOM      3  C   UNL     1      35.278   0.214  16.531  0.00  0.00    +0.000 A 
ATOM      4  C   UNL     1      34.683   1.417  16.816  0.00  0.00    +0.000 A 
ATOM      5  C   UNL     1      35.348   2.573  16.467  0.00  0.00    +0.000 A 
ATOM      6  C   UNL     1      36.587   2.538  15.844  0.00  0.00    +0.000 A 
ENDROOT
BRANCH   1   9
ATOM      7  C   UNL     1      38.672   1.226  13.525  0.00  0.00    +0.000 C 
ATOM      8  O   UNL     1      37.638   1.174  12.801  0.00  0.00    +0.000 OA
ATOM      9  N   UNL     1      38.479   1.310  14.908  0.00  0.00    +0.000 NA
BRANCH   7  10
ATOM     10  C   UNL     1      39.961   1.193  12.820  0.00  0.00    +0.000 C 
BRANCH  10  11
ATOM     11  S   UNL     1      40.688  -0.439  12.678  0.00  0.00    +0.000 S 
BRANCH  11  16
ATOM     12  C   UNL     1      37.590  -4.210  16.360  0.00  0.00    +0.000 C 
ATOM     13  C   UNL     1      38.334  -3.290  15.441  0.00  0.00    +0.000 A 
ATOM     14  C   UNL     1      37.910  -3.054  14.152  0.00  0.00    +0.000 A 
ATOM     15  C   UNL     1      38.604  -2.201  13.308  0.00  0.00    +0.000 A 
ATOM     16  C   UNL     1      39.746  -1.550  13.713  0.00  0.00    +0.000 A 
ATOM     17  C   UNL     1      40.170  -1.786  15.001  0.00  0.00    +0.000 A 
ATOM     18  C   UNL     1      39.478  -2.642  15.855  0.00  0.00    +0.000 A 
ENDBRANCH  11  16
ENDBRANCH  10  11
ENDBRANCH   7  10
ENDBRANCH   1   9
BRANCH   6  19
ATOM     19  C   UNL     1      37.211   3.800  15.513  0.00  0.00    +0.000 C 
ATOM     20  O   UNL     1      36.818   4.442  14.517  0.00  0.00    +0.000 OA
ATOM     21  N   UNL     1      38.259   4.319  16.300  0.00  0.00    +0.000 NA
BRANCH  21  22
ATOM     22  C   UNL     1      38.846   5.711  15.819  0.00  0.00    +0.000 C 
ATOM     23  C   UNL     1      40.092   5.006  14.981  0.00  0.00    +0.000 C 
BRANCH  22  24
ATOM     24  C   UNL     1      39.704   5.964  17.153  0.00  0.00    +0.000 A 
ATOM     25  C   UNL     1      39.156   5.879  18.357  0.00  0.00    +0.000 A 
ATOM     26  C   UNL     1      39.904   6.099  19.487  0.00  0.00    +0.000 A 
ATOM     27  C   UNL     1      41.235   6.411  19.328  0.00  0.00    +0.000 A 
ATOM     28  C   UNL     1      41.809   6.501  18.074  0.00  0.00    +0.000 A 
ATOM     29  C   UNL     1      41.015   6.269  16.942  0.00  0.00    +0.000 A 
ENDBRANCH  22  24
ENDBRANCH  21  22
ENDBRANCH   6  19
TORSDOF 7
ENDMDL
MODEL 3
REMARK VINA RESULT:      -7.7      1.917      3.164
REMARK  Name = 
REMARK  7 active torsions:
REMARK  status: ('A' for Active; 'I' for Inactive)
REMARK    1  A    between atoms: C_5  and  S_6
REMARK    2  A    between atoms: S_6  and  C_7
REMARK    3  A    between atoms: C_7  and  C_8
REMARK    4  A    between atoms: N_10  and  C_11
REMARK    5  A    between atoms: C_16  and  C_17
REMARK    6  A    between atoms: N_19  and  C_20
REMARK    7  A    between atoms: C_20  and  C_22
REMARK                            x       y       z     vdW  Elec       q    Type
REMARK                         _______ _______ _______ _____ _____    ______ ____
ROOT
ATOM      1  C   UNL     1      39.380   1.404  14.553  0.00  0.00    +0.000 A 
ATOM      2  C   UNL     1      40.446   1.537  13.694  0.00  0.00    +0.000 A 
ATOM      3  C   UNL     1      40.927   0.530  12.886  0.00  0.00    +0.000 A 
ATOM      4  C   UNL     1      40.318  -0.699  12.922  0.00  0.00    +0.000 A 
ATOM      5  C   UNL     1      39.245  -0.872  13.770  0.00  0.00    +0.000 A 
ATOM      6  C   UNL     1      38.782   0.160  14.573  0.00  0.00    +0.000 A 
ENDROOT
BRANCH   1   9
ATOM      7  C   UNL     1      38.039   3.479  14.954  0.00  0.00    +0.000 C 
ATOM      8  O   UNL     1      37.669   3.450  13.746  0.00  0.00    +0.000 OA
ATOM      9  N   UNL     1      38.898   2.461  15.383  0.00  0.00    +0.000 NA
BRANCH   7  10
ATOM     10  C   UNL     1      37.517   4.585  15.768  0.00  0.00    +0.000 C 
BRANCH  10  11
ATOM     11  S   UNL     1      38.476   6.096  15.671  0.00  0.00    +0.000 S 
BRANCH  11  16
ATOM     12  C   UNL     1      42.180   6.403  20.526  0.00  0.00    +0.000 C 
ATOM     13  C   UNL     1      41.254   6.325  19.351  0.00  0.00    +0.000 A 
ATOM     14  C   UNL     1      39.900   6.130  19.506  0.00  0.00    +0.000 A 
ATOM     15  C   UNL     1      39.051   6.059  18.413  0.00  0.00    +0.000 A 
ATOM     16  C   UNL     1      39.515   6.178  17.123  0.00  0.00    +0.000 A 
ATOM     17  C   UNL     1      40.869   6.373  16.968  0.00  0.00    +0.000 A 
ATOM     18  C   UNL     1      41.728   6.445  18.062  0.00  0.00    +0.000 A 
ENDBRANCH  11  16
ENDBRANCH  10  11
ENDBRANCH   7  10
ENDBRANCH   1   9
BRANCH   6  19
ATOM     19  C   UNL     1      37.650  -0.111  15.432  0.00  0.00    +0.000 C 
ATOM     20  O   UNL     1      36.525   0.343  15.134  0.00  0.00    +0.000 OA
ATOM     21  N   UNL     1      37.796  -0.882  16.603  0.00  0.00    +0.000 NA
BRANCH  21  22
ATOM     22  C   UNL     1      36.470  -1.098  17.445  0.00  0.00    +0.000 C 
ATOM     23  C   UNL     1      37.283  -1.732  18.744  0.00  0.00    +0.000 C 
BRANCH  22  24
ATOM     24  C   UNL     1      36.126  -2.524  16.791  0.00  0.00    +0.000 A 
ATOM     25  C   UNL     1      34.998  -2.727  16.125  0.00  0.00    +0.000 A 
ATOM     26  C   UNL     1      34.718  -3.953  15.573  0.00  0.00    +0.000 A 
ATOM     27  C   UNL     1      35.644  -4.959  15.735  0.00  0.00    +0.000 A 
ATOM     28  C   UNL     1      36.821  -4.750  16.430  0.00  0.00    +0.000 A 
ATOM     29  C   UNL     1      37.073  -3.485  16.979  0.00  0.00    +0.000 A 
ENDBRANCH  22  24
ENDBRANCH  21  22
ENDBRANCH   6  19
TORSDOF 7
ENDMDL
MODEL 4
REMARK VINA RESULT:      -7.6      1.820      5.027
REMARK  Name = 
REMARK  7 active torsions:
REMARK  status: ('A' for Active; 'I' for Inactive)
REMARK    1  A    between atoms: C_5  and  S_6
REMARK    2  A    between atoms: S_6  and  C_7
REMARK    3  A    between atoms: C_7  and  C_8
REMARK    4  A    between atoms: N_10  and  C_11
REMARK    5  A    between atoms: C_16  and  C_17
REMARK    6  A    between atoms: N_19  and  C_20
REMARK    7  A    between atoms: C_20  and  C_22
REMARK                            x       y       z     vdW  Elec       q    Type
REMARK                         _______ _______ _______ _____ _____    ______ ____
ROOT
ATOM      1  C   UNL     1      35.921  -0.472  16.896  0.00  0.00    +0.000 A 
ATOM      2  C   UNL     1      34.661  -0.944  17.183  0.00  0.00    +0.000 A 
ATOM      3  C   UNL     1      34.186  -2.179  16.802  0.00  0.00    +0.000 A 
ATOM      4  C   UNL     1      35.005  -3.016  16.088  0.00  0.00    +0.000 A 
ATOM      5  C   UNL     1      36.277  -2.580  15.782  0.00  0.00    +0.000 A 
ATOM      6  C   UNL     1      36.729  -1.330  16.178  0.00  0.00    +0.000 A 
ENDROOT
BRANCH   1   9
ATOM      7  C   UNL     1      36.203   1.994  16.575  0.00  0.00    +0.000 C 
ATOM      8  O   UNL     1      35.565   1.906  15.488  0.00  0.00    +0.000 OA
ATOM      9  N   UNL     1      36.394   0.813  17.301  0.00  0.00    +0.000 NA
BRANCH   7  10
ATOM     10  C   UNL     1      36.669   3.337  16.949  0.00  0.00    +0.000 C 
BRANCH  10  11
ATOM     11  S   UNL     1      37.990   3.977  15.920  0.00  0.00    +0.000 S 
BRANCH  11  16
ATOM     12  C   UNL     1      41.562   7.283  19.621  0.00  0.00    +0.000 C 
ATOM     13  C   UNL     1      40.700   6.480  18.696  0.00  0.00    +0.000 A 
ATOM     14  C   UNL     1      40.940   6.428  17.341  0.00  0.00    +0.000 A 
ATOM     15  C   UNL     1      40.137   5.683  16.492  0.00  0.00    +0.000 A 
ATOM     16  C   UNL     1      39.064   4.959  16.958  0.00  0.00    +0.000 A 
ATOM     17  C   UNL     1      38.823   5.010  18.312  0.00  0.00    +0.000 A 
ATOM     18  C   UNL     1      39.626   5.757  19.171  0.00  0.00    +0.000 A 
ENDBRANCH  11  16
ENDBRANCH  10  11
ENDBRANCH   7  10
ENDBRANCH   1   9
BRANCH   6  19
ATOM     19  C   UNL     1      38.078  -0.955  15.813  0.00  0.00    +0.000 C 
ATOM     20  O   UNL     1      39.031  -1.278  16.553  0.00  0.00    +0.000 OA
ATOM     21  N   UNL     1      38.336  -0.229  14.633  0.00  0.00    +0.000 NA
BRANCH  21  22
ATOM     22  C   UNL     1      39.860   0.110  14.361  0.00  0.00    +0.000 C 
ATOM     23  C   UNL     1      39.506   1.539  13.598  0.00  0.00    +0.000 C 
BRANCH  22  24
ATOM     24  C   UNL     1      39.950  -0.749  13.007  0.00  0.00    +0.000 A 
ATOM     25  C   UNL     1      39.961  -0.167  11.816  0.00  0.00    +0.000 A 
ATOM     26  C   UNL     1      40.038  -0.917  10.668  0.00  0.00    +0.000 A 
ATOM     27  C   UNL     1      40.101  -2.285  10.796  0.00  0.00    +0.000 A 
ATOM     28  C   UNL     1      40.089  -2.895  12.036  0.00  0.00    +0.000 A 
ATOM     29  C   UNL     1      40.011  -2.098  13.187  0.00  0.00    +0.000 A 
ENDBRANCH  22  24
ENDBRANCH  21  22
ENDBRANCH   6  19
TORSDOF 7
ENDMDL
MODEL 5
REMARK VINA RESULT:      -7.6      1.886      5.166
REMARK  Name = 
REMARK  7 active torsions:
REMARK  status: ('A' for Active; 'I' for Inactive)
REMARK    1  A    between atoms: C_5  and  S_6
REMARK    2  A    between atoms: S_6  and  C_7
REMARK    3  A    between atoms: C_7  and  C_8
REMARK    4  A    between atoms: N_10  and  C_11
REMARK    5  A    between atoms: C_16  and  C_17
REMARK    6  A    between atoms: N_19  and  C_20
REMARK    7  A    between atoms: C_20  and  C_22
REMARK                            x       y       z     vdW  Elec       q    Type
REMARK                         _______ _______ _______ _____ _____    ______ ____
ROOT
ATOM      1  C   UNL     1      36.396   0.775  16.419  0.00  0.00    +0.000 A 
ATOM      2  C   UNL     1      35.657   0.618  17.569  0.00  0.00    +0.000 A 
ATOM      3  C   UNL     1      34.947  -0.519  17.889  0.00  0.00    +0.000 A 
ATOM      4  C   UNL     1      34.963  -1.580  17.021  0.00  0.00    +0.000 A 
ATOM      5  C   UNL     1      35.695  -1.462  15.859  0.00  0.00    +0.000 A 
ATOM      6  C   UNL     1      36.400  -0.306  15.560  0.00  0.00    +0.000 A 
ENDROOT
BRANCH   1   9
ATOM      7  C   UNL     1      36.546   3.153  15.654  0.00  0.00    +0.000 C 
ATOM      8  O   UNL     1      35.289   3.169  15.519  0.00  0.00    +0.000 OA
ATOM      9  N   UNL     1      37.124   1.963  16.105  0.00  0.00    +0.000 NA
BRANCH   7  10
ATOM     10  C   UNL     1      37.251   4.398  15.319  0.00  0.00    +0.000 C 
BRANCH  10  11
ATOM     11  S   UNL     1      38.898   4.529  16.013  0.00  0.00    +0.000 S 
BRANCH  11  16
ATOM     12  C   UNL     1      38.800   8.442  20.710  0.00  0.00    +0.000 C 
ATOM     13  C   UNL     1      38.809   7.497  19.548  0.00  0.00    +0.000 A 
ATOM     14  C   UNL     1      38.031   7.712  18.432  0.00  0.00    +0.000 A 
ATOM     15  C   UNL     1      38.045   6.832  17.362  0.00  0.00    +0.000 A 
ATOM     16  C   UNL     1      38.833   5.704  17.359  0.00  0.00    +0.000 A 
ATOM     17  C   UNL     1      39.610   5.489  18.474  0.00  0.00    +0.000 A 
ATOM     18  C   UNL     1      39.601   6.369  19.554  0.00  0.00    +0.000 A 
ENDBRANCH  11  16
ENDBRANCH  10  11
ENDBRANCH   7  10
ENDBRANCH   1   9
BRANCH   6  19
ATOM     19  C   UNL     1      37.140  -0.270  14.319  0.00  0.00    +0.000 C 
ATOM     20  O   UNL     1      36.648   0.297  13.321  0.00  0.00    +0.000 OA
ATOM     21  N   UNL     1      38.414  -0.866  14.215  0.00  0.00    +0.000 NA
BRANCH  21  22
ATOM     22  C   UNL     1      39.108  -0.748  12.795  0.00  0.00    +0.000 C 
ATOM     23  C   UNL     1      39.103  -2.388  12.549  0.00  0.00    +0.000 C 
BRANCH  22  24
ATOM     24  C   UNL     1      40.603  -0.702  13.379  0.00  0.00    +0.000 A 
ATOM     25  C   UNL     1      41.357   0.383  13.271  0.00  0.00    +0.000 A 
ATOM     26  C   UNL     1      42.634   0.405  13.775  0.00  0.00    +0.000 A 
ATOM     27  C   UNL     1      43.102  -0.732  14.392  0.00  0.00    +0.000 A 
ATOM     28  C   UNL     1      42.319  -1.866  14.506  0.00  0.00    +0.000 A 
ATOM     29  C   UNL     1      41.020  -1.852  13.980  0.00  0.00    +0.000 A 
ENDBRANCH  22  24
ENDBRANCH  21  22
ENDBRANCH   6  19
TORSDOF 7
ENDMDL
MODEL 6
REMARK VINA RESULT:      -7.5      2.253      5.944
REMARK  Name = 
REMARK  7 active torsions:
REMARK  status: ('A' for Active; 'I' for Inactive)
REMARK    1  A    between atoms: C_5  and  S_6
REMARK    2  A    between atoms: S_6  and  C_7
REMARK    3  A    between atoms: C_7  and  C_8
REMARK    4  A    between atoms: N_10  and  C_11
REMARK    5  A    between atoms: C_16  and  C_17
REMARK    6  A    between atoms: N_19  and  C_20
REMARK    7  A    between atoms: C_20  and  C_22
REMARK                            x       y       z     vdW  Elec       q    Type
REMARK                         _______ _______ _______ _____ _____    ______ ____
ROOT
ATOM      1  C   UNL     1      38.672   3.916  15.476  0.00  0.00    +0.000 A 
ATOM      2  C   UNL     1      39.605   4.906  15.683  0.00  0.00    +0.000 A 
ATOM      3  C   UNL     1      39.685   5.674  16.823  0.00  0.00    +0.000 A 
ATOM      4  C   UNL     1      38.787   5.457  17.837  0.00  0.00    +0.000 A 
ATOM      5  C   UNL     1      37.838   4.472  17.668  0.00  0.00    +0.000 A 
ATOM      6  C   UNL     1      37.778   3.713  16.508  0.00  0.00    +0.000 A 
ENDROOT
BRANCH   1   9
ATOM      7  C   UNL     1      37.741   3.382  13.215  0.00  0.00    +0.000 C 
ATOM      8  O   UNL     1      36.969   4.378  13.319  0.00  0.00    +0.000 OA
ATOM      9  N   UNL     1      38.605   3.131  14.285  0.00  0.00    +0.000 NA
BRANCH   7  10
ATOM     10  C   UNL     1      37.635   2.606  11.972  0.00  0.00    +0.000 C 
BRANCH  10  11
ATOM     11  S   UNL     1      37.090   0.913  12.198  0.00  0.00    +0.000 S 
BRANCH  11  16
ATOM     12  C   UNL     1      41.866  -2.493  13.921  0.00  0.00    +0.000 C 
ATOM     13  C   UNL     1      40.700  -1.644  13.516  0.00  0.00    +0.000 A 
ATOM     14  C   UNL     1      40.373  -0.491  14.194  0.00  0.00    +0.000 A 
ATOM     15  C   UNL     1      39.292   0.289  13.813  0.00  0.00    +0.000 A 
ATOM     16  C   UNL     1      38.496  -0.047  12.742  0.00  0.00    +0.000 A 
ATOM     17  C   UNL     1      38.823  -1.199  12.065  0.00  0.00    +0.000 A 
ATOM     18  C   UNL     1      39.907  -1.988  12.443  0.00  0.00    +0.000 A 
ENDBRANCH  11  16
ENDBRANCH  10  11
ENDBRANCH   7  10
ENDBRANCH   1   9
BRANCH   6  19
ATOM     19  C   UNL     1      36.749   2.701  16.417  0.00  0.00    +0.000 C 
ATOM     20  O   UNL     1      35.564   3.040  16.214  0.00  0.00    +0.000 OA
ATOM     21  N   UNL     1      37.062   1.334  16.555  0.00  0.00    +0.000 NA
BRANCH  21  22
ATOM     22  C   UNL     1      35.835   0.338  16.432  0.00  0.00    +0.000 C 
ATOM     23  C   UNL     1      35.723   0.119  18.072  0.00  0.00    +0.000 C 
BRANCH  22  24
ATOM     24  C   UNL     1      36.741  -0.964  16.181  0.00  0.00    +0.000 A 
ATOM     25  C   UNL     1      37.797  -1.229  16.937  0.00  0.00    +0.000 A 
ATOM     26  C   UNL     1      38.562  -2.347  16.709  0.00  0.00    +0.000 A 
ATOM     27  C   UNL     1      38.197  -3.176  15.673  0.00  0.00    +0.000 A 
ATOM     28  C   UNL     1      37.097  -2.902  14.882  0.00  0.00    +0.000 A 
ATOM     29  C   UNL     1      36.339  -1.752  15.145  0.00  0.00    +0.000 A 
ENDBRANCH  22  24
ENDBRANCH  21  22
ENDBRANCH   6  19
TORSDOF 7
ENDMDL
MODEL 7
REMARK VINA RESULT:      -7.4      2.021      6.455
REMARK  Name = 
REMARK  7 active torsions:
REMARK  status: ('A' for Active; 'I' for Inactive)
REMARK    1  A    between atoms: C_5  and  S_6
REMARK    2  A    between atoms: S_6  and  C_7
REMARK    3  A    between atoms: C_7  and  C_8
REMARK    4  A    between atoms: N_10  and  C_11
REMARK    5  A    between atoms: C_16  and  C_17
REMARK    6  A    between atoms: N_19  and  C_20
REMARK    7  A    between atoms: C_20  and  C_22
REMARK                            x       y       z     vdW  Elec       q    Type
REMARK                         _______ _______ _______ _____ _____    ______ ____
ROOT
ATOM      1  C   UNL     1      37.883   3.189  15.346  0.00  0.00    +0.000 A 
ATOM      2  C   UNL     1      38.845   4.165  15.216  0.00  0.00    +0.000 A 
ATOM      3  C   UNL     1      39.205   5.041  16.216  0.00  0.00    +0.000 A 
ATOM      4  C   UNL     1      38.579   4.956  17.434  0.00  0.00    +0.000 A 
ATOM      5  C   UNL     1      37.610   3.990  17.603  0.00  0.00    +0.000 A 
ATOM      6  C   UNL     1      37.266   3.121  16.579  0.00  0.00    +0.000 A 
ENDROOT
BRANCH   1   9
ATOM      7  C   UNL     1      38.087   1.025  14.106  0.00  0.00    +0.000 C 
ATOM      8  O   UNL     1      38.977   0.660  14.927  0.00  0.00    +0.000 OA
ATOM      9  N   UNL     1      37.523   2.291  14.297  0.00  0.00    +0.000 NA
BRANCH   7  10
ATOM     10  C   UNL     1      37.752   0.067  13.044  0.00  0.00    +0.000 C 
BRANCH  10  11
ATOM     11  S   UNL     1      37.876  -1.654  13.530  0.00  0.00    +0.000 S 
BRANCH  11  16
ATOM     12  C   UNL     1      43.521  -3.552  12.144  0.00  0.00    +0.000 C 
ATOM     13  C   UNL     1      42.145  -3.085  12.505  0.00  0.00    +0.000 A 
ATOM     14  C   UNL     1      41.813  -2.734  13.795  0.00  0.00    +0.000 A 
ATOM     15  C   UNL     1      40.537  -2.302  14.121  0.00  0.00    +0.000 A 
ATOM     16  C   UNL     1      39.541  -2.203  13.178  0.00  0.00    +0.000 A 
ATOM     17  C   UNL     1      39.872  -2.553  11.888  0.00  0.00    +0.000 A 
ATOM     18  C   UNL     1      41.152  -2.988  11.554  0.00  0.00    +0.000 A 
ENDBRANCH  11  16
ENDBRANCH  10  11
ENDBRANCH   7  10
ENDBRANCH   1   9
BRANCH   6  19
ATOM     19  C   UNL     1      36.239   2.138  16.847  0.00  0.00    +0.000 C 
ATOM     20  O   UNL     1      35.045   2.407  16.596  0.00  0.00    +0.000 OA
ATOM     21  N   UNL     1      36.564   0.878  17.388  0.00  0.00    +0.000 NA
BRANCH  21  22
ATOM     22  C   UNL     1      35.337  -0.098  17.627  0.00  0.00    +0.000 C 
ATOM     23  C   UNL     1      35.598  -0.182  19.262  0.00  0.00    +0.000 C 
BRANCH  22  24
ATOM     24  C   UNL     1      36.160  -1.435  17.288  0.00  0.00    +0.000 A 
ATOM     25  C   UNL     1      35.555  -2.526  16.839  0.00  0.00    +0.000 A 
ATOM     26  C   UNL     1      36.274  -3.661  16.556  0.00  0.00    +0.000 A 
ATOM     27  C   UNL     1      37.635  -3.628  16.754  0.00  0.00    +0.000 A 
ATOM     28  C   UNL     1      38.268  -2.492  17.223  0.00  0.00    +0.000 A 
ATOM     29  C   UNL     1      37.503  -1.351  17.501  0.00  0.00    +0.000 A 
ENDBRANCH  22  24
ENDBRANCH  21  22
ENDBRANCH   6  19
TORSDOF 7
ENDMDL
MODEL 8
REMARK VINA RESULT:      -7.3      2.650      3.651
REMARK  Name = 
REMARK  7 active torsions:
REMARK  status: ('A' for Active; 'I' for Inactive)
REMARK    1  A    between atoms: C_5  and  S_6
REMARK    2  A    between atoms: S_6  and  C_7
REMARK    3  A    between atoms: C_7  and  C_8
REMARK    4  A    between atoms: N_10  and  C_11
REMARK    5  A    between atoms: C_16  and  C_17
REMARK    6  A    between atoms: N_19  and  C_20
REMARK    7  A    between atoms: C_20  and  C_22
REMARK                            x       y       z     vdW  Elec       q    Type
REMARK                         _______ _______ _______ _____ _____    ______ ____
ROOT
ATOM      1  C   UNL     1      38.001   2.419  13.016  0.00  0.00    +0.000 A 
ATOM      2  C   UNL     1      38.871   2.583  11.963  0.00  0.00    +0.000 A 
ATOM      3  C   UNL     1      39.243   1.579  11.096  0.00  0.00    +0.000 A 
ATOM      4  C   UNL     1      38.725   0.321  11.273  0.00  0.00    +0.000 A 
ATOM      5  C   UNL     1      37.849   0.117  12.317  0.00  0.00    +0.000 A 
ATOM      6  C   UNL     1      37.491   1.146  13.176  0.00  0.00    +0.000 A 
ENDROOT
BRANCH   1   9
ATOM      7  C   UNL     1      38.249   3.737  15.129  0.00  0.00    +0.000 C 
ATOM      8  O   UNL     1      39.206   2.983  15.465  0.00  0.00    +0.000 OA
ATOM      9  N   UNL     1      37.629   3.474  13.904  0.00  0.00    +0.000 NA
BRANCH   7  10
ATOM     10  C   UNL     1      37.903   4.807  16.075  0.00  0.00    +0.000 C 
BRANCH  10  11
ATOM     11  S   UNL     1      38.914   6.281  15.932  0.00  0.00    +0.000 S 
BRANCH  11  16
ATOM     12  C   UNL     1      42.499   6.439  20.882  0.00  0.00    +0.000 C 
ATOM     13  C   UNL     1      41.640   6.403  19.656  0.00  0.00    +0.000 A 
ATOM     14  C   UNL     1      42.172   6.534  18.392  0.00  0.00    +0.000 A 
ATOM     15  C   UNL     1      41.369   6.499  17.263  0.00  0.00    +0.000 A 
ATOM     16  C   UNL     1      40.006   6.334  17.346  0.00  0.00    +0.000 A 
ATOM     17  C   UNL     1      39.474   6.203  18.609  0.00  0.00    +0.000 A 
ATOM     18  C   UNL     1      40.275   6.237  19.748  0.00  0.00    +0.000 A 
ENDBRANCH  11  16
ENDBRANCH  10  11
ENDBRANCH   7  10
ENDBRANCH   1   9
BRANCH   6  19
ATOM     19  C   UNL     1      36.565   0.842  14.244  0.00  0.00    +0.000 C 
ATOM     20  O   UNL     1      35.363   1.161  14.130  0.00  0.00    +0.000 OA
ATOM     21  N   UNL     1      36.997   0.188  15.415  0.00  0.00    +0.000 NA
BRANCH  21  22
ATOM     22  C   UNL     1      35.873  -0.082  16.499  0.00  0.00    +0.000 C 
ATOM     23  C   UNL     1      36.222   1.300  17.347  0.00  0.00    +0.000 C 
BRANCH  22  24
ATOM     24  C   UNL     1      36.790  -1.036  17.411  0.00  0.00    +0.000 A 
ATOM     25  C   UNL     1      36.602  -1.135  18.719  0.00  0.00    +0.000 A 
ATOM     26  C   UNL     1      37.396  -1.954  19.484  0.00  0.00    +0.000 A 
ATOM     27  C   UNL     1      38.389  -2.664  18.848  0.00  0.00    +0.000 A 
ATOM     28  C   UNL     1      38.588  -2.562  17.484  0.00  0.00    +0.000 A 
ATOM     29  C   UNL     1      37.758  -1.717  16.735  0.00  0.00    +0.000 A 
ENDBRANCH  22  24
ENDBRANCH  21  22
ENDBRANCH   6  19
TORSDOF 7
ENDMDL
MODEL 9
REMARK VINA RESULT:      -7.3      2.519      7.267
REMARK  Name = 
REMARK  7 active torsions:
REMARK  status: ('A' for Active; 'I' for Inactive)
REMARK    1  A    between atoms: C_5  and  S_6
REMARK    2  A    between atoms: S_6  and  C_7
REMARK    3  A    between atoms: C_7  and  C_8
REMARK    4  A    between atoms: N_10  and  C_11
REMARK    5  A    between atoms: C_16  and  C_17
REMARK    6  A    between atoms: N_19  and  C_20
REMARK    7  A    between atoms: C_20  and  C_22
REMARK                            x       y       z     vdW  Elec       q    Type
REMARK                         _______ _______ _______ _____ _____    ______ ____
ROOT
ATOM      1  C   UNL     1      38.129   4.665  16.769  0.00  0.00    +0.000 A 
ATOM      2  C   UNL     1      38.209   5.133  18.061  0.00  0.00    +0.000 A 
ATOM      3  C   UNL     1      39.306   5.778  18.589  0.00  0.00    +0.000 A 
ATOM      4  C   UNL     1      40.405   5.981  17.794  0.00  0.00    +0.000 A 
ATOM      5  C   UNL     1      40.363   5.528  16.493  0.00  0.00    +0.000 A 
ATOM      6  C   UNL     1      39.245   4.880  15.986  0.00  0.00    +0.000 A 
ENDROOT
BRANCH   1   9
ATOM      7  C   UNL     1      36.414   2.842  16.786  0.00  0.00    +0.000 C 
ATOM      8  O   UNL     1      36.962   2.362  17.819  0.00  0.00    +0.000 OA
ATOM      9  N   UNL     1      36.982   3.998  16.241  0.00  0.00    +0.000 NA
BRANCH   7  10
ATOM     10  C   UNL     1      35.238   2.121  16.281  0.00  0.00    +0.000 C 
BRANCH  10  11
ATOM     11  S   UNL     1      34.986   0.505  17.014  0.00  0.00    +0.000 S 
BRANCH  11  16
ATOM     12  C   UNL     1      37.890  -3.468  13.385  0.00  0.00    +0.000 C 
ATOM     13  C   UNL     1      37.174  -2.512  14.289  0.00  0.00    +0.000 A 
ATOM     14  C   UNL     1      36.579  -2.927  15.459  0.00  0.00    +0.000 A 
ATOM     15  C   UNL     1      35.918  -2.036  16.290  0.00  0.00    +0.000 A 
ATOM     16  C   UNL     1      35.822  -0.697  15.989  0.00  0.00    +0.000 A 
ATOM     17  C   UNL     1      36.416  -0.281  14.819  0.00  0.00    +0.000 A 
ATOM     18  C   UNL     1      37.082  -1.172  13.979  0.00  0.00    +0.000 A 
ENDBRANCH  11  16
ENDBRANCH  10  11
ENDBRANCH   7  10
ENDBRANCH   1   9
BRANCH   6  19
ATOM     19  C   UNL     1      39.288   4.439  14.610  0.00  0.00    +0.000 C 
ATOM     20  O   UNL     1      39.293   5.284  13.690  0.00  0.00    +0.000 OA
ATOM     21  N   UNL     1      39.325   3.067  14.288  0.00  0.00    +0.000 NA
BRANCH  21  22
ATOM     22  C   UNL     1      39.372   2.732  12.740  0.00  0.00    +0.000 C 
ATOM     23  C   UNL     1      37.768   2.314  12.683  0.00  0.00    +0.000 C 
BRANCH  22  24
ATOM     24  C   UNL     1      39.897   1.227  12.943  0.00  0.00    +0.000 A 
ATOM     25  C   UNL     1      40.027   0.394  11.921  0.00  0.00    +0.000 A 
ATOM     26  C   UNL     1      40.477  -0.889  12.112  0.00  0.00    +0.000 A 
ATOM     27  C   UNL     1      40.785  -1.278  13.396  0.00  0.00    +0.000 A 
ATOM     28  C   UNL     1      40.650  -0.412  14.465  0.00  0.00    +0.000 A 
ATOM     29  C   UNL     1      40.189   0.891  14.231  0.00  0.00    +0.000 A 
ENDBRANCH  22  24
ENDBRANCH  21  22
ENDBRANCH   6  19
TORSDOF 7
ENDMDL
MODEL 10
REMARK VINA RESULT:      -7.1      2.269      2.830
REMARK  Name = 
REMARK  7 active torsions:
REMARK  status: ('A' for Active; 'I' for Inactive)
REMARK    1  A    between atoms: C_5  and  S_6
REMARK    2  A    between atoms: S_6  and  C_7
REMARK    3  A    between atoms: C_7  and  C_8
REMARK    4  A    between atoms: N_10  and  C_11
REMARK    5  A    between atoms: C_16  and  C_17
REMARK    6  A    between atoms: N_19  and  C_20
REMARK    7  A    between atoms: C_20  and  C_22
REMARK                            x       y       z     vdW  Elec       q    Type
REMARK                         _______ _______ _______ _____ _____    ______ ____
ROOT
ATOM      1  C   UNL     1      39.598  -0.204  11.854  0.00  0.00    +0.000 A 
ATOM      2  C   UNL     1      40.075  -0.414  10.581  0.00  0.00    +0.000 A 
ATOM      3  C   UNL     1      40.356  -1.653  10.048  0.00  0.00    +0.000 A 
ATOM      4  C   UNL     1      40.155  -2.770  10.819  0.00  0.00    +0.000 A 
ATOM      5  C   UNL     1      39.676  -2.600  12.101  0.00  0.00    +0.000 A 
ATOM      6  C   UNL     1      39.402  -1.341  12.612  0.00  0.00    +0.000 A 
ENDROOT
BRANCH   1   9
ATOM      7  C   UNL     1      38.466   2.027  11.787  0.00  0.00    +0.000 C 
ATOM      8  O   UNL     1      37.918   1.696  10.698  0.00  0.00    +0.000 OA
ATOM      9  N   UNL     1      39.314   1.090  12.387  0.00  0.00    +0.000 NA
BRANCH   7  10
ATOM     10  C   UNL     1      38.143   3.368  12.296  0.00  0.00    +0.000 C 
BRANCH  10  11
ATOM     11  S   UNL     1      39.569   4.356  12.745  0.00  0.00    +0.000 S 
BRANCH  11  16
ATOM     12  C   UNL     1      39.061   5.430  18.743  0.00  0.00    +0.000 C 
ATOM     13  C   UNL     1      39.203   5.183  17.272  0.00  0.00    +0.000 A 
ATOM     14  C   UNL     1      40.136   5.850  16.510  0.00  0.00    +0.000 A 
ATOM     15  C   UNL     1      40.261   5.615  15.150  0.00  0.00    +0.000 A 
ATOM     16  C   UNL     1      39.462   4.707  14.494  0.00  0.00    +0.000 A 
ATOM     17  C   UNL     1      38.529   4.039  15.255  0.00  0.00    +0.000 A 
ATOM     18  C   UNL     1      38.399   4.271  16.623  0.00  0.00    +0.000 A 
ENDBRANCH  11  16
ENDBRANCH  10  11
ENDBRANCH   7  10
ENDBRANCH   1   9
BRANCH   6  19
ATOM     19  C   UNL     1      38.903  -1.257  13.967  0.00  0.00    +0.000 C 
ATOM     20  O   UNL     1      39.688  -1.408  14.926  0.00  0.00    +0.000 OA
ATOM     21  N   UNL     1      37.539  -1.008  14.224  0.00  0.00    +0.000 NA
BRANCH  21  22
ATOM     22  C   UNL     1      37.135  -0.943  15.755  0.00  0.00    +0.000 C 
ATOM     23  C   UNL     1      35.828  -1.943  15.554  0.00  0.00    +0.000 C 
BRANCH  22  24
ATOM     24  C   UNL     1      36.290   0.416  15.614  0.00  0.00    +0.000 A 
ATOM     25  C   UNL     1      36.130   1.014  14.442  0.00  0.00    +0.000 A 
ATOM     26  C   UNL     1      35.405   2.176  14.339  0.00  0.00    +0.000 A 
ATOM     27  C   UNL     1      34.854   2.695  15.489  0.00  0.00    +0.000 A 
ATOM     28  C   UNL     1      35.021   2.074  16.713  0.00  0.00    +0.000 A 
ATOM     29  C   UNL     1      35.766   0.889  16.780  0.00  0.00    +0.000 A 
ENDBRANCH  22  24
ENDBRANCH  21  22
ENDBRANCH   6  19
TORSDOF 7
ENDMDL
