MODEL 1
REMARK VINA RESULT:      -7.9      0.000      0.000
REMARK  Name = 
REMARK  2 active torsions:
REMARK  status: ('A' for Active; 'I' for Inactive)
REMARK    1  A    between atoms: O_2  and  C_3
REMARK    2  A    between atoms: N_5  and  C_6
REMARK                            x       y       z     vdW  Elec       q    Type
REMARK                         _______ _______ _______ _____ _____    ______ ____
ROOT
ATOM      1  C   UNL     1      17.347  10.041  38.012  0.00  0.00    +0.000 A 
ATOM      2  C   UNL     1      18.248   9.452  37.134  0.00  0.00    +0.000 A 
ATOM      3  C   UNL     1      18.199   9.710  35.780  0.00  0.00    +0.000 A 
ATOM      4  C   UNL     1      17.219  10.584  35.294  0.00  0.00    +0.000 A 
ATOM      5  C   UNL     1      16.339  11.153  36.192  0.00  0.00    +0.000 A 
ATOM      6  C   UNL     1      16.392  10.891  37.547  0.00  0.00    +0.000 A 
ATOM      7  N   UNL     1      15.273  12.061  35.924  0.00  0.00    +0.000 NA
ATOM      8  C   UNL     1      14.836  12.524  34.637  0.00  0.00    +0.000 A 
ATOM      9  C   UNL     1      14.064  13.657  34.748  0.00  0.00    +0.000 A 
ATOM     10  C   UNL     1      13.568  14.224  33.595  0.00  0.00    +0.000 A 
ATOM     11  C   UNL     1      13.854  13.650  32.366  0.00  0.00    +0.000 A 
ATOM     12  C   UNL     1      14.630  12.510  32.244  0.00  0.00    +0.000 A 
ATOM     13  C   UNL     1      15.127  11.943  33.404  0.00  0.00    +0.000 A 
ATOM     14  C   UNL     1      15.947  10.724  33.158  0.00  0.00    +0.000 C 
ATOM     15  C   UNL     1      17.280  10.769  33.836  0.00  0.00    +0.000 C 
ENDROOT
BRANCH   1  18
ATOM     16  C   UNL     1      16.407   9.701  40.301  0.00  0.00    +0.000 C 
ATOM     17  O   UNL     1      15.262  10.003  39.870  0.00  0.00    +0.000 OA
ATOM     18  N   UNL     1      17.485   9.705  39.404  0.00  0.00    +0.000 NA
BRANCH  16  20
ATOM     19  C   UNL     1      16.239   8.072  42.055  0.00  0.00    +0.000 C 
ATOM     20  O   UNL     1      16.610   9.366  41.630  0.00  0.00    +0.000 OA
ENDBRANCH  16  20
ENDBRANCH   1  18
TORSDOF 2
ENDMDL
MODEL 2
REMARK VINA RESULT:      -7.5      1.556      2.540
REMARK  Name = 
REMARK  2 active torsions:
REMARK  status: ('A' for Active; 'I' for Inactive)
REMARK    1  A    between atoms: O_2  and  C_3
REMARK    2  A    between atoms: N_5  and  C_6
REMARK                            x       y       z     vdW  Elec       q    Type
REMARK                         _______ _______ _______ _____ _____    ______ ____
ROOT
ATOM      1  C   UNL     1      17.403   9.582  40.068  0.00  0.00    +0.000 A 
ATOM      2  C   UNL     1      18.655   9.077  39.739  0.00  0.00    +0.000 A 
ATOM      3  C   UNL     1      19.120   9.109  38.440  0.00  0.00    +0.000 A 
ATOM      4  C   UNL     1      18.306   9.664  37.445  0.00  0.00    +0.000 A 
ATOM      5  C   UNL     1      17.068  10.158  37.805  0.00  0.00    +0.000 A 
ATOM      6  C   UNL     1      16.608  10.122  39.106  0.00  0.00    +0.000 A 
ATOM      7  N   UNL     1      16.084  10.759  36.967  0.00  0.00    +0.000 NA
ATOM      8  C   UNL     1      16.143  10.915  35.540  0.00  0.00    +0.000 A 
ATOM      9  C   UNL     1      15.241  11.856  35.101  0.00  0.00    +0.000 A 
ATOM     10  C   UNL     1      15.177  12.119  33.751  0.00  0.00    +0.000 A 
ATOM     11  C   UNL     1      16.011  11.441  32.876  0.00  0.00    +0.000 A 
ATOM     12  C   UNL     1      16.923  10.493  33.308  0.00  0.00    +0.000 A 
ATOM     13  C   UNL     1      16.984  10.231  34.665  0.00  0.00    +0.000 A 
ATOM     14  C   UNL     1      17.997   9.196  35.019  0.00  0.00    +0.000 C 
ATOM     15  C   UNL     1      18.922   9.634  36.110  0.00  0.00    +0.000 C 
ENDROOT
BRANCH   1  18
ATOM     16  C   UNL     1      16.386   8.376  42.004  0.00  0.00    +0.000 C 
ATOM     17  O   UNL     1      16.151   7.388  41.258  0.00  0.00    +0.000 OA
ATOM     18  N   UNL     1      17.014   9.500  41.450  0.00  0.00    +0.000 NA
BRANCH  16  20
ATOM     19  C   UNL     1      15.576   7.152  43.901  0.00  0.00    +0.000 C 
ATOM     20  O   UNL     1      16.037   8.364  43.345  0.00  0.00    +0.000 OA
ENDBRANCH  16  20
ENDBRANCH   1  18
TORSDOF 2
ENDMDL
MODEL 3
REMARK VINA RESULT:      -7.4     18.989     20.560
REMARK  Name = 
REMARK  2 active torsions:
REMARK  status: ('A' for Active; 'I' for Inactive)
REMARK    1  A    between atoms: O_2  and  C_3
REMARK    2  A    between atoms: N_5  and  C_6
REMARK                            x       y       z     vdW  Elec       q    Type
REMARK                         _______ _______ _______ _____ _____    ______ ____
ROOT
ATOM      1  C   UNL     1      33.929  -1.014  34.703  0.00  0.00    +0.000 A 
ATOM      2  C   UNL     1      33.886  -0.854  33.324  0.00  0.00    +0.000 A 
ATOM      3  C   UNL     1      33.874   0.400  32.749  0.00  0.00    +0.000 A 
ATOM      4  C   UNL     1      33.909   1.525  33.581  0.00  0.00    +0.000 A 
ATOM      5  C   UNL     1      33.953   1.333  34.948  0.00  0.00    +0.000 A 
ATOM      6  C   UNL     1      33.963   0.075  35.518  0.00  0.00    +0.000 A 
ATOM      7  N   UNL     1      33.992   2.322  35.974  0.00  0.00    +0.000 NA
ATOM      8  C   UNL     1      33.920   3.746  35.804  0.00  0.00    +0.000 A 
ATOM      9  C   UNL     1      34.365   4.408  36.924  0.00  0.00    +0.000 A 
ATOM     10  C   UNL     1      34.356   5.785  36.916  0.00  0.00    +0.000 A 
ATOM     11  C   UNL     1      33.908   6.464  35.794  0.00  0.00    +0.000 A 
ATOM     12  C   UNL     1      33.458   5.808  34.661  0.00  0.00    +0.000 A 
ATOM     13  C   UNL     1      33.468   4.424  34.674  0.00  0.00    +0.000 A 
ATOM     14  C   UNL     1      32.965   3.821  33.407  0.00  0.00    +0.000 C 
ATOM     15  C   UNL     1      33.892   2.794  32.840  0.00  0.00    +0.000 C 
ENDROOT
BRANCH   1  18
ATOM     16  C   UNL     1      32.771  -3.120  35.381  0.00  0.00    +0.000 C 
ATOM     17  O   UNL     1      31.662  -2.597  35.093  0.00  0.00    +0.000 OA
ATOM     18  N   UNL     1      33.937  -2.363  35.201  0.00  0.00    +0.000 NA
BRANCH  16  20
ATOM     19  C   UNL     1      32.924  -4.602  37.261  0.00  0.00    +0.000 C 
ATOM     20  O   UNL     1      32.851  -4.417  35.864  0.00  0.00    +0.000 OA
ENDBRANCH  16  20
ENDBRANCH   1  18
TORSDOF 2
ENDMDL
MODEL 4
REMARK VINA RESULT:      -7.3      2.457      3.644
REMARK  Name = 
REMARK  2 active torsions:
REMARK  status: ('A' for Active; 'I' for Inactive)
REMARK    1  A    between atoms: O_2  and  C_3
REMARK    2  A    between atoms: N_5  and  C_6
REMARK                            x       y       z     vdW  Elec       q    Type
REMARK                         _______ _______ _______ _____ _____    ______ ____
ROOT
ATOM      1  C   UNL     1      18.590   9.031  39.244  0.00  0.00    +0.000 A 
ATOM      2  C   UNL     1      17.568   9.491  40.065  0.00  0.00    +0.000 A 
ATOM      3  C   UNL     1      16.490  10.178  39.547  0.00  0.00    +0.000 A 
ATOM      4  C   UNL     1      16.435  10.409  38.168  0.00  0.00    +0.000 A 
ATOM      5  C   UNL     1      17.466   9.939  37.379  0.00  0.00    +0.000 A 
ATOM      6  C   UNL     1      18.544   9.253  37.902  0.00  0.00    +0.000 A 
ATOM      7  N   UNL     1      17.619  10.060  35.966  0.00  0.00    +0.000 NA
ATOM      8  C   UNL     1      16.756  10.768  35.062  0.00  0.00    +0.000 A 
ATOM      9  C   UNL     1      16.962  10.373  33.761  0.00  0.00    +0.000 A 
ATOM     10  C   UNL     1      16.207  10.964  32.772  0.00  0.00    +0.000 A 
ATOM     11  C   UNL     1      15.270  11.929  33.105  0.00  0.00    +0.000 A 
ATOM     12  C   UNL     1      15.055  12.333  34.412  0.00  0.00    +0.000 A 
ATOM     13  C   UNL     1      15.815  11.738  35.402  0.00  0.00    +0.000 A 
ATOM     14  C   UNL     1      15.503  12.245  36.768  0.00  0.00    +0.000 C 
ATOM     15  C   UNL     1      15.235  11.151  37.751  0.00  0.00    +0.000 C 
ENDROOT
BRANCH   1  18
ATOM     16  C   UNL     1      19.591   6.975  40.248  0.00  0.00    +0.000 C 
ATOM     17  O   UNL     1      18.527   6.345  40.005  0.00  0.00    +0.000 OA
ATOM     18  N   UNL     1      19.669   8.327  39.883  0.00  0.00    +0.000 NA
BRANCH  16  20
ATOM     19  C   UNL     1      21.924   7.001  40.806  0.00  0.00    +0.000 C 
ATOM     20  O   UNL     1      20.669   6.357  40.861  0.00  0.00    +0.000 OA
ENDBRANCH  16  20
ENDBRANCH   1  18
TORSDOF 2
ENDMDL
MODEL 5
REMARK VINA RESULT:      -7.2     29.546     31.299
REMARK  Name = 
REMARK  2 active torsions:
REMARK  status: ('A' for Active; 'I' for Inactive)
REMARK    1  A    between atoms: O_2  and  C_3
REMARK    2  A    between atoms: N_5  and  C_6
REMARK                            x       y       z     vdW  Elec       q    Type
REMARK                         _______ _______ _______ _____ _____    ______ ____
ROOT
ATOM      1  C   UNL     1      33.773  20.340  11.582  0.00  0.00    +0.000 A 
ATOM      2  C   UNL     1      33.476  20.182  10.234  0.00  0.00    +0.000 A 
ATOM      3  C   UNL     1      32.297  20.660   9.701  0.00  0.00    +0.000 A 
ATOM      4  C   UNL     1      31.392  21.317  10.543  0.00  0.00    +0.000 A 
ATOM      5  C   UNL     1      31.717  21.458  11.877  0.00  0.00    +0.000 A 
ATOM      6  C   UNL     1      32.898  20.977  12.406  0.00  0.00    +0.000 A 
ATOM      7  N   UNL     1      30.954  22.084  12.907  0.00  0.00    +0.000 NA
ATOM      8  C   UNL     1      29.636  22.642  12.787  0.00  0.00    +0.000 A 
ATOM      9  C   UNL     1      29.354  23.490  13.832  0.00  0.00    +0.000 A 
ATOM     10  C   UNL     1      28.122  24.106  13.860  0.00  0.00    +0.000 A 
ATOM     11  C   UNL     1      27.208  23.863  12.848  0.00  0.00    +0.000 A 
ATOM     12  C   UNL     1      27.482  23.011  11.791  0.00  0.00    +0.000 A 
ATOM     13  C   UNL     1      28.720  22.394  11.766  0.00  0.00    +0.000 A 
ATOM     14  C   UNL     1      28.910  21.502  10.588  0.00  0.00    +0.000 C 
ATOM     15  C   UNL     1      30.180  21.774   9.847  0.00  0.00    +0.000 C 
ENDROOT
BRANCH   1  18
ATOM     16  C   UNL     1      36.243  20.492  11.915  0.00  0.00    +0.000 C 
ATOM     17  O   UNL     1      36.239  21.635  11.383  0.00  0.00    +0.000 OA
ATOM     18  N   UNL     1      35.028  19.804  12.037  0.00  0.00    +0.000 NA
BRANCH  16  20
ATOM     19  C   UNL     1      37.335  18.663  13.017  0.00  0.00    +0.000 C 
ATOM     20  O   UNL     1      37.417  19.917  12.376  0.00  0.00    +0.000 OA
ENDBRANCH  16  20
ENDBRANCH   1  18
TORSDOF 2
ENDMDL
MODEL 6
REMARK VINA RESULT:      -7.2     29.807     32.089
REMARK  Name = 
REMARK  2 active torsions:
REMARK  status: ('A' for Active; 'I' for Inactive)
REMARK    1  A    between atoms: O_2  and  C_3
REMARK    2  A    between atoms: N_5  and  C_6
REMARK                            x       y       z     vdW  Elec       q    Type
REMARK                         _______ _______ _______ _____ _____    ______ ____
ROOT
ATOM      1  C   UNL     1      31.968  20.414   8.791  0.00  0.00    +0.000 A 
ATOM      2  C   UNL     1      32.886  20.265   9.822  0.00  0.00    +0.000 A 
ATOM      3  C   UNL     1      32.576  20.632  11.115  0.00  0.00    +0.000 A 
ATOM      4  C   UNL     1      31.307  21.162  11.380  0.00  0.00    +0.000 A 
ATOM      5  C   UNL     1      30.417  21.297  10.334  0.00  0.00    +0.000 A 
ATOM      6  C   UNL     1      30.733  20.928   9.041  0.00  0.00    +0.000 A 
ATOM      7  N   UNL     1      29.086  21.808  10.372  0.00  0.00    +0.000 NA
ATOM      8  C   UNL     1      28.407  22.365  11.508  0.00  0.00    +0.000 A 
ATOM      9  C   UNL     1      27.047  22.402  11.309  0.00  0.00    +0.000 A 
ATOM     10  C   UNL     1      26.254  22.913  12.314  0.00  0.00    +0.000 A 
ATOM     11  C   UNL     1      26.836  23.372  13.485  0.00  0.00    +0.000 A 
ATOM     12  C   UNL     1      28.204  23.338  13.694  0.00  0.00    +0.000 A 
ATOM     13  C   UNL     1      28.997  22.824  12.683  0.00  0.00    +0.000 A 
ATOM     14  C   UNL     1      30.451  22.836  13.013  0.00  0.00    +0.000 C 
ATOM     15  C   UNL     1      31.109  21.511  12.795  0.00  0.00    +0.000 C 
ENDROOT
BRANCH   1  18
ATOM     16  C   UNL     1      31.528  19.411   6.546  0.00  0.00    +0.000 C 
ATOM     17  O   UNL     1      30.322  19.233   6.868  0.00  0.00    +0.000 OA
ATOM     18  N   UNL     1      32.391  20.001   7.480  0.00  0.00    +0.000 NA
BRANCH  16  20
ATOM     19  C   UNL     1      32.048  20.016   4.284  0.00  0.00    +0.000 C 
ATOM     20  O   UNL     1      32.002  19.037   5.299  0.00  0.00    +0.000 OA
ENDBRANCH  16  20
ENDBRANCH   1  18
TORSDOF 2
ENDMDL
MODEL 7
REMARK VINA RESULT:      -7.1      3.272      7.246
REMARK  Name = 
REMARK  2 active torsions:
REMARK  status: ('A' for Active; 'I' for Inactive)
REMARK    1  A    between atoms: O_2  and  C_3
REMARK    2  A    between atoms: N_5  and  C_6
REMARK                            x       y       z     vdW  Elec       q    Type
REMARK                         _______ _______ _______ _____ _____    ______ ____
ROOT
ATOM      1  C   UNL     1      15.826  11.585  34.162  0.00  0.00    +0.000 A 
ATOM      2  C   UNL     1      14.823  11.877  35.077  0.00  0.00    +0.000 A 
ATOM      3  C   UNL     1      15.015  11.694  36.431  0.00  0.00    +0.000 A 
ATOM      4  C   UNL     1      16.248  11.206  36.879  0.00  0.00    +0.000 A 
ATOM      5  C   UNL     1      17.225  10.926  35.944  0.00  0.00    +0.000 A 
ATOM      6  C   UNL     1      17.027  11.110  34.590  0.00  0.00    +0.000 A 
ATOM      7  N   UNL     1      18.541  10.425  36.170  0.00  0.00    +0.000 NA
ATOM      8  C   UNL     1      19.111  10.032  37.428  0.00  0.00    +0.000 A 
ATOM      9  C   UNL     1      20.482   9.967  37.358  0.00  0.00    +0.000 A 
ATOM     10  C   UNL     1      21.178   9.601  38.490  0.00  0.00    +0.000 A 
ATOM     11  C   UNL     1      20.490   9.311  39.657  0.00  0.00    +0.000 A 
ATOM     12  C   UNL     1      19.109   9.374  39.738  0.00  0.00    +0.000 A 
ATOM     13  C   UNL     1      18.414   9.742  38.600  0.00  0.00    +0.000 A 
ATOM     14  C   UNL     1      16.937   9.777  38.797  0.00  0.00    +0.000 C 
ATOM     15  C   UNL     1      16.317  11.059  38.340  0.00  0.00    +0.000 C 
ENDROOT
BRANCH   1  18
ATOM     16  C   UNL     1      14.828  10.888  31.982  0.00  0.00    +0.000 C 
ATOM     17  O   UNL     1      14.446   9.808  32.507  0.00  0.00    +0.000 OA
ATOM     18  N   UNL     1      15.524  11.811  32.774  0.00  0.00    +0.000 NA
BRANCH  16  20
ATOM     19  C   UNL     1      14.434  12.523  30.271  0.00  0.00    +0.000 C 
ATOM     20  O   UNL     1      14.570  11.170  30.650  0.00  0.00    +0.000 OA
ENDBRANCH  16  20
ENDBRANCH   1  18
TORSDOF 2
ENDMDL
MODEL 8
REMARK VINA RESULT:      -6.9     30.413     32.491
REMARK  Name = 
REMARK  2 active torsions:
REMARK  status: ('A' for Active; 'I' for Inactive)
REMARK    1  A    between atoms: O_2  and  C_3
REMARK    2  A    between atoms: N_5  and  C_6
REMARK                            x       y       z     vdW  Elec       q    Type
REMARK                         _______ _______ _______ _____ _____    ______ ____
ROOT
ATOM      1  C   UNL     1      30.440  21.708  11.419  0.00  0.00    +0.000 A 
ATOM      2  C   UNL     1      30.727  20.499  12.039  0.00  0.00    +0.000 A 
ATOM      3  C   UNL     1      32.028  20.067  12.195  0.00  0.00    +0.000 A 
ATOM      4  C   UNL     1      33.069  20.871  11.717  0.00  0.00    +0.000 A 
ATOM      5  C   UNL     1      32.750  22.068  11.106  0.00  0.00    +0.000 A 
ATOM      6  C   UNL     1      31.446  22.495  10.952  0.00  0.00    +0.000 A 
ATOM      7  N   UNL     1      33.638  23.035  10.550  0.00  0.00    +0.000 NA
ATOM      8  C   UNL     1      35.066  22.934  10.440  0.00  0.00    +0.000 A 
ATOM      9  C   UNL     1      35.640  24.165  10.220  0.00  0.00    +0.000 A 
ATOM     10  C   UNL     1      37.010  24.233  10.092  0.00  0.00    +0.000 A 
ATOM     11  C   UNL     1      37.769  23.078  10.187  0.00  0.00    +0.000 A 
ATOM     12  C   UNL     1      37.201  21.835  10.409  0.00  0.00    +0.000 A 
ATOM     13  C   UNL     1      35.825  21.770  10.537  0.00  0.00    +0.000 A 
ATOM     14  C   UNL     1      35.321  20.387  10.773  0.00  0.00    +0.000 C 
ATOM     15  C   UNL     1      34.401  20.293  11.948  0.00  0.00    +0.000 C 
ENDROOT
BRANCH   1  18
ATOM     16  C   UNL     1      28.336  22.694  12.335  0.00  0.00    +0.000 C 
ATOM     17  O   UNL     1      28.936  22.961  13.411  0.00  0.00    +0.000 OA
ATOM     18  N   UNL     1      29.051  22.065  11.306  0.00  0.00    +0.000 NA
BRANCH  16  20
ATOM     19  C   UNL     1      26.285  22.342  11.143  0.00  0.00    +0.000 C 
ATOM     20  O   UNL     1      26.999  23.012  12.160  0.00  0.00    +0.000 OA
ENDBRANCH  16  20
ENDBRANCH   1  18
TORSDOF 2
ENDMDL
MODEL 9
REMARK VINA RESULT:      -6.9     30.585     32.698
REMARK  Name = 
REMARK  2 active torsions:
REMARK  status: ('A' for Active; 'I' for Inactive)
REMARK    1  A    between atoms: O_2  and  C_3
REMARK    2  A    between atoms: N_5  and  C_6
REMARK                            x       y       z     vdW  Elec       q    Type
REMARK                         _______ _______ _______ _____ _____    ______ ____
ROOT
ATOM      1  C   UNL     1      30.866  21.335  11.343  0.00  0.00    +0.000 A 
ATOM      2  C   UNL     1      32.237  21.558  11.326  0.00  0.00    +0.000 A 
ATOM      3  C   UNL     1      32.994  21.277  10.208  0.00  0.00    +0.000 A 
ATOM      4  C   UNL     1      32.357  20.759   9.074  0.00  0.00    +0.000 A 
ATOM      5  C   UNL     1      30.993  20.550   9.121  0.00  0.00    +0.000 A 
ATOM      6  C   UNL     1      30.241  20.832  10.244  0.00  0.00    +0.000 A 
ATOM      7  N   UNL     1      30.146  20.035   8.096  0.00  0.00    +0.000 NA
ATOM      8  C   UNL     1      30.548  19.552   6.805  0.00  0.00    +0.000 A 
ATOM      9  C   UNL     1      29.483  19.494   5.938  0.00  0.00    +0.000 A 
ATOM     10  C   UNL     1      29.709  19.048   4.654  0.00  0.00    +0.000 A 
ATOM     11  C   UNL     1      30.986  18.673   4.271  0.00  0.00    +0.000 A 
ATOM     12  C   UNL     1      32.066  18.728   5.136  0.00  0.00    +0.000 A 
ATOM     13  C   UNL     1      31.835  19.177   6.424  0.00  0.00    +0.000 A 
ATOM     14  C   UNL     1      33.062  19.195   7.270  0.00  0.00    +0.000 C 
ATOM     15  C   UNL     1      33.279  20.506   7.956  0.00  0.00    +0.000 C 
ENDROOT
BRANCH   1  18
ATOM     16  C   UNL     1      29.485  22.869  12.749  0.00  0.00    +0.000 C 
ATOM     17  O   UNL     1      29.477  23.711  11.812  0.00  0.00    +0.000 OA
ATOM     18  N   UNL     1      30.170  21.661  12.559  0.00  0.00    +0.000 NA
BRANCH  16  20
ATOM     19  C   UNL     1      28.633  24.463  14.326  0.00  0.00    +0.000 C 
ATOM     20  O   UNL     1      28.835  23.118  13.946  0.00  0.00    +0.000 OA
ENDBRANCH  16  20
ENDBRANCH   1  18
TORSDOF 2
ENDMDL
MODEL 10
REMARK VINA RESULT:      -6.8     21.413     22.959
REMARK  Name = 
REMARK  2 active torsions:
REMARK  status: ('A' for Active; 'I' for Inactive)
REMARK    1  A    between atoms: O_2  and  C_3
REMARK    2  A    between atoms: N_5  and  C_6
REMARK                            x       y       z     vdW  Elec       q    Type
REMARK                         _______ _______ _______ _____ _____    ______ ____
ROOT
ATOM      1  C   UNL     1      23.361   2.657  17.172  0.00  0.00    +0.000 A 
ATOM      2  C   UNL     1      23.783   2.678  18.495  0.00  0.00    +0.000 A 
ATOM      3  C   UNL     1      24.815   3.498  18.904  0.00  0.00    +0.000 A 
ATOM      4  C   UNL     1      25.439   4.320  17.959  0.00  0.00    +0.000 A 
ATOM      5  C   UNL     1      24.996   4.277  16.652  0.00  0.00    +0.000 A 
ATOM      6  C   UNL     1      23.963   3.454  16.248  0.00  0.00    +0.000 A 
ATOM      7  N   UNL     1      25.480   5.018  15.534  0.00  0.00    +0.000 NA
ATOM      8  C   UNL     1      26.593   5.925  15.516  0.00  0.00    +0.000 A 
ATOM      9  C   UNL     1      26.553   6.745  14.413  0.00  0.00    +0.000 A 
ATOM     10  C   UNL     1      27.558   7.674  14.253  0.00  0.00    +0.000 A 
ATOM     11  C   UNL     1      28.572   7.761  15.193  0.00  0.00    +0.000 A 
ATOM     12  C   UNL     1      28.621   6.940  16.307  0.00  0.00    +0.000 A 
ATOM     13  C   UNL     1      27.610   6.008  16.465  0.00  0.00    +0.000 A 
ATOM     14  C   UNL     1      27.760   5.180  17.694  0.00  0.00    +0.000 C 
ATOM     15  C   UNL     1      26.519   5.140  18.528  0.00  0.00    +0.000 C 
ENDROOT
BRANCH   1  18
ATOM     16  C   UNL     1      20.962   1.973  17.287  0.00  0.00    +0.000 C 
ATOM     17  O   UNL     1      20.713   2.985  17.995  0.00  0.00    +0.000 OA
ATOM     18  N   UNL     1      22.278   1.767  16.850  0.00  0.00    +0.000 NA
BRANCH  16  20
ATOM     19  C   UNL     1      18.643   1.557  16.833  0.00  0.00    +0.000 C 
ATOM     20  O   UNL     1      19.966   1.075  16.940  0.00  0.00    +0.000 OA
ENDBRANCH  16  20
ENDBRANCH   1  18
TORSDOF 2
ENDMDL
