MODEL 1
REMARK VINA RESULT:      -7.1      0.000      0.000
REMARK  Name = 
REMARK  3 active torsions:
REMARK  status: ('A' for Active; 'I' for Inactive)
REMARK    1  A    between atoms: C_6  and  N_7
REMARK    2  A    between atoms: C_8  and  C_10
REMARK    3  A    between atoms: C_13  and  N_14
REMARK                            x       y       z     vdW  Elec       q    Type
REMARK                         _______ _______ _______ _____ _____    ______ ____
ROOT
ATOM      1  N   UNL     1      15.717  11.051  35.598  0.00  0.00    +0.000 NA
ATOM      2  C   UNL     1      16.803  11.457  36.415  0.00  0.00    +0.000 C 
ATOM      3  O   UNL     1      17.343  12.557  36.156  0.00  0.00    +0.000 OA
ENDROOT
BRANCH   1   9
ATOM      4  C   UNL     1      13.876  14.114  31.173  0.00  0.00    +0.000 C 
ATOM      5  C   UNL     1      14.332  13.336  32.354  0.00  0.00    +0.000 A 
ATOM      6  C   UNL     1      15.272  12.363  32.154  0.00  0.00    +0.000 A 
ATOM      7  C   UNL     1      15.705  11.633  33.237  0.00  0.00    +0.000 A 
ATOM      8  C   UNL     1      16.724  10.575  33.030  0.00  0.00    +0.000 C 
ATOM      9  C   UNL     1      15.231  11.839  34.517  0.00  0.00    +0.000 A 
ATOM     10  C   UNL     1      14.286  12.814  34.725  0.00  0.00    +0.000 A 
ATOM     11  C   UNL     1      13.759  13.057  36.094  0.00  0.00    +0.000 C 
ATOM     12  C   UNL     1      13.844  13.558  33.626  0.00  0.00    +0.000 A 
ENDBRANCH   1   9
BRANCH   2  13
ATOM     13  C   UNL     1      17.237  10.588  37.504  0.00  0.00    +0.000 A 
ATOM     14  C   UNL     1      18.396   9.843  37.430  0.00  0.00    +0.000 A 
ATOM     15  C   UNL     1      18.806   9.021  38.460  0.00  0.00    +0.000 A 
ATOM     16  C   UNL     1      18.076   8.899  39.622  0.00  0.00    +0.000 A 
ATOM     17  C   UNL     1      16.915   9.638  39.705  0.00  0.00    +0.000 A 
ATOM     18  C   UNL     1      16.512  10.458  38.672  0.00  0.00    +0.000 A 
BRANCH  16  19
ATOM     19  N   UNL     1      18.484   8.054  40.697  0.00  0.00    +0.000 N 
ATOM     20  O   UNL     1      18.033   6.897  40.800  0.00  0.00    +0.000 OA
ATOM     21  O   UNL     1      19.368   8.497  41.621  0.00  0.00    +0.000 OA
ENDBRANCH  16  19
ENDBRANCH   2  13
TORSDOF 3
ENDMDL
MODEL 2
REMARK VINA RESULT:      -7.1      0.167      2.112
REMARK  Name = 
REMARK  3 active torsions:
REMARK  status: ('A' for Active; 'I' for Inactive)
REMARK    1  A    between atoms: C_6  and  N_7
REMARK    2  A    between atoms: C_8  and  C_10
REMARK    3  A    between atoms: C_13  and  N_14
REMARK                            x       y       z     vdW  Elec       q    Type
REMARK                         _______ _______ _______ _____ _____    ______ ____
ROOT
ATOM      1  N   UNL     1      15.773  10.956  35.665  0.00  0.00    +0.000 NA
ATOM      2  C   UNL     1      16.858  11.351  36.489  0.00  0.00    +0.000 C 
ATOM      3  O   UNL     1      17.423  12.437  36.222  0.00  0.00    +0.000 OA
ENDROOT
BRANCH   1   9
ATOM      4  C   UNL     1      13.845  14.167  31.385  0.00  0.00    +0.000 C 
ATOM      5  C   UNL     1      14.373  13.308  32.476  0.00  0.00    +0.000 A 
ATOM      6  C   UNL     1      13.883  13.504  33.738  0.00  0.00    +0.000 A 
ATOM      7  C   UNL     1      14.361  12.717  34.760  0.00  0.00    +0.000 A 
ATOM      8  C   UNL     1      13.836  12.922  36.132  0.00  0.00    +0.000 C 
ATOM      9  C   UNL     1      15.316  11.739  34.568  0.00  0.00    +0.000 A 
ATOM     10  C   UNL     1      15.814  11.537  33.304  0.00  0.00    +0.000 A 
ATOM     11  C   UNL     1      16.843  10.490  33.070  0.00  0.00    +0.000 C 
ATOM     12  C   UNL     1      15.329  12.335  32.262  0.00  0.00    +0.000 A 
ENDBRANCH   1   9
BRANCH   2  13
ATOM     13  C   UNL     1      17.262  10.488  37.595  0.00  0.00    +0.000 A 
ATOM     14  C   UNL     1      16.536  10.409  38.765  0.00  0.00    +0.000 A 
ATOM     15  C   UNL     1      16.918   9.593  39.811  0.00  0.00    +0.000 A 
ATOM     16  C   UNL     1      18.050   8.811  39.741  0.00  0.00    +0.000 A 
ATOM     17  C   UNL     1      18.783   8.884  38.576  0.00  0.00    +0.000 A 
ATOM     18  C   UNL     1      18.395   9.701  37.535  0.00  0.00    +0.000 A 
BRANCH  16  19
ATOM     19  N   UNL     1      18.460   7.962  40.812  0.00  0.00    +0.000 N 
ATOM     20  O   UNL     1      18.199   6.743  40.790  0.00  0.00    +0.000 OA
ATOM     21  O   UNL     1      19.139   8.466  41.869  0.00  0.00    +0.000 OA
ENDBRANCH  16  19
ENDBRANCH   2  13
TORSDOF 3
ENDMDL
MODEL 3
REMARK VINA RESULT:      -6.6      2.658      7.846
REMARK  Name = 
REMARK  3 active torsions:
REMARK  status: ('A' for Active; 'I' for Inactive)
REMARK    1  A    between atoms: C_6  and  N_7
REMARK    2  A    between atoms: C_8  and  C_10
REMARK    3  A    between atoms: C_13  and  N_14
REMARK                            x       y       z     vdW  Elec       q    Type
REMARK                         _______ _______ _______ _____ _____    ______ ____
ROOT
ATOM      1  N   UNL     1      17.927  10.611  37.053  0.00  0.00    +0.000 NA
ATOM      2  C   UNL     1      17.459   9.849  35.952  0.00  0.00    +0.000 C 
ATOM      3  O   UNL     1      17.666   8.613  35.973  0.00  0.00    +0.000 OA
ENDROOT
BRANCH   1   9
ATOM      4  C   UNL     1      20.799   8.284  41.376  0.00  0.00    +0.000 C 
ATOM      5  C   UNL     1      20.014   8.890  40.270  0.00  0.00    +0.000 A 
ATOM      6  C   UNL     1      20.676   9.202  39.114  0.00  0.00    +0.000 A 
ATOM      7  C   UNL     1      19.963   9.764  38.079  0.00  0.00    +0.000 A 
ATOM      8  C   UNL     1      20.671  10.105  36.820  0.00  0.00    +0.000 C 
ATOM      9  C   UNL     1      18.610  10.028  38.157  0.00  0.00    +0.000 A 
ATOM     10  C   UNL     1      17.940   9.718  39.315  0.00  0.00    +0.000 A 
ATOM     11  C   UNL     1      16.483   9.991  39.426  0.00  0.00    +0.000 C 
ATOM     12  C   UNL     1      18.661   9.147  40.369  0.00  0.00    +0.000 A 
ENDBRANCH   1   9
BRANCH   2  13
ATOM     13  C   UNL     1      16.767  10.527  34.861  0.00  0.00    +0.000 A 
ATOM     14  C   UNL     1      15.791  11.476  35.090  0.00  0.00    +0.000 A 
ATOM     15  C   UNL     1      15.136  12.117  34.058  0.00  0.00    +0.000 A 
ATOM     16  C   UNL     1      15.423  11.844  32.739  0.00  0.00    +0.000 A 
ATOM     17  C   UNL     1      16.397  10.897  32.500  0.00  0.00    +0.000 A 
ATOM     18  C   UNL     1      17.047  10.260  33.536  0.00  0.00    +0.000 A 
BRANCH  16  19
ATOM     19  N   UNL     1      14.757  12.497  31.659  0.00  0.00    +0.000 N 
ATOM     20  O   UNL     1      14.649  11.939  30.551  0.00  0.00    +0.000 OA
ATOM     21  O   UNL     1      14.232  13.734  31.824  0.00  0.00    +0.000 OA
ENDBRANCH  16  19
ENDBRANCH   2  13
TORSDOF 3
ENDMDL
MODEL 4
REMARK VINA RESULT:      -6.5      2.761      7.949
REMARK  Name = 
REMARK  3 active torsions:
REMARK  status: ('A' for Active; 'I' for Inactive)
REMARK    1  A    between atoms: C_6  and  N_7
REMARK    2  A    between atoms: C_8  and  C_10
REMARK    3  A    between atoms: C_13  and  N_14
REMARK                            x       y       z     vdW  Elec       q    Type
REMARK                         _______ _______ _______ _____ _____    ______ ____
ROOT
ATOM      1  N   UNL     1      17.939  11.016  37.789  0.00  0.00    +0.000 NA
ATOM      2  C   UNL     1      17.893  10.193  36.635  0.00  0.00    +0.000 C 
ATOM      3  O   UNL     1      18.537   9.119  36.663  0.00  0.00    +0.000 OA
ENDROOT
BRANCH   1   9
ATOM      4  C   UNL     1      20.759   9.539  42.503  0.00  0.00    +0.000 C 
ATOM      5  C   UNL     1      20.057   9.944  41.258  0.00  0.00    +0.000 A 
ATOM      6  C   UNL     1      18.749   9.572  41.112  0.00  0.00    +0.000 A 
ATOM      7  C   UNL     1      18.084   9.939  39.965  0.00  0.00    +0.000 A 
ATOM      8  C   UNL     1      16.664   9.540  39.797  0.00  0.00    +0.000 C 
ATOM      9  C   UNL     1      18.679  10.666  38.954  0.00  0.00    +0.000 A 
ATOM     10  C   UNL     1      19.992  11.043  39.093  0.00  0.00    +0.000 A 
ATOM     11  C   UNL     1      20.658  11.827  38.019  0.00  0.00    +0.000 C 
ATOM     12  C   UNL     1      20.672  10.671  40.258  0.00  0.00    +0.000 A 
ENDBRANCH   1   9
BRANCH   2  13
ATOM     13  C   UNL     1      17.109  10.628  35.483  0.00  0.00    +0.000 A 
ATOM     14  C   UNL     1      16.017  11.462  35.613  0.00  0.00    +0.000 A 
ATOM     15  C   UNL     1      15.276  11.873  34.524  0.00  0.00    +0.000 A 
ATOM     16  C   UNL     1      15.587  11.471  33.244  0.00  0.00    +0.000 A 
ATOM     17  C   UNL     1      16.677  10.637  33.104  0.00  0.00    +0.000 A 
ATOM     18  C   UNL     1      17.413  10.231  34.197  0.00  0.00    +0.000 A 
BRANCH  16  19
ATOM     19  N   UNL     1      14.832  11.886  32.106  0.00  0.00    +0.000 N 
ATOM     20  O   UNL     1      14.295  13.010  32.078  0.00  0.00    +0.000 OA
ATOM     21  O   UNL     1      14.688  11.065  31.040  0.00  0.00    +0.000 OA
ENDBRANCH  16  19
ENDBRANCH   2  13
TORSDOF 3
ENDMDL
MODEL 5
REMARK VINA RESULT:      -6.4     18.916     21.072
REMARK  Name = 
REMARK  3 active torsions:
REMARK  status: ('A' for Active; 'I' for Inactive)
REMARK    1  A    between atoms: C_6  and  N_7
REMARK    2  A    between atoms: C_8  and  C_10
REMARK    3  A    between atoms: C_13  and  N_14
REMARK                            x       y       z     vdW  Elec       q    Type
REMARK                         _______ _______ _______ _____ _____    ______ ____
ROOT
ATOM      1  N   UNL     1      33.889   0.295  34.761  0.00  0.00    +0.000 NA
ATOM      2  C   UNL     1      32.688  -0.450  34.631  0.00  0.00    +0.000 C 
ATOM      3  O   UNL     1      31.607   0.178  34.704  0.00  0.00    +0.000 OA
ENDROOT
BRANCH   1   9
ATOM      4  C   UNL     1      33.935   5.944  35.421  0.00  0.00    +0.000 C 
ATOM      5  C   UNL     1      33.925   4.464  35.290  0.00  0.00    +0.000 A 
ATOM      6  C   UNL     1      33.874   3.935  34.030  0.00  0.00    +0.000 A 
ATOM      7  C   UNL     1      33.864   2.566  33.891  0.00  0.00    +0.000 A 
ATOM      8  C   UNL     1      33.809   1.981  32.528  0.00  0.00    +0.000 C 
ATOM      9  C   UNL     1      33.902   1.703  34.968  0.00  0.00    +0.000 A 
ATOM     10  C   UNL     1      33.952   2.228  36.236  0.00  0.00    +0.000 A 
ATOM     11  C   UNL     1      33.994   1.321  37.414  0.00  0.00    +0.000 C 
ATOM     12  C   UNL     1      33.963   3.619  36.381  0.00  0.00    +0.000 A 
ENDBRANCH   1   9
BRANCH   2  13
ATOM     13  C   UNL     1      32.765  -1.891  34.421  0.00  0.00    +0.000 A 
ATOM     14  C   UNL     1      32.047  -2.784  35.190  0.00  0.00    +0.000 A 
ATOM     15  C   UNL     1      32.121  -4.148  34.991  0.00  0.00    +0.000 A 
ATOM     16  C   UNL     1      32.919  -4.693  34.010  0.00  0.00    +0.000 A 
ATOM     17  C   UNL     1      33.641  -3.810  33.236  0.00  0.00    +0.000 A 
ATOM     18  C   UNL     1      33.562  -2.448  33.440  0.00  0.00    +0.000 A 
BRANCH  16  19
ATOM     19  N   UNL     1      33.007  -6.100  33.789  0.00  0.00    +0.000 N 
ATOM     20  O   UNL     1      33.925  -6.766  34.307  0.00  0.00    +0.000 OA
ATOM     21  O   UNL     1      32.095  -6.733  33.015  0.00  0.00    +0.000 OA
ENDBRANCH  16  19
ENDBRANCH   2  13
TORSDOF 3
ENDMDL
MODEL 6
REMARK VINA RESULT:      -6.3     19.621     22.482
REMARK  Name = 
REMARK  3 active torsions:
REMARK  status: ('A' for Active; 'I' for Inactive)
REMARK    1  A    between atoms: C_6  and  N_7
REMARK    2  A    between atoms: C_8  and  C_10
REMARK    3  A    between atoms: C_13  and  N_14
REMARK                            x       y       z     vdW  Elec       q    Type
REMARK                         _______ _______ _______ _____ _____    ______ ____
ROOT
ATOM      1  N   UNL     1      27.962  24.485  25.796  0.00  0.00    +0.000 NA
ATOM      2  C   UNL     1      27.550  24.085  24.499  0.00  0.00    +0.000 C 
ATOM      3  O   UNL     1      26.780  23.101  24.414  0.00  0.00    +0.000 OA
ENDROOT
BRANCH   1   9
ATOM      4  C   UNL     1      26.390  21.716  30.509  0.00  0.00    +0.000 C 
ATOM      5  C   UNL     1      26.767  22.464  29.282  0.00  0.00    +0.000 A 
ATOM      6  C   UNL     1      27.902  22.078  28.622  0.00  0.00    +0.000 A 
ATOM      7  C   UNL     1      28.265  22.760  27.484  0.00  0.00    +0.000 A 
ATOM      8  C   UNL     1      29.494  22.351  26.761  0.00  0.00    +0.000 C 
ATOM      9  C   UNL     1      27.535  23.818  26.978  0.00  0.00    +0.000 A 
ATOM     10  C   UNL     1      26.395  24.210  27.636  0.00  0.00    +0.000 A 
ATOM     11  C   UNL     1      25.590  25.346  27.113  0.00  0.00    +0.000 C 
ATOM     12  C   UNL     1      26.023  23.519  28.794  0.00  0.00    +0.000 A 
ENDBRANCH   1   9
BRANCH   2  13
ATOM     13  C   UNL     1      28.035  24.827  23.340  0.00  0.00    +0.000 A 
ATOM     14  C   UNL     1      27.631  26.120  23.076  0.00  0.00    +0.000 A 
ATOM     15  C   UNL     1      28.090  26.821  21.979  0.00  0.00    +0.000 A 
ATOM     16  C   UNL     1      28.978  26.265  21.085  0.00  0.00    +0.000 A 
ATOM     17  C   UNL     1      29.387  24.973  21.339  0.00  0.00    +0.000 A 
ATOM     18  C   UNL     1      28.925  24.278  22.438  0.00  0.00    +0.000 A 
BRANCH  16  19
ATOM     19  N   UNL     1      29.463  26.975  19.945  0.00  0.00    +0.000 N 
ATOM     20  O   UNL     1      29.198  28.183  19.793  0.00  0.00    +0.000 OA
ATOM     21  O   UNL     1      30.217  26.347  19.014  0.00  0.00    +0.000 OA
ENDBRANCH  16  19
ENDBRANCH   2  13
TORSDOF 3
ENDMDL
MODEL 7
REMARK VINA RESULT:      -6.3     19.803     22.698
REMARK  Name = 
REMARK  3 active torsions:
REMARK  status: ('A' for Active; 'I' for Inactive)
REMARK    1  A    between atoms: C_6  and  N_7
REMARK    2  A    between atoms: C_8  and  C_10
REMARK    3  A    between atoms: C_13  and  N_14
REMARK                            x       y       z     vdW  Elec       q    Type
REMARK                         _______ _______ _______ _____ _____    ______ ____
ROOT
ATOM      1  N   UNL     1      28.184  24.479  25.705  0.00  0.00    +0.000 NA
ATOM      2  C   UNL     1      27.763  24.106  24.403  0.00  0.00    +0.000 C 
ATOM      3  O   UNL     1      26.980  23.133  24.304  0.00  0.00    +0.000 OA
ENDROOT
BRANCH   1   9
ATOM      4  C   UNL     1      26.335  21.857  30.402  0.00  0.00    +0.000 C 
ATOM      5  C   UNL     1      26.850  22.516  29.173  0.00  0.00    +0.000 A 
ATOM      6  C   UNL     1      26.155  23.587  28.684  0.00  0.00    +0.000 A 
ATOM      7  C   UNL     1      26.619  24.208  27.547  0.00  0.00    +0.000 A 
ATOM      8  C   UNL     1      25.873  25.372  27.007  0.00  0.00    +0.000 C 
ATOM      9  C   UNL     1      27.754  23.797  26.877  0.00  0.00    +0.000 A 
ATOM     10  C   UNL     1      28.456  22.721  27.363  0.00  0.00    +0.000 A 
ATOM     11  C   UNL     1      29.683  22.257  26.662  0.00  0.00    +0.000 C 
ATOM     12  C   UNL     1      27.988  22.087  28.519  0.00  0.00    +0.000 A 
ENDBRANCH   1   9
BRANCH   2  13
ATOM     13  C   UNL     1      28.253  24.861  23.254  0.00  0.00    +0.000 A 
ATOM     14  C   UNL     1      28.083  26.227  23.149  0.00  0.00    +0.000 A 
ATOM     15  C   UNL     1      28.546  26.940  22.062  0.00  0.00    +0.000 A 
ATOM     16  C   UNL     1      29.205  26.325  21.020  0.00  0.00    +0.000 A 
ATOM     17  C   UNL     1      29.379  24.961  21.116  0.00  0.00    +0.000 A 
ATOM     18  C   UNL     1      28.914  24.254  22.205  0.00  0.00    +0.000 A 
BRANCH  16  19
ATOM     19  N   UNL     1      29.690  27.048  19.889  0.00  0.00    +0.000 N 
ATOM     20  O   UNL     1      30.191  26.445  18.920  0.00  0.00    +0.000 OA
ATOM     21  O   UNL     1      29.614  28.398  19.852  0.00  0.00    +0.000 OA
ENDBRANCH  16  19
ENDBRANCH   2  13
TORSDOF 3
ENDMDL
MODEL 8
REMARK VINA RESULT:      -6.2     19.460     20.646
REMARK  Name = 
REMARK  3 active torsions:
REMARK  status: ('A' for Active; 'I' for Inactive)
REMARK    1  A    between atoms: C_6  and  N_7
REMARK    2  A    between atoms: C_8  and  C_10
REMARK    3  A    between atoms: C_13  and  N_14
REMARK                            x       y       z     vdW  Elec       q    Type
REMARK                         _______ _______ _______ _____ _____    ______ ____
ROOT
ATOM      1  N   UNL     1      30.492  22.109  27.155  0.00  0.00    +0.000 NA
ATOM      2  C   UNL     1      31.103  23.062  28.010  0.00  0.00    +0.000 C 
ATOM      3  O   UNL     1      30.755  24.259  27.886  0.00  0.00    +0.000 OA
ENDROOT
BRANCH   1   9
ATOM      4  C   UNL     1      26.472  23.505  23.381  0.00  0.00    +0.000 C 
ATOM      5  C   UNL     1      27.551  23.146  24.337  0.00  0.00    +0.000 A 
ATOM      6  C   UNL     1      27.189  22.819  25.615  0.00  0.00    +0.000 A 
ATOM      7  C   UNL     1      28.176  22.484  26.514  0.00  0.00    +0.000 A 
ATOM      8  C   UNL     1      27.794  22.129  27.902  0.00  0.00    +0.000 C 
ATOM      9  C   UNL     1      29.516  22.464  26.182  0.00  0.00    +0.000 A 
ATOM     10  C   UNL     1      29.886  22.791  24.900  0.00  0.00    +0.000 A 
ATOM     11  C   UNL     1      31.323  22.777  24.516  0.00  0.00    +0.000 C 
ATOM     12  C   UNL     1      28.885  23.133  23.984  0.00  0.00    +0.000 A 
ENDBRANCH   1   9
BRANCH   2  13
ATOM     13  C   UNL     1      32.095  22.612  28.981  0.00  0.00    +0.000 A 
ATOM     14  C   UNL     1      31.820  21.625  29.905  0.00  0.00    +0.000 A 
ATOM     15  C   UNL     1      32.759  21.200  30.824  0.00  0.00    +0.000 A 
ATOM     16  C   UNL     1      34.025  21.741  30.867  0.00  0.00    +0.000 A 
ATOM     17  C   UNL     1      34.309  22.728  29.948  0.00  0.00    +0.000 A 
ATOM     18  C   UNL     1      33.366  23.148  29.033  0.00  0.00    +0.000 A 
BRANCH  16  19
ATOM     19  N   UNL     1      35.007  21.313  31.810  0.00  0.00    +0.000 N 
ATOM     20  O   UNL     1      34.858  20.250  32.442  0.00  0.00    +0.000 OA
ATOM     21  O   UNL     1      36.117  22.056  32.031  0.00  0.00    +0.000 OA
ENDBRANCH  16  19
ENDBRANCH   2  13
TORSDOF 3
ENDMDL
MODEL 9
REMARK VINA RESULT:      -6.2     18.374     19.725
REMARK  Name = 
REMARK  3 active torsions:
REMARK  status: ('A' for Active; 'I' for Inactive)
REMARK    1  A    between atoms: C_6  and  N_7
REMARK    2  A    between atoms: C_8  and  C_10
REMARK    3  A    between atoms: C_13  and  N_14
REMARK                            x       y       z     vdW  Elec       q    Type
REMARK                         _______ _______ _______ _____ _____    ______ ____
ROOT
ATOM      1  N   UNL     1      29.079  22.461  26.829  0.00  0.00    +0.000 NA
ATOM      2  C   UNL     1      29.592  23.385  27.776  0.00  0.00    +0.000 C 
ATOM      3  O   UNL     1      29.617  24.594  27.450  0.00  0.00    +0.000 OA
ENDROOT
BRANCH   1   9
ATOM      4  C   UNL     1      27.025  24.069  21.775  0.00  0.00    +0.000 C 
ATOM      5  C   UNL     1      27.599  23.644  23.078  0.00  0.00    +0.000 A 
ATOM      6  C   UNL     1      26.766  23.611  24.163  0.00  0.00    +0.000 A 
ATOM      7  C   UNL     1      27.282  23.219  25.377  0.00  0.00    +0.000 A 
ATOM      8  C   UNL     1      26.388  23.181  26.560  0.00  0.00    +0.000 C 
ATOM      9  C   UNL     1      28.603  22.858  25.548  0.00  0.00    +0.000 A 
ATOM     10  C   UNL     1      29.445  22.889  24.463  0.00  0.00    +0.000 A 
ATOM     11  C   UNL     1      30.873  22.504  24.620  0.00  0.00    +0.000 C 
ATOM     12  C   UNL     1      28.924  23.287  23.227  0.00  0.00    +0.000 A 
ENDBRANCH   1   9
BRANCH   2  13
ATOM     13  C   UNL     1      30.059  22.893  29.068  0.00  0.00    +0.000 A 
ATOM     14  C   UNL     1      31.330  22.382  29.242  0.00  0.00    +0.000 A 
ATOM     15  C   UNL     1      31.771  21.917  30.464  0.00  0.00    +0.000 A 
ATOM     16  C   UNL     1      30.964  21.936  31.580  0.00  0.00    +0.000 A 
ATOM     17  C   UNL     1      29.692  22.443  31.416  0.00  0.00    +0.000 A 
ATOM     18  C   UNL     1      29.258  22.907  30.192  0.00  0.00    +0.000 A 
BRANCH  16  19
ATOM     19  N   UNL     1      31.404  21.458  32.851  0.00  0.00    +0.000 N 
ATOM     20  O   UNL     1      32.619  21.394  33.117  0.00  0.00    +0.000 OA
ATOM     21  O   UNL     1      30.507  21.069  33.786  0.00  0.00    +0.000 OA
ENDBRANCH  16  19
ENDBRANCH   2  13
TORSDOF 3
ENDMDL
MODEL 10
REMARK VINA RESULT:      -6.2      2.950      7.723
REMARK  Name = 
REMARK  3 active torsions:
REMARK  status: ('A' for Active; 'I' for Inactive)
REMARK    1  A    between atoms: C_6  and  N_7
REMARK    2  A    between atoms: C_8  and  C_10
REMARK    3  A    between atoms: C_13  and  N_14
REMARK                            x       y       z     vdW  Elec       q    Type
REMARK                         _______ _______ _______ _____ _____    ______ ____
ROOT
ATOM      1  N   UNL     1      18.442  10.565  38.736  0.00  0.00    +0.000 NA
ATOM      2  C   UNL     1      17.818  10.344  37.481  0.00  0.00    +0.000 C 
ATOM      3  O   UNL     1      18.413   9.608  36.661  0.00  0.00    +0.000 OA
ENDROOT
BRANCH   1   9
ATOM      4  C   UNL     1      23.371   8.125  40.187  0.00  0.00    +0.000 C 
ATOM      5  C   UNL     1      22.104   8.796  39.794  0.00  0.00    +0.000 A 
ATOM      6  C   UNL     1      20.930   8.141  40.047  0.00  0.00    +0.000 A 
ATOM      7  C   UNL     1      19.748   8.748  39.689  0.00  0.00    +0.000 A 
ATOM      8  C   UNL     1      18.469   8.047  39.958  0.00  0.00    +0.000 C 
ATOM      9  C   UNL     1      19.695   9.988  39.084  0.00  0.00    +0.000 A 
ATOM     10  C   UNL     1      20.871  10.650  38.827  0.00  0.00    +0.000 A 
ATOM     11  C   UNL     1      20.842  11.988  38.177  0.00  0.00    +0.000 C 
ATOM     12  C   UNL     1      22.074  10.037  39.189  0.00  0.00    +0.000 A 
ENDBRANCH   1   9
BRANCH   2  13
ATOM     13  C   UNL     1      16.531  10.975  37.207  0.00  0.00    +0.000 A 
ATOM     14  C   UNL     1      16.312  11.727  36.071  0.00  0.00    +0.000 A 
ATOM     15  C   UNL     1      15.094  12.324  35.812  0.00  0.00    +0.000 A 
ATOM     16  C   UNL     1      14.029  12.200  36.677  0.00  0.00    +0.000 A 
ATOM     17  C   UNL     1      14.239  11.450  37.815  0.00  0.00    +0.000 A 
ATOM     18  C   UNL     1      15.458  10.857  38.067  0.00  0.00    +0.000 A 
BRANCH  16  19
ATOM     19  N   UNL     1      12.763  12.809  36.425  0.00  0.00    +0.000 N 
ATOM     20  O   UNL     1      12.688  13.859  35.758  0.00  0.00    +0.000 OA
ATOM     21  O   UNL     1      11.626  12.256  36.906  0.00  0.00    +0.000 OA
ENDBRANCH  16  19
ENDBRANCH   2  13
TORSDOF 3
ENDMDL
