MODEL 1
REMARK VINA RESULT:      -7.9      0.000      0.000
REMARK  Name = 
REMARK  8 active torsions:
REMARK  status: ('A' for Active; 'I' for Inactive)
REMARK    1  A    between atoms: C_2  and  C_5
REMARK    2  A    between atoms: C_5  and  C_6
REMARK    3  A    between atoms: C_6  and  N_9
REMARK    4  A    between atoms: N_9  and  C_10
REMARK    5  A    between atoms: C_11  and  C_12
REMARK    6  A    between atoms: C_20  and  O_21
REMARK    7  A    between atoms: O_21  and  C_22
REMARK    8  A    between atoms: C_22  and  C_23
REMARK                            x       y       z     vdW  Elec       q    Type
REMARK                         _______ _______ _______ _____ _____    ______ ____
ROOT
ATOM      1  C   UNL     1      36.939  -0.144  15.399  0.00  0.00    +0.000 A 
ATOM      2  C   UNL     1      38.242  -0.020  14.990  0.00  0.00    +0.000 A 
ATOM      3  N   UNL     1      38.482   1.310  14.936  0.00  0.00    +0.000 NA
ATOM      4  C   UNL     1      37.379   1.984  15.297  0.00  0.00    +0.000 A 
ATOM      5  C   UNL     1      37.106   3.345  15.407  0.00  0.00    +0.000 A 
ATOM      6  C   UNL     1      35.857   3.745  15.808  0.00  0.00    +0.000 A 
ATOM      7  C   UNL     1      34.893   2.811  16.097  0.00  0.00    +0.000 A 
ATOM      8  C   UNL     1      35.183   1.486  15.982  0.00  0.00    +0.000 A 
ATOM      9  N   UNL     1      36.409   1.095  15.588  0.00  0.00    +0.000 N 
ENDROOT
BRANCH   2  10
ATOM     10  C   UNL     1      39.209  -1.078  14.666  0.00  0.00    +0.000 A 
ATOM     11  C   UNL     1      39.638  -1.983  15.622  0.00  0.00    +0.000 A 
ATOM     12  C   UNL     1      40.542  -2.985  15.345  0.00  0.00    +0.000 A 
ATOM     13  C   UNL     1      41.046  -3.098  14.069  0.00  0.00    +0.000 A 
ATOM     14  N   UNL     1      40.621  -2.215  13.150  0.00  0.00    +0.000 NA
ATOM     15  C   UNL     1      39.739  -1.231  13.401  0.00  0.00    +0.000 A 
ENDBRANCH   2  10
BRANCH   1  16
ATOM     16  N   UNL     1      36.269  -1.367  15.589  0.00  0.00    +0.000 NA
BRANCH  16  17
ATOM     17  C   UNL     1      35.935  -1.960  16.844  0.00  0.00    +0.000 C 
ATOM     18  C   UNL     1      34.441  -1.944  17.133  0.00  0.00    +0.000 C 
ATOM     19  C   UNL     1      36.730  -1.302  17.954  0.00  0.00    +0.000 C 
BRANCH  17  20
ATOM     20  C   UNL     1      36.337  -3.439  16.865  0.00  0.00    +0.000 C 
BRANCH  20  22
ATOM     21  C   UNL     1      34.362  -3.651  15.328  0.00  0.00    +0.000 C 
ATOM     22  C   UNL     1      35.800  -4.075  15.626  0.00  0.00    +0.000 C 
ATOM     23  C   UNL     1      36.635  -3.726  14.425  0.00  0.00    +0.000 C 
ATOM     24  C   UNL     1      35.783  -5.576  15.827  0.00  0.00    +0.000 C 
ENDBRANCH  20  22
ENDBRANCH  17  20
ENDBRANCH  16  17
ENDBRANCH   1  16
BRANCH   5  25
ATOM     25  O   UNL     1      38.069   4.293  15.119  0.00  0.00    +0.000 OA
BRANCH  25  26
ATOM     26  C   UNL     1      38.037   5.640  15.516  0.00  0.00    +0.000 C 
BRANCH  26  27
ATOM     27  C   UNL     1      39.013   5.834  16.610  0.00  0.00    +0.000 A 
ATOM     28  C   UNL     1      38.590   5.663  17.921  0.00  0.00    +0.000 A 
ATOM     29  C   UNL     1      39.420   5.828  18.994  0.00  0.00    +0.000 A 
ATOM     30  C   UNL     1      40.734   6.177  18.792  0.00  0.00    +0.000 A 
ATOM     31  C   UNL     1      41.184   6.354  17.501  0.00  0.00    +0.000 A 
ATOM     32  C   UNL     1      40.328   6.182  16.443  0.00  0.00    +0.000 A 
ENDBRANCH  26  27
ENDBRANCH  25  26
ENDBRANCH   5  25
TORSDOF 8
ENDMDL
MODEL 2
REMARK VINA RESULT:      -7.2      1.153      2.029
REMARK  Name = 
REMARK  8 active torsions:
REMARK  status: ('A' for Active; 'I' for Inactive)
REMARK    1  A    between atoms: C_2  and  C_5
REMARK    2  A    between atoms: C_5  and  C_6
REMARK    3  A    between atoms: C_6  and  N_9
REMARK    4  A    between atoms: N_9  and  C_10
REMARK    5  A    between atoms: C_11  and  C_12
REMARK    6  A    between atoms: C_20  and  O_21
REMARK    7  A    between atoms: O_21  and  C_22
REMARK    8  A    between atoms: C_22  and  C_23
REMARK                            x       y       z     vdW  Elec       q    Type
REMARK                         _______ _______ _______ _____ _____    ______ ____
ROOT
ATOM      1  C   UNL     1      37.336  -0.472  14.801  0.00  0.00    +0.000 A 
ATOM      2  C   UNL     1      38.651  -0.188  14.533  0.00  0.00    +0.000 A 
ATOM      3  N   UNL     1      38.846   1.078  14.963  0.00  0.00    +0.000 NA
ATOM      4  C   UNL     1      37.705   1.563  15.478  0.00  0.00    +0.000 A 
ATOM      5  C   UNL     1      37.379   2.792  16.044  0.00  0.00    +0.000 A 
ATOM      6  C   UNL     1      36.100   3.003  16.492  0.00  0.00    +0.000 A 
ATOM      7  C   UNL     1      35.158   2.011  16.382  0.00  0.00    +0.000 A 
ATOM      8  C   UNL     1      35.500   0.817  15.825  0.00  0.00    +0.000 A 
ATOM      9  N   UNL     1      36.755   0.612  15.386  0.00  0.00    +0.000 N 
ENDROOT
BRANCH   2  10
ATOM     10  C   UNL     1      39.667  -1.048  13.911  0.00  0.00    +0.000 A 
ATOM     11  C   UNL     1      40.962  -1.105  14.397  0.00  0.00    +0.000 A 
ATOM     12  C   UNL     1      41.934  -1.902  13.833  0.00  0.00    +0.000 A 
ATOM     13  C   UNL     1      41.614  -2.676  12.739  0.00  0.00    +0.000 A 
ATOM     14  N   UNL     1      40.354  -2.611  12.277  0.00  0.00    +0.000 NA
ATOM     15  C   UNL     1      39.392  -1.840  12.814  0.00  0.00    +0.000 A 
ENDBRANCH   2  10
BRANCH   1  16
ATOM     16  N   UNL     1      36.702  -1.695  14.513  0.00  0.00    +0.000 NA
BRANCH  16  17
ATOM     17  C   UNL     1      36.522  -2.786  15.416  0.00  0.00    +0.000 C 
ATOM     18  C   UNL     1      37.192  -4.069  14.942  0.00  0.00    +0.000 C 
ATOM     19  C   UNL     1      35.046  -2.992  15.689  0.00  0.00    +0.000 C 
BRANCH  17  20
ATOM     20  C   UNL     1      37.158  -2.474  16.775  0.00  0.00    +0.000 C 
BRANCH  20  22
ATOM     21  C   UNL     1      37.434  -4.964  16.941  0.00  0.00    +0.000 C 
ATOM     22  C   UNL     1      38.086  -3.593  17.111  0.00  0.00    +0.000 C 
ATOM     23  C   UNL     1      39.315  -3.564  16.245  0.00  0.00    +0.000 C 
ATOM     24  C   UNL     1      38.477  -3.469  18.569  0.00  0.00    +0.000 C 
ENDBRANCH  20  22
ENDBRANCH  17  20
ENDBRANCH  16  17
ENDBRANCH   1  16
BRANCH   5  25
ATOM     25  O   UNL     1      38.320   3.798  16.161  0.00  0.00    +0.000 OA
BRANCH  25  26
ATOM     26  C   UNL     1      38.061   5.120  16.555  0.00  0.00    +0.000 C 
BRANCH  26  27
ATOM     27  C   UNL     1      39.168   5.582  17.421  0.00  0.00    +0.000 A 
ATOM     28  C   UNL     1      40.367   5.957  16.829  0.00  0.00    +0.000 A 
ATOM     29  C   UNL     1      41.444   6.390  17.551  0.00  0.00    +0.000 A 
ATOM     30  C   UNL     1      41.360   6.466  18.921  0.00  0.00    +0.000 A 
ATOM     31  C   UNL     1      40.182   6.101  19.536  0.00  0.00    +0.000 A 
ATOM     32  C   UNL     1      39.117   5.670  18.788  0.00  0.00    +0.000 A 
ENDBRANCH  26  27
ENDBRANCH  25  26
ENDBRANCH   5  25
TORSDOF 8
ENDMDL
MODEL 3
REMARK VINA RESULT:      -7.1      2.622      3.616
REMARK  Name = 
REMARK  8 active torsions:
REMARK  status: ('A' for Active; 'I' for Inactive)
REMARK    1  A    between atoms: C_2  and  C_5
REMARK    2  A    between atoms: C_5  and  C_6
REMARK    3  A    between atoms: C_6  and  N_9
REMARK    4  A    between atoms: N_9  and  C_10
REMARK    5  A    between atoms: C_11  and  C_12
REMARK    6  A    between atoms: C_20  and  O_21
REMARK    7  A    between atoms: O_21  and  C_22
REMARK    8  A    between atoms: C_22  and  C_23
REMARK                            x       y       z     vdW  Elec       q    Type
REMARK                         _______ _______ _______ _____ _____    ______ ____
ROOT
ATOM      1  C   UNL     1      37.362  -0.616  15.176  0.00  0.00    +0.000 A 
ATOM      2  C   UNL     1      38.298  -0.086  14.325  0.00  0.00    +0.000 A 
ATOM      3  N   UNL     1      38.039   1.240  14.278  0.00  0.00    +0.000 NA
ATOM      4  C   UNL     1      36.989   1.525  15.064  0.00  0.00    +0.000 A 
ATOM      5  C   UNL     1      36.335   2.717  15.360  0.00  0.00    +0.000 A 
ATOM      6  C   UNL     1      35.266   2.697  16.219  0.00  0.00    +0.000 A 
ATOM      7  C   UNL     1      34.851   1.514  16.778  0.00  0.00    +0.000 A 
ATOM      8  C   UNL     1      35.507   0.361  16.474  0.00  0.00    +0.000 A 
ATOM      9  N   UNL     1      36.555   0.382  15.631  0.00  0.00    +0.000 N 
ENDROOT
BRANCH   2  10
ATOM     10  C   UNL     1      39.372  -0.775  13.597  0.00  0.00    +0.000 A 
ATOM     11  C   UNL     1      39.096  -1.718  12.622  0.00  0.00    +0.000 A 
ATOM     12  C   UNL     1      40.083  -2.378  11.923  0.00  0.00    +0.000 A 
ATOM     13  C   UNL     1      41.401  -2.096  12.201  0.00  0.00    +0.000 A 
ATOM     14  N   UNL     1      41.657  -1.179  13.149  0.00  0.00    +0.000 NA
ATOM     15  C   UNL     1      40.707  -0.524  13.840  0.00  0.00    +0.000 A 
ENDBRANCH   2  10
BRANCH   1  16
ATOM     16  N   UNL     1      37.263  -1.978  15.515  0.00  0.00    +0.000 NA
BRANCH  16  17
ATOM     17  C   UNL     1      37.921  -2.627  16.604  0.00  0.00    +0.000 C 
ATOM     18  C   UNL     1      37.792  -1.867  17.917  0.00  0.00    +0.000 C 
ATOM     19  C   UNL     1      39.370  -2.891  16.248  0.00  0.00    +0.000 C 
BRANCH  17  20
ATOM     20  C   UNL     1      37.299  -4.003  16.867  0.00  0.00    +0.000 C 
BRANCH  20  22
ATOM     21  C   UNL     1      35.064  -3.234  16.019  0.00  0.00    +0.000 C 
ATOM     22  C   UNL     1      36.223  -4.217  15.856  0.00  0.00    +0.000 C 
ATOM     23  C   UNL     1      36.750  -4.071  14.455  0.00  0.00    +0.000 C 
ATOM     24  C   UNL     1      35.652  -5.606  16.052  0.00  0.00    +0.000 C 
ENDBRANCH  20  22
ENDBRANCH  17  20
ENDBRANCH  16  17
ENDBRANCH   1  16
BRANCH   5  25
ATOM     25  O   UNL     1      36.744   3.915  14.804  0.00  0.00    +0.000 OA
BRANCH  25  26
ATOM     26  C   UNL     1      36.738   4.227  13.435  0.00  0.00    +0.000 C 
BRANCH  26  27
ATOM     27  C   UNL     1      35.712   5.264  13.190  0.00  0.00    +0.000 A 
ATOM     28  C   UNL     1      35.645   5.854  11.936  0.00  0.00    +0.000 A 
ATOM     29  C   UNL     1      34.734   6.825  11.622  0.00  0.00    +0.000 A 
ATOM     30  C   UNL     1      33.837   7.250  12.573  0.00  0.00    +0.000 A 
ATOM     31  C   UNL     1      33.879   6.681  13.828  0.00  0.00    +0.000 A 
ATOM     32  C   UNL     1      34.803   5.710  14.115  0.00  0.00    +0.000 A 
ENDBRANCH  26  27
ENDBRANCH  25  26
ENDBRANCH   5  25
TORSDOF 8
ENDMDL
MODEL 4
REMARK VINA RESULT:      -6.9      3.322      6.070
REMARK  Name = 
REMARK  8 active torsions:
REMARK  status: ('A' for Active; 'I' for Inactive)
REMARK    1  A    between atoms: C_2  and  C_5
REMARK    2  A    between atoms: C_5  and  C_6
REMARK    3  A    between atoms: C_6  and  N_9
REMARK    4  A    between atoms: N_9  and  C_10
REMARK    5  A    between atoms: C_11  and  C_12
REMARK    6  A    between atoms: C_20  and  O_21
REMARK    7  A    between atoms: O_21  and  C_22
REMARK    8  A    between atoms: C_22  and  C_23
REMARK                            x       y       z     vdW  Elec       q    Type
REMARK                         _______ _______ _______ _____ _____    ______ ____
ROOT
ATOM      1  C   UNL     1      39.194  -0.503  15.114  0.00  0.00    +0.000 A 
ATOM      2  C   UNL     1      39.594  -1.810  15.226  0.00  0.00    +0.000 A 
ATOM      3  N   UNL     1      40.789  -1.881  14.600  0.00  0.00    +0.000 NA
ATOM      4  C   UNL     1      41.121  -0.673  14.119  0.00  0.00    +0.000 A 
ATOM      5  C   UNL     1      42.228  -0.218  13.409  0.00  0.00    +0.000 A 
ATOM      6  C   UNL     1      42.291   1.103  13.043  0.00  0.00    +0.000 A 
ATOM      7  C   UNL     1      41.273   1.961  13.377  0.00  0.00    +0.000 A 
ATOM      8  C   UNL     1      40.200   1.493  14.072  0.00  0.00    +0.000 A 
ATOM      9  N   UNL     1      40.140   0.197  14.430  0.00  0.00    +0.000 N 
ENDROOT
BRANCH   2  10
ATOM     10  C   UNL     1      38.901  -2.930  15.879  0.00  0.00    +0.000 A 
ATOM     11  C   UNL     1      37.793  -3.528  15.306  0.00  0.00    +0.000 A 
ATOM     12  C   UNL     1      37.125  -4.579  15.896  0.00  0.00    +0.000 A 
ATOM     13  C   UNL     1      37.572  -5.060  17.107  0.00  0.00    +0.000 A 
ATOM     14  N   UNL     1      38.649  -4.471  17.653  0.00  0.00    +0.000 NA
ATOM     15  C   UNL     1      39.313  -3.445  17.092  0.00  0.00    +0.000 A 
ENDBRANCH   2  10
BRANCH   1  16
ATOM     16  N   UNL     1      37.993   0.018  15.630  0.00  0.00    +0.000 NA
BRANCH  16  17
ATOM     17  C   UNL     1      36.764   0.170  14.919  0.00  0.00    +0.000 C 
ATOM     18  C   UNL     1      36.902  -0.086  13.425  0.00  0.00    +0.000 C 
ATOM     19  C   UNL     1      36.171   1.536  15.202  0.00  0.00    +0.000 C 
BRANCH  17  20
ATOM     20  C   UNL     1      35.726  -0.844  15.411  0.00  0.00    +0.000 C 
BRANCH  20  22
ATOM     21  C   UNL     1      34.312  -1.409  17.408  0.00  0.00    +0.000 C 
ATOM     22  C   UNL     1      35.426  -0.532  16.840  0.00  0.00    +0.000 C 
ATOM     23  C   UNL     1      36.639  -0.719  17.708  0.00  0.00    +0.000 C 
ATOM     24  C   UNL     1      34.944   0.902  16.925  0.00  0.00    +0.000 C 
ENDBRANCH  20  22
ENDBRANCH  17  20
ENDBRANCH  16  17
ENDBRANCH   1  16
BRANCH   5  25
ATOM     25  O   UNL     1      43.260  -1.072  13.068  0.00  0.00    +0.000 OA
BRANCH  25  26
ATOM     26  C   UNL     1      44.630  -0.794  13.195  0.00  0.00    +0.000 C 
BRANCH  26  27
ATOM     27  C   UNL     1      45.050  -1.105  14.579  0.00  0.00    +0.000 A 
ATOM     28  C   UNL     1      45.160  -0.065  15.493  0.00  0.00    +0.000 A 
ATOM     29  C   UNL     1      45.547  -0.258  16.790  0.00  0.00    +0.000 A 
ATOM     30  C   UNL     1      45.843  -1.527  17.231  0.00  0.00    +0.000 A 
ATOM     31  C   UNL     1      45.741  -2.578  16.347  0.00  0.00    +0.000 A 
ATOM     32  C   UNL     1      45.351  -2.356  15.051  0.00  0.00    +0.000 A 
ENDBRANCH  26  27
ENDBRANCH  25  26
ENDBRANCH   5  25
TORSDOF 8
ENDMDL
MODEL 5
REMARK VINA RESULT:      -6.9      2.553      3.584
REMARK  Name = 
REMARK  8 active torsions:
REMARK  status: ('A' for Active; 'I' for Inactive)
REMARK    1  A    between atoms: C_2  and  C_5
REMARK    2  A    between atoms: C_5  and  C_6
REMARK    3  A    between atoms: C_6  and  N_9
REMARK    4  A    between atoms: N_9  and  C_10
REMARK    5  A    between atoms: C_11  and  C_12
REMARK    6  A    between atoms: C_20  and  O_21
REMARK    7  A    between atoms: O_21  and  C_22
REMARK    8  A    between atoms: C_22  and  C_23
REMARK                            x       y       z     vdW  Elec       q    Type
REMARK                         _______ _______ _______ _____ _____    ______ ____
ROOT
ATOM      1  C   UNL     1      37.441  -0.186  15.338  0.00  0.00    +0.000 A 
ATOM      2  C   UNL     1      38.212   0.254  14.292  0.00  0.00    +0.000 A 
ATOM      3  N   UNL     1      37.712   1.463  13.953  0.00  0.00    +0.000 NA
ATOM      4  C   UNL     1      36.677   1.765  14.752  0.00  0.00    +0.000 A 
ATOM      5  C   UNL     1      35.834   2.871  14.817  0.00  0.00    +0.000 A 
ATOM      6  C   UNL     1      34.840   2.898  15.761  0.00  0.00    +0.000 A 
ATOM      7  C   UNL     1      34.683   1.847  16.629  0.00  0.00    +0.000 A 
ATOM      8  C   UNL     1      35.519   0.776  16.547  0.00  0.00    +0.000 A 
ATOM      9  N   UNL     1      36.494   0.750  15.620  0.00  0.00    +0.000 N 
ENDROOT
BRANCH   2  10
ATOM     10  C   UNL     1      39.349  -0.415  13.645  0.00  0.00    +0.000 A 
ATOM     11  C   UNL     1      40.575  -0.533  14.277  0.00  0.00    +0.000 A 
ATOM     12  C   UNL     1      41.657  -1.155  13.694  0.00  0.00    +0.000 A 
ATOM     13  C   UNL     1      41.523  -1.683  12.429  0.00  0.00    +0.000 A 
ATOM     14  N   UNL     1      40.328  -1.563  11.826  0.00  0.00    +0.000 NA
ATOM     15  C   UNL     1      39.262  -0.959  12.379  0.00  0.00    +0.000 A 
ENDBRANCH   2  10
BRANCH   1  16
ATOM     16  N   UNL     1      37.614  -1.413  16.005  0.00  0.00    +0.000 NA
BRANCH  16  17
ATOM     17  C   UNL     1      37.001  -2.655  15.660  0.00  0.00    +0.000 C 
ATOM     18  C   UNL     1      37.726  -3.389  14.541  0.00  0.00    +0.000 C 
ATOM     19  C   UNL     1      35.538  -2.435  15.331  0.00  0.00    +0.000 C 
BRANCH  17  20
ATOM     20  C   UNL     1      37.019  -3.616  16.855  0.00  0.00    +0.000 C 
BRANCH  20  22
ATOM     21  C   UNL     1      39.473  -3.138  16.616  0.00  0.00    +0.000 C 
ATOM     22  C   UNL     1      38.315  -3.427  17.571  0.00  0.00    +0.000 C 
ATOM     23  C   UNL     1      38.239  -2.289  18.551  0.00  0.00    +0.000 C 
ATOM     24  C   UNL     1      38.652  -4.714  18.295  0.00  0.00    +0.000 C 
ENDBRANCH  20  22
ENDBRANCH  17  20
ENDBRANCH  16  17
ENDBRANCH   1  16
BRANCH   5  25
ATOM     25  O   UNL     1      35.983   3.936  13.948  0.00  0.00    +0.000 OA
BRANCH  25  26
ATOM     26  C   UNL     1      36.725   5.101  14.200  0.00  0.00    +0.000 C 
BRANCH  26  27
ATOM     27  C   UNL     1      35.803   6.258  14.207  0.00  0.00    +0.000 A 
ATOM     28  C   UNL     1      36.326   7.527  14.413  0.00  0.00    +0.000 A 
ATOM     29  C   UNL     1      35.549   8.651  14.441  0.00  0.00    +0.000 A 
ATOM     30  C   UNL     1      34.191   8.546  14.259  0.00  0.00    +0.000 A 
ATOM     31  C   UNL     1      33.643   7.299  14.051  0.00  0.00    +0.000 A 
ATOM     32  C   UNL     1      34.446   6.187  14.029  0.00  0.00    +0.000 A 
ENDBRANCH  26  27
ENDBRANCH  25  26
ENDBRANCH   5  25
TORSDOF 8
ENDMDL
MODEL 6
REMARK VINA RESULT:      -6.9      1.368      2.275
REMARK  Name = 
REMARK  8 active torsions:
REMARK  status: ('A' for Active; 'I' for Inactive)
REMARK    1  A    between atoms: C_2  and  C_5
REMARK    2  A    between atoms: C_5  and  C_6
REMARK    3  A    between atoms: C_6  and  N_9
REMARK    4  A    between atoms: N_9  and  C_10
REMARK    5  A    between atoms: C_11  and  C_12
REMARK    6  A    between atoms: C_20  and  O_21
REMARK    7  A    between atoms: O_21  and  C_22
REMARK    8  A    between atoms: C_22  and  C_23
REMARK                            x       y       z     vdW  Elec       q    Type
REMARK                         _______ _______ _______ _____ _____    ______ ____
ROOT
ATOM      1  C   UNL     1      37.634   0.267  14.567  0.00  0.00    +0.000 A 
ATOM      2  C   UNL     1      38.934   0.608  14.292  0.00  0.00    +0.000 A 
ATOM      3  N   UNL     1      39.098   1.851  14.796  0.00  0.00    +0.000 NA
ATOM      4  C   UNL     1      37.954   2.267  15.361  0.00  0.00    +0.000 A 
ATOM      5  C   UNL     1      37.603   3.448  16.009  0.00  0.00    +0.000 A 
ATOM      6  C   UNL     1      36.327   3.590  16.494  0.00  0.00    +0.000 A 
ATOM      7  C   UNL     1      35.414   2.577  16.340  0.00  0.00    +0.000 A 
ATOM      8  C   UNL     1      35.781   1.431  15.703  0.00  0.00    +0.000 A 
ATOM      9  N   UNL     1      37.032   1.293  15.229  0.00  0.00    +0.000 N 
ENDROOT
BRANCH   2  10
ATOM     10  C   UNL     1      39.963  -0.178  13.598  0.00  0.00    +0.000 A 
ATOM     11  C   UNL     1      39.820  -0.545  12.271  0.00  0.00    +0.000 A 
ATOM     12  C   UNL     1      40.770  -1.281  11.596  0.00  0.00    +0.000 A 
ATOM     13  C   UNL     1      41.909  -1.673  12.262  0.00  0.00    +0.000 A 
ATOM     14  N   UNL     1      42.036  -1.311  13.549  0.00  0.00    +0.000 NA
ATOM     15  C   UNL     1      41.121  -0.593  14.224  0.00  0.00    +0.000 A 
ENDBRANCH   2  10
BRANCH   1  16
ATOM     16  N   UNL     1      37.032  -0.956  14.216  0.00  0.00    +0.000 NA
BRANCH  16  17
ATOM     17  C   UNL     1      37.018  -2.147  15.002  0.00  0.00    +0.000 C 
ATOM     18  C   UNL     1      37.734  -3.312  14.333  0.00  0.00    +0.000 C 
ATOM     19  C   UNL     1      35.593  -2.503  15.375  0.00  0.00    +0.000 C 
BRANCH  17  20
ATOM     20  C   UNL     1      37.753  -1.927  16.330  0.00  0.00    +0.000 C 
BRANCH  20  22
ATOM     21  C   UNL     1      38.626  -3.309  18.236  0.00  0.00    +0.000 C 
ATOM     22  C   UNL     1      38.363  -3.228  16.733  0.00  0.00    +0.000 C 
ATOM     23  C   UNL     1      37.479  -4.387  16.362  0.00  0.00    +0.000 C 
ATOM     24  C   UNL     1      39.706  -3.360  16.044  0.00  0.00    +0.000 C 
ENDBRANCH  20  22
ENDBRANCH  17  20
ENDBRANCH  16  17
ENDBRANCH   1  16
BRANCH   5  25
ATOM     25  O   UNL     1      38.514   4.474  16.170  0.00  0.00    +0.000 OA
BRANCH  25  26
ATOM     26  C   UNL     1      38.307   5.644  16.917  0.00  0.00    +0.000 C 
BRANCH  26  27
ATOM     27  C   UNL     1      39.535   5.937  17.688  0.00  0.00    +0.000 A 
ATOM     28  C   UNL     1      39.457   5.995  19.073  0.00  0.00    +0.000 A 
ATOM     29  C   UNL     1      40.538   6.265  19.865  0.00  0.00    +0.000 A 
ATOM     30  C   UNL     1      41.765   6.492  19.288  0.00  0.00    +0.000 A 
ATOM     31  C   UNL     1      41.874   6.440  17.915  0.00  0.00    +0.000 A 
ATOM     32  C   UNL     1      40.773   6.168  17.145  0.00  0.00    +0.000 A 
ENDBRANCH  26  27
ENDBRANCH  25  26
ENDBRANCH   5  25
TORSDOF 8
ENDMDL
MODEL 7
REMARK VINA RESULT:      -6.8      3.274      5.547
REMARK  Name = 
REMARK  8 active torsions:
REMARK  status: ('A' for Active; 'I' for Inactive)
REMARK    1  A    between atoms: C_2  and  C_5
REMARK    2  A    between atoms: C_5  and  C_6
REMARK    3  A    between atoms: C_6  and  N_9
REMARK    4  A    between atoms: N_9  and  C_10
REMARK    5  A    between atoms: C_11  and  C_12
REMARK    6  A    between atoms: C_20  and  O_21
REMARK    7  A    between atoms: O_21  and  C_22
REMARK    8  A    between atoms: C_22  and  C_23
REMARK                            x       y       z     vdW  Elec       q    Type
REMARK                         _______ _______ _______ _____ _____    ______ ____
ROOT
ATOM      1  C   UNL     1      36.972   2.245  14.416  0.00  0.00    +0.000 A 
ATOM      2  C   UNL     1      36.021   2.164  15.402  0.00  0.00    +0.000 A 
ATOM      3  N   UNL     1      35.270   3.281  15.275  0.00  0.00    +0.000 NA
ATOM      4  C   UNL     1      35.730   4.024  14.257  0.00  0.00    +0.000 A 
ATOM      5  C   UNL     1      35.317   5.241  13.722  0.00  0.00    +0.000 A 
ATOM      6  C   UNL     1      35.999   5.768  12.655  0.00  0.00    +0.000 A 
ATOM      7  C   UNL     1      37.073   5.099  12.124  0.00  0.00    +0.000 A 
ATOM      8  C   UNL     1      37.458   3.909  12.664  0.00  0.00    +0.000 A 
ATOM      9  N   UNL     1      36.788   3.394  13.710  0.00  0.00    +0.000 N 
ENDROOT
BRANCH   2  10
ATOM     10  C   UNL     1      35.824   1.109  16.404  0.00  0.00    +0.000 A 
ATOM     11  C   UNL     1      35.259  -0.110  16.070  0.00  0.00    +0.000 A 
ATOM     12  C   UNL     1      35.064  -1.117  16.990  0.00  0.00    +0.000 A 
ATOM     13  C   UNL     1      35.442  -0.911  18.298  0.00  0.00    +0.000 A 
ATOM     14  N   UNL     1      35.989   0.275  18.610  0.00  0.00    +0.000 NA
ATOM     15  C   UNL     1      36.188   1.270  17.726  0.00  0.00    +0.000 A 
ENDBRANCH   2  10
BRANCH   1  16
ATOM     16  N   UNL     1      37.972   1.283  14.183  0.00  0.00    +0.000 NA
BRANCH  16  17
ATOM     17  C   UNL     1      37.967   0.292  13.156  0.00  0.00    +0.000 C 
ATOM     18  C   UNL     1      39.190   0.364  12.252  0.00  0.00    +0.000 C 
ATOM     19  C   UNL     1      36.678   0.375  12.364  0.00  0.00    +0.000 C 
BRANCH  17  20
ATOM     20  C   UNL     1      37.992  -1.116  13.763  0.00  0.00    +0.000 C 
BRANCH  20  22
ATOM     21  C   UNL     1      40.028   0.066  14.639  0.00  0.00    +0.000 C 
ATOM     22  C   UNL     1      39.158  -1.190  14.692  0.00  0.00    +0.000 C 
ATOM     23  C   UNL     1      38.713  -1.374  16.116  0.00  0.00    +0.000 C 
ATOM     24  C   UNL     1      40.035  -2.350  14.268  0.00  0.00    +0.000 C 
ENDBRANCH  20  22
ENDBRANCH  17  20
ENDBRANCH  16  17
ENDBRANCH   1  16
BRANCH   5  25
ATOM     25  O   UNL     1      34.236   5.924  14.248  0.00  0.00    +0.000 OA
BRANCH  25  26
ATOM     26  C   UNL     1      33.537   6.964  13.616  0.00  0.00    +0.000 C 
BRANCH  26  27
ATOM     27  C   UNL     1      33.773   8.217  14.365  0.00  0.00    +0.000 A 
ATOM     28  C   UNL     1      34.352   9.292  13.703  0.00  0.00    +0.000 A 
ATOM     29  C   UNL     1      34.612  10.485  14.317  0.00  0.00    +0.000 A 
ATOM     30  C   UNL     1      34.295  10.653  15.644  0.00  0.00    +0.000 A 
ATOM     31  C   UNL     1      33.718   9.604  16.327  0.00  0.00    +0.000 A 
ATOM     32  C   UNL     1      33.469   8.417  15.686  0.00  0.00    +0.000 A 
ENDBRANCH  26  27
ENDBRANCH  25  26
ENDBRANCH   5  25
TORSDOF 8
ENDMDL
MODEL 8
REMARK VINA RESULT:      -6.8      1.433      2.224
REMARK  Name = 
REMARK  8 active torsions:
REMARK  status: ('A' for Active; 'I' for Inactive)
REMARK    1  A    between atoms: C_2  and  C_5
REMARK    2  A    between atoms: C_5  and  C_6
REMARK    3  A    between atoms: C_6  and  N_9
REMARK    4  A    between atoms: N_9  and  C_10
REMARK    5  A    between atoms: C_11  and  C_12
REMARK    6  A    between atoms: C_20  and  O_21
REMARK    7  A    between atoms: O_21  and  C_22
REMARK    8  A    between atoms: C_22  and  C_23
REMARK                            x       y       z     vdW  Elec       q    Type
REMARK                         _______ _______ _______ _____ _____    ______ ____
ROOT
ATOM      1  C   UNL     1      38.070   0.432  14.499  0.00  0.00    +0.000 A 
ATOM      2  C   UNL     1      39.417   0.505  14.253  0.00  0.00    +0.000 A 
ATOM      3  N   UNL     1      39.780   1.765  14.579  0.00  0.00    +0.000 NA
ATOM      4  C   UNL     1      38.709   2.448  15.011  0.00  0.00    +0.000 A 
ATOM      5  C   UNL     1      38.548   3.756  15.459  0.00  0.00    +0.000 A 
ATOM      6  C   UNL     1      37.302   4.182  15.844  0.00  0.00    +0.000 A 
ATOM      7  C   UNL     1      36.231   3.325  15.787  0.00  0.00    +0.000 A 
ATOM      8  C   UNL     1      36.413   2.050  15.345  0.00  0.00    +0.000 A 
ATOM      9  N   UNL     1      37.635   1.634  14.969  0.00  0.00    +0.000 N 
ENDROOT
BRANCH   2  10
ATOM     10  C   UNL     1      40.315  -0.539  13.740  0.00  0.00    +0.000 A 
ATOM     11  C   UNL     1      41.118  -1.283  14.589  0.00  0.00    +0.000 A 
ATOM     12  C   UNL     1      41.968  -2.268  14.136  0.00  0.00    +0.000 A 
ATOM     13  C   UNL     1      42.029  -2.530  12.785  0.00  0.00    +0.000 A 
ATOM     14  N   UNL     1      41.246  -1.801  11.972  0.00  0.00    +0.000 NA
ATOM     15  C   UNL     1      40.410  -0.837  12.396  0.00  0.00    +0.000 A 
ENDBRANCH   2  10
BRANCH   1  16
ATOM     16  N   UNL     1      37.276  -0.711  14.295  0.00  0.00    +0.000 NA
BRANCH  16  17
ATOM     17  C   UNL     1      37.128  -1.808  15.196  0.00  0.00    +0.000 C 
ATOM     18  C   UNL     1      37.714  -3.106  14.658  0.00  0.00    +0.000 C 
ATOM     19  C   UNL     1      35.671  -1.968  15.581  0.00  0.00    +0.000 C 
BRANCH  17  20
ATOM     20  C   UNL     1      37.877  -1.537  16.506  0.00  0.00    +0.000 C 
BRANCH  20  22
ATOM     21  C   UNL     1      37.594  -1.725  18.994  0.00  0.00    +0.000 C 
ATOM     22  C   UNL     1      36.909  -1.716  17.629  0.00  0.00    +0.000 C 
ATOM     23  C   UNL     1      35.879  -0.620  17.644  0.00  0.00    +0.000 C 
ATOM     24  C   UNL     1      36.232  -3.061  17.467  0.00  0.00    +0.000 C 
ENDBRANCH  20  22
ENDBRANCH  17  20
ENDBRANCH  16  17
ENDBRANCH   1  16
BRANCH   5  25
ATOM     25  O   UNL     1      39.619   4.628  15.521  0.00  0.00    +0.000 OA
BRANCH  25  26
ATOM     26  C   UNL     1      39.553   5.982  15.884  0.00  0.00    +0.000 C 
BRANCH  26  27
ATOM     27  C   UNL     1      40.210   6.153  17.198  0.00  0.00    +0.000 A 
ATOM     28  C   UNL     1      39.438   6.061  18.348  0.00  0.00    +0.000 A 
ATOM     29  C   UNL     1      39.959   6.211  19.603  0.00  0.00    +0.000 A 
ATOM     30  C   UNL     1      41.302   6.464  19.758  0.00  0.00    +0.000 A 
ATOM     31  C   UNL     1      42.094   6.560  18.634  0.00  0.00    +0.000 A 
ATOM     32  C   UNL     1      41.544   6.406  17.387  0.00  0.00    +0.000 A 
ENDBRANCH  26  27
ENDBRANCH  25  26
ENDBRANCH   5  25
TORSDOF 8
ENDMDL
MODEL 9
REMARK VINA RESULT:      -6.8      1.891      4.216
REMARK  Name = 
REMARK  8 active torsions:
REMARK  status: ('A' for Active; 'I' for Inactive)
REMARK    1  A    between atoms: C_2  and  C_5
REMARK    2  A    between atoms: C_5  and  C_6
REMARK    3  A    between atoms: C_6  and  N_9
REMARK    4  A    between atoms: N_9  and  C_10
REMARK    5  A    between atoms: C_11  and  C_12
REMARK    6  A    between atoms: C_20  and  O_21
REMARK    7  A    between atoms: O_21  and  C_22
REMARK    8  A    between atoms: C_22  and  C_23
REMARK                            x       y       z     vdW  Elec       q    Type
REMARK                         _______ _______ _______ _____ _____    ______ ____
ROOT
ATOM      1  C   UNL     1      37.346   1.624  14.745  0.00  0.00    +0.000 A 
ATOM      2  C   UNL     1      36.862   1.441  16.015  0.00  0.00    +0.000 A 
ATOM      3  N   UNL     1      37.137   2.586  16.678  0.00  0.00    +0.000 NA
ATOM      4  C   UNL     1      37.763   3.446  15.858  0.00  0.00    +0.000 A 
ATOM      5  C   UNL     1      38.250   4.736  16.047  0.00  0.00    +0.000 A 
ATOM      6  C   UNL     1      38.858   5.380  14.999  0.00  0.00    +0.000 A 
ATOM      7  C   UNL     1      38.981   4.756  13.783  0.00  0.00    +0.000 A 
ATOM      8  C   UNL     1      38.497   3.493  13.623  0.00  0.00    +0.000 A 
ATOM      9  N   UNL     1      37.901   2.863  14.651  0.00  0.00    +0.000 N 
ENDROOT
BRANCH   2  10
ATOM     10  C   UNL     1      36.184   0.266  16.580  0.00  0.00    +0.000 A 
ATOM     11  C   UNL     1      36.893  -0.846  17.000  0.00  0.00    +0.000 A 
ATOM     12  C   UNL     1      36.283  -1.960  17.533  0.00  0.00    +0.000 A 
ATOM     13  C   UNL     1      34.911  -1.977  17.656  0.00  0.00    +0.000 A 
ATOM     14  N   UNL     1      34.235  -0.892  17.245  0.00  0.00    +0.000 NA
ATOM     15  C   UNL     1      34.813   0.204  16.722  0.00  0.00    +0.000 A 
ENDBRANCH   2  10
BRANCH   1  16
ATOM     16  N   UNL     1      37.273   0.671  13.711  0.00  0.00    +0.000 NA
BRANCH  16  17
ATOM     17  C   UNL     1      38.248  -0.327  13.411  0.00  0.00    +0.000 C 
ATOM     18  C   UNL     1      38.909  -0.127  12.054  0.00  0.00    +0.000 C 
ATOM     19  C   UNL     1      37.632  -1.705  13.538  0.00  0.00    +0.000 C 
BRANCH  17  20
ATOM     20  C   UNL     1      39.393  -0.287  14.430  0.00  0.00    +0.000 C 
BRANCH  20  22
ATOM     21  C   UNL     1      39.916  -2.510  15.476  0.00  0.00    +0.000 C 
ATOM     22  C   UNL     1      40.160  -1.562  14.302  0.00  0.00    +0.000 C 
ATOM     23  C   UNL     1      39.796  -2.296  13.042  0.00  0.00    +0.000 C 
ATOM     24  C   UNL     1      41.638  -1.232  14.302  0.00  0.00    +0.000 C 
ENDBRANCH  20  22
ENDBRANCH  17  20
ENDBRANCH  16  17
ENDBRANCH   1  16
BRANCH   5  25
ATOM     25  O   UNL     1      38.130   5.375  17.267  0.00  0.00    +0.000 OA
BRANCH  25  26
ATOM     26  C   UNL     1      38.559   6.680  17.553  0.00  0.00    +0.000 C 
BRANCH  26  27
ATOM     27  C   UNL     1      39.868   6.609  18.239  0.00  0.00    +0.000 A 
ATOM     28  C   UNL     1      39.891   6.470  19.620  0.00  0.00    +0.000 A 
ATOM     29  C   UNL     1      41.053   6.402  20.338  0.00  0.00    +0.000 A 
ATOM     30  C   UNL     1      42.262   6.470  19.685  0.00  0.00    +0.000 A 
ATOM     31  C   UNL     1      42.270   6.607  18.314  0.00  0.00    +0.000 A 
ATOM     32  C   UNL     1      41.089   6.673  17.620  0.00  0.00    +0.000 A 
ENDBRANCH  26  27
ENDBRANCH  25  26
ENDBRANCH   5  25
TORSDOF 8
ENDMDL
MODEL 10
REMARK VINA RESULT:      -6.8      3.041      6.202
REMARK  Name = 
REMARK  8 active torsions:
REMARK  status: ('A' for Active; 'I' for Inactive)
REMARK    1  A    between atoms: C_2  and  C_5
REMARK    2  A    between atoms: C_5  and  C_6
REMARK    3  A    between atoms: C_6  and  N_9
REMARK    4  A    between atoms: N_9  and  C_10
REMARK    5  A    between atoms: C_11  and  C_12
REMARK    6  A    between atoms: C_20  and  O_21
REMARK    7  A    between atoms: O_21  and  C_22
REMARK    8  A    between atoms: C_22  and  C_23
REMARK                            x       y       z     vdW  Elec       q    Type
REMARK                         _______ _______ _______ _____ _____    ______ ____
ROOT
ATOM      1  C   UNL     1      37.774   0.823  13.795  0.00  0.00    +0.000 A 
ATOM      2  C   UNL     1      38.597   0.025  14.549  0.00  0.00    +0.000 A 
ATOM      3  N   UNL     1      38.073   0.034  15.794  0.00  0.00    +0.000 NA
ATOM      4  C   UNL     1      36.971   0.801  15.817  0.00  0.00    +0.000 A 
ATOM      5  C   UNL     1      36.080   1.132  16.833  0.00  0.00    +0.000 A 
ATOM      6  C   UNL     1      35.022   1.958  16.551  0.00  0.00    +0.000 A 
ATOM      7  C   UNL     1      34.848   2.447  15.280  0.00  0.00    +0.000 A 
ATOM      8  C   UNL     1      35.733   2.109  14.302  0.00  0.00    +0.000 A 
ATOM      9  N   UNL     1      36.770   1.299  14.581  0.00  0.00    +0.000 N 
ENDROOT
BRANCH   2  10
ATOM     10  C   UNL     1      39.804  -0.702  14.133  0.00  0.00    +0.000 A 
ATOM     11  C   UNL     1      41.067  -0.154  14.284  0.00  0.00    +0.000 A 
ATOM     12  C   UNL     1      42.215  -0.814  13.904  0.00  0.00    +0.000 A 
ATOM     13  C   UNL     1      42.112  -2.070  13.348  0.00  0.00    +0.000 A 
ATOM     14  N   UNL     1      40.881  -2.590  13.207  0.00  0.00    +0.000 NA
ATOM     15  C   UNL     1      39.750  -1.962  13.572  0.00  0.00    +0.000 A 
ENDBRANCH   2  10
BRANCH   1  16
ATOM     16  N   UNL     1      37.951   1.094  12.426  0.00  0.00    +0.000 NA
BRANCH  16  17
ATOM     17  C   UNL     1      38.780   2.114  11.867  0.00  0.00    +0.000 C 
ATOM     18  C   UNL     1      39.998   1.561  11.141  0.00  0.00    +0.000 C 
ATOM     19  C   UNL     1      39.170   3.108  12.942  0.00  0.00    +0.000 C 
BRANCH  17  20
ATOM     20  C   UNL     1      38.010   2.920  10.815  0.00  0.00    +0.000 C 
BRANCH  20  22
ATOM     21  C   UNL     1      38.465   1.257   8.988  0.00  0.00    +0.000 C 
ATOM     22  C   UNL     1      37.411   1.952   9.849  0.00  0.00    +0.000 C 
ATOM     23  C   UNL     1      36.628   0.883  10.560  0.00  0.00    +0.000 C 
ATOM     24  C   UNL     1      36.506   2.716   8.906  0.00  0.00    +0.000 C 
ENDBRANCH  20  22
ENDBRANCH  17  20
ENDBRANCH  16  17
ENDBRANCH   1  16
BRANCH   5  25
ATOM     25  O   UNL     1      36.244   0.645  18.116  0.00  0.00    +0.000 OA
BRANCH  25  26
ATOM     26  C   UNL     1      35.667  -0.528  18.628  0.00  0.00    +0.000 C 
BRANCH  26  27
ATOM     27  C   UNL     1      36.518  -1.678  18.253  0.00  0.00    +0.000 A 
ATOM     28  C   UNL     1      37.732  -1.850  18.904  0.00  0.00    +0.000 A 
ATOM     29  C   UNL     1      38.584  -2.880  18.618  0.00  0.00    +0.000 A 
ATOM     30  C   UNL     1      38.247  -3.796  17.649  0.00  0.00    +0.000 A 
ATOM     31  C   UNL     1      37.048  -3.651  16.987  0.00  0.00    +0.000 A 
ATOM     32  C   UNL     1      36.212  -2.608  17.293  0.00  0.00    +0.000 A 
ENDBRANCH  26  27
ENDBRANCH  25  26
ENDBRANCH   5  25
TORSDOF 8
ENDMDL
