MODEL 1
REMARK VINA RESULT:      -6.9      0.000      0.000
REMARK  Name = 
REMARK  5 active torsions:
REMARK  status: ('A' for Active; 'I' for Inactive)
REMARK    1  A    between atoms: C_2  and  C_4
REMARK    2  A    between atoms: C_4  and  C_5
REMARK    3  A    between atoms: C_5  and  O_6
REMARK    4  A    between atoms: O_6  and  C_7
REMARK    5  A    between atoms: C_10  and  C_11
REMARK                            x       y       z     vdW  Elec       q    Type
REMARK                         _______ _______ _______ _____ _____    ______ ____
ROOT
ATOM      1  C   UNL     1      16.125  10.960  34.219  0.00  0.00    +0.000 A 
ATOM      2  C   UNL     1      15.982  11.379  35.523  0.00  0.00    +0.000 A 
ATOM      3  C   UNL     1      16.921  11.034  36.495  0.00  0.00    +0.000 A 
ATOM      4  C   UNL     1      18.002  10.271  36.167  0.00  0.00    +0.000 A 
ATOM      5  C   UNL     1      18.160   9.845  34.875  0.00  0.00    +0.000 A 
ATOM      6  C   UNL     1      17.224  10.190  33.908  0.00  0.00    +0.000 A 
ENDROOT
BRANCH   4   7
ATOM      7  C   UNL     1      18.988   9.917  37.221  0.00  0.00    +0.000 C 
ATOM      8  C   UNL     1      20.371   9.727  36.630  0.00  0.00    +0.000 C 
ATOM      9  N   UNL     1      18.539   8.750  37.921  0.00  0.00    +0.000 NA
ATOM     10  C   UNL     1      18.322   9.111  39.267  0.00  0.00    +0.000 C 
ATOM     11  O   UNL     1      17.932   8.343  40.169  0.00  0.00    +0.000 OA
ATOM     12  N   UNL     1      18.623  10.502  39.446  0.00  0.00    +0.000 NA
ATOM     13  C   UNL     1      19.031  11.010  38.190  0.00  0.00    +0.000 C 
ATOM     14  O   UNL     1      19.367  12.190  37.960  0.00  0.00    +0.000 OA
ENDBRANCH   4   7
BRANCH   1  15
ATOM     15  O   UNL     1      15.163  11.333  33.300  0.00  0.00    +0.000 OA
BRANCH  15  16
ATOM     16  C   UNL     1      14.887  10.633  32.126  0.00  0.00    +0.000 C 
BRANCH  16  17
ATOM     17  C   UNL     1      14.862  11.506  30.902  0.00  0.00    +0.000 C 
BRANCH  17  19
ATOM     18  C   UNL     1      15.981  13.585  30.275  0.00  0.00    +0.000 C 
ATOM     19  C   UNL     1      15.005  12.970  31.257  0.00  0.00    +0.000 C 
ATOM     20  C   UNL     1      13.683  13.680  31.070  0.00  0.00    +0.000 C 
ENDBRANCH  17  19
ENDBRANCH  16  17
ENDBRANCH  15  16
ENDBRANCH   1  15
TORSDOF 5
ENDMDL
MODEL 2
REMARK VINA RESULT:      -6.7      1.625      2.318
REMARK  Name = 
REMARK  5 active torsions:
REMARK  status: ('A' for Active; 'I' for Inactive)
REMARK    1  A    between atoms: C_2  and  C_4
REMARK    2  A    between atoms: C_4  and  C_5
REMARK    3  A    between atoms: C_5  and  O_6
REMARK    4  A    between atoms: O_6  and  C_7
REMARK    5  A    between atoms: C_10  and  C_11
REMARK                            x       y       z     vdW  Elec       q    Type
REMARK                         _______ _______ _______ _____ _____    ______ ____
ROOT
ATOM      1  C   UNL     1      16.528  10.629  34.621  0.00  0.00    +0.000 A 
ATOM      2  C   UNL     1      16.533  11.542  35.651  0.00  0.00    +0.000 A 
ATOM      3  C   UNL     1      17.442  11.432  36.704  0.00  0.00    +0.000 A 
ATOM      4  C   UNL     1      18.344  10.411  36.729  0.00  0.00    +0.000 A 
ATOM      5  C   UNL     1      18.354   9.493  35.713  0.00  0.00    +0.000 A 
ATOM      6  C   UNL     1      17.448   9.605  34.665  0.00  0.00    +0.000 A 
ENDROOT
BRANCH   4   7
ATOM      7  C   UNL     1      19.302  10.317  37.862  0.00  0.00    +0.000 C 
ATOM      8  C   UNL     1      19.146   9.000  38.597  0.00  0.00    +0.000 C 
ATOM      9  N   UNL     1      19.124  11.441  38.732  0.00  0.00    +0.000 NA
ATOM     10  C   UNL     1      20.324  12.182  38.730  0.00  0.00    +0.000 C 
ATOM     11  O   UNL     1      20.531  13.226  39.381  0.00  0.00    +0.000 OA
ATOM     12  N   UNL     1      21.277  11.551  37.865  0.00  0.00    +0.000 NA
ATOM     13  C   UNL     1      20.657  10.402  37.321  0.00  0.00    +0.000 C 
ATOM     14  O   UNL     1      21.185   9.604  36.518  0.00  0.00    +0.000 OA
ENDBRANCH   4   7
BRANCH   1  15
ATOM     15  O   UNL     1      15.605  10.789  33.605  0.00  0.00    +0.000 OA
BRANCH  15  16
ATOM     16  C   UNL     1      15.436  11.967  32.878  0.00  0.00    +0.000 C 
BRANCH  16  17
ATOM     17  C   UNL     1      15.953  11.878  31.470  0.00  0.00    +0.000 C 
BRANCH  17  19
ATOM     18  C   UNL     1      14.275  13.651  31.392  0.00  0.00    +0.000 C 
ATOM     19  C   UNL     1      15.335  12.933  30.580  0.00  0.00    +0.000 C 
ATOM     20  C   UNL     1      16.373  13.965  30.200  0.00  0.00    +0.000 C 
ENDBRANCH  17  19
ENDBRANCH  16  17
ENDBRANCH  15  16
ENDBRANCH   1  15
TORSDOF 5
ENDMDL
MODEL 3
REMARK VINA RESULT:      -6.6     17.545     20.130
REMARK  Name = 
REMARK  5 active torsions:
REMARK  status: ('A' for Active; 'I' for Inactive)
REMARK    1  A    between atoms: C_2  and  C_4
REMARK    2  A    between atoms: C_4  and  C_5
REMARK    3  A    between atoms: C_5  and  O_6
REMARK    4  A    between atoms: O_6  and  C_7
REMARK    5  A    between atoms: C_10  and  C_11
REMARK                            x       y       z     vdW  Elec       q    Type
REMARK                         _______ _______ _______ _____ _____    ______ ____
ROOT
ATOM      1  C   UNL     1      29.235  23.283  27.884  0.00  0.00    +0.000 A 
ATOM      2  C   UNL     1      29.373  24.591  27.479  0.00  0.00    +0.000 A 
ATOM      3  C   UNL     1      28.926  25.005  26.223  0.00  0.00    +0.000 A 
ATOM      4  C   UNL     1      28.343  24.114  25.373  0.00  0.00    +0.000 A 
ATOM      5  C   UNL     1      28.197  22.808  25.760  0.00  0.00    +0.000 A 
ATOM      6  C   UNL     1      28.643  22.398  27.011  0.00  0.00    +0.000 A 
ENDROOT
BRANCH   4   7
ATOM      7  C   UNL     1      27.875  24.580  24.042  0.00  0.00    +0.000 C 
ATOM      8  C   UNL     1      28.096  26.072  23.879  0.00  0.00    +0.000 C 
ATOM      9  N   UNL     1      26.499  24.221  23.869  0.00  0.00    +0.000 NA
ATOM     10  C   UNL     1      26.419  23.332  22.776  0.00  0.00    +0.000 C 
ATOM     11  O   UNL     1      25.372  22.818  22.336  0.00  0.00    +0.000 OA
ATOM     12  N   UNL     1      27.732  23.109  22.242  0.00  0.00    +0.000 NA
ATOM     13  C   UNL     1      28.637  23.871  23.017  0.00  0.00    +0.000 C 
ATOM     14  O   UNL     1      29.873  23.921  22.847  0.00  0.00    +0.000 OA
ENDBRANCH   4   7
BRANCH   1  15
ATOM     15  O   UNL     1      29.697  22.931  29.139  0.00  0.00    +0.000 OA
BRANCH  15  16
ATOM     16  C   UNL     1      28.871  22.609  30.215  0.00  0.00    +0.000 C 
BRANCH  16  17
ATOM     17  C   UNL     1      27.938  23.720  30.606  0.00  0.00    +0.000 C 
BRANCH  17  19
ATOM     18  C   UNL     1      25.938  23.944  29.221  0.00  0.00    +0.000 C 
ATOM     19  C   UNL     1      26.489  23.303  30.479  0.00  0.00    +0.000 C 
ATOM     20  C   UNL     1      26.395  21.806  30.289  0.00  0.00    +0.000 C 
ENDBRANCH  17  19
ENDBRANCH  16  17
ENDBRANCH  15  16
ENDBRANCH   1  15
TORSDOF 5
ENDMDL
MODEL 4
REMARK VINA RESULT:      -6.5     27.932     30.305
REMARK  Name = 
REMARK  5 active torsions:
REMARK  status: ('A' for Active; 'I' for Inactive)
REMARK    1  A    between atoms: C_2  and  C_4
REMARK    2  A    between atoms: C_4  and  C_5
REMARK    3  A    between atoms: C_5  and  O_6
REMARK    4  A    between atoms: O_6  and  C_7
REMARK    5  A    between atoms: C_10  and  C_11
REMARK                            x       y       z     vdW  Elec       q    Type
REMARK                         _______ _______ _______ _____ _____    ______ ____
ROOT
ATOM      1  C   UNL     1      30.680  21.992  12.560  0.00  0.00    +0.000 A 
ATOM      2  C   UNL     1      31.096  22.760  11.495  0.00  0.00    +0.000 A 
ATOM      3  C   UNL     1      32.239  22.422  10.769  0.00  0.00    +0.000 A 
ATOM      4  C   UNL     1      32.966  21.320  11.106  0.00  0.00    +0.000 A 
ATOM      5  C   UNL     1      32.567  20.544  12.162  0.00  0.00    +0.000 A 
ATOM      6  C   UNL     1      31.428  20.882  12.883  0.00  0.00    +0.000 A 
ENDROOT
BRANCH   4   7
ATOM      7  C   UNL     1      34.179  20.981  10.317  0.00  0.00    +0.000 C 
ATOM      8  C   UNL     1      33.949  21.218   8.836  0.00  0.00    +0.000 C 
ATOM      9  N   UNL     1      34.562  19.628  10.589  0.00  0.00    +0.000 NA
ATOM     10  C   UNL     1      35.843  19.653  11.181  0.00  0.00    +0.000 C 
ATOM     11  O   UNL     1      36.491  18.652  11.547  0.00  0.00    +0.000 OA
ATOM     12  N   UNL     1      36.291  21.010  11.298  0.00  0.00    +0.000 NA
ATOM     13  C   UNL     1      35.272  21.838  10.772  0.00  0.00    +0.000 C 
ATOM     14  O   UNL     1      35.310  23.084  10.710  0.00  0.00    +0.000 OA
ENDBRANCH   4   7
BRANCH   1  15
ATOM     15  O   UNL     1      29.540  22.376  13.241  0.00  0.00    +0.000 OA
BRANCH  15  16
ATOM     16  C   UNL     1      28.620  23.309  12.765  0.00  0.00    +0.000 C 
BRANCH  16  17
ATOM     17  C   UNL     1      27.289  23.241  13.459  0.00  0.00    +0.000 C 
BRANCH  17  19
ATOM     18  C   UNL     1      25.698  24.314  11.947  0.00  0.00    +0.000 C 
ATOM     19  C   UNL     1      26.163  22.975  12.484  0.00  0.00    +0.000 C 
ATOM     20  C   UNL     1      26.676  22.180  11.305  0.00  0.00    +0.000 C 
ENDBRANCH  17  19
ENDBRANCH  16  17
ENDBRANCH  15  16
ENDBRANCH   1  15
TORSDOF 5
ENDMDL
MODEL 5
REMARK VINA RESULT:      -6.3     17.861     20.501
REMARK  Name = 
REMARK  5 active torsions:
REMARK  status: ('A' for Active; 'I' for Inactive)
REMARK    1  A    between atoms: C_2  and  C_4
REMARK    2  A    between atoms: C_4  and  C_5
REMARK    3  A    between atoms: C_5  and  O_6
REMARK    4  A    between atoms: O_6  and  C_7
REMARK    5  A    between atoms: C_10  and  C_11
REMARK                            x       y       z     vdW  Elec       q    Type
REMARK                         _______ _______ _______ _____ _____    ______ ____
ROOT
ATOM      1  C   UNL     1      28.981  22.715  27.148  0.00  0.00    +0.000 A 
ATOM      2  C   UNL     1      29.755  23.400  26.238  0.00  0.00    +0.000 A 
ATOM      3  C   UNL     1      29.248  23.755  24.987  0.00  0.00    +0.000 A 
ATOM      4  C   UNL     1      27.971  23.426  24.645  0.00  0.00    +0.000 A 
ATOM      5  C   UNL     1      27.187  22.745  25.537  0.00  0.00    +0.000 A 
ATOM      6  C   UNL     1      27.693  22.393  26.783  0.00  0.00    +0.000 A 
ENDROOT
BRANCH   4   7
ATOM      7  C   UNL     1      27.455  23.816  23.306  0.00  0.00    +0.000 C 
ATOM      8  C   UNL     1      26.046  23.297  23.095  0.00  0.00    +0.000 C 
ATOM      9  N   UNL     1      28.355  23.349  22.294  0.00  0.00    +0.000 NA
ATOM     10  C   UNL     1      28.868  24.476  21.619  0.00  0.00    +0.000 C 
ATOM     11  O   UNL     1      29.679  24.446  20.673  0.00  0.00    +0.000 OA
ATOM     12  N   UNL     1      28.311  25.670  22.187  0.00  0.00    +0.000 NA
ATOM     13  C   UNL     1      27.442  25.275  23.230  0.00  0.00    +0.000 C 
ATOM     14  O   UNL     1      26.781  26.047  23.955  0.00  0.00    +0.000 OA
ENDBRANCH   4   7
BRANCH   1  15
ATOM     15  O   UNL     1      29.537  22.391  28.371  0.00  0.00    +0.000 OA
BRANCH  15  16
ATOM     16  C   UNL     1      29.462  23.200  29.504  0.00  0.00    +0.000 C 
BRANCH  16  17
ATOM     17  C   UNL     1      28.503  22.686  30.542  0.00  0.00    +0.000 C 
BRANCH  17  19
ATOM     18  C   UNL     1      26.321  21.588  30.524  0.00  0.00    +0.000 C 
ATOM     19  C   UNL     1      27.066  22.838  30.096  0.00  0.00    +0.000 C 
ATOM     20  C   UNL     1      26.420  24.003  30.812  0.00  0.00    +0.000 C 
ENDBRANCH  17  19
ENDBRANCH  16  17
ENDBRANCH  15  16
ENDBRANCH   1  15
TORSDOF 5
ENDMDL
MODEL 6
REMARK VINA RESULT:      -6.3     28.200     30.741
REMARK  Name = 
REMARK  5 active torsions:
REMARK  status: ('A' for Active; 'I' for Inactive)
REMARK    1  A    between atoms: C_2  and  C_4
REMARK    2  A    between atoms: C_4  and  C_5
REMARK    3  A    between atoms: C_5  and  O_6
REMARK    4  A    between atoms: O_6  and  C_7
REMARK    5  A    between atoms: C_10  and  C_11
REMARK                            x       y       z     vdW  Elec       q    Type
REMARK                         _______ _______ _______ _____ _____    ______ ____
ROOT
ATOM      1  C   UNL     1      30.781  21.910  12.562  0.00  0.00    +0.000 A 
ATOM      2  C   UNL     1      31.289  22.716  11.568  0.00  0.00    +0.000 A 
ATOM      3  C   UNL     1      32.519  22.434  10.972  0.00  0.00    +0.000 A 
ATOM      4  C   UNL     1      33.241  21.348  11.368  0.00  0.00    +0.000 A 
ATOM      5  C   UNL     1      32.751  20.534  12.355  0.00  0.00    +0.000 A 
ATOM      6  C   UNL     1      31.526  20.817  12.947  0.00  0.00    +0.000 A 
ENDROOT
BRANCH   4   7
ATOM      7  C   UNL     1      34.548  21.068  10.717  0.00  0.00    +0.000 C 
ATOM      8  C   UNL     1      35.399  20.155  11.578  0.00  0.00    +0.000 C 
ATOM      9  N   UNL     1      35.211  22.306  10.430  0.00  0.00    +0.000 NA
ATOM     10  C   UNL     1      35.360  22.401   9.031  0.00  0.00    +0.000 C 
ATOM     11  O   UNL     1      35.899  23.346   8.422  0.00  0.00    +0.000 OA
ATOM     12  N   UNL     1      34.795  21.239   8.408  0.00  0.00    +0.000 NA
ATOM     13  C   UNL     1      34.289  20.412   9.438  0.00  0.00    +0.000 C 
ATOM     14  O   UNL     1      33.720  19.313   9.272  0.00  0.00    +0.000 OA
ENDBRANCH   4   7
BRANCH   1  15
ATOM     15  O   UNL     1      29.558  22.239  13.114  0.00  0.00    +0.000 OA
BRANCH  15  16
ATOM     16  C   UNL     1      28.655  23.133  12.541  0.00  0.00    +0.000 C 
BRANCH  16  17
ATOM     17  C   UNL     1      27.382  23.282  13.327  0.00  0.00    +0.000 C 
BRANCH  17  19
ATOM     18  C   UNL     1      25.643  24.342  11.978  0.00  0.00    +0.000 C 
ATOM     19  C   UNL     1      26.164  23.008  12.474  0.00  0.00    +0.000 C 
ATOM     20  C   UNL     1      26.555  22.205  11.253  0.00  0.00    +0.000 C 
ENDBRANCH  17  19
ENDBRANCH  16  17
ENDBRANCH  15  16
ENDBRANCH   1  15
TORSDOF 5
ENDMDL
MODEL 7
REMARK VINA RESULT:      -6.3     16.491     18.600
REMARK  Name = 
REMARK  5 active torsions:
REMARK  status: ('A' for Active; 'I' for Inactive)
REMARK    1  A    between atoms: C_2  and  C_4
REMARK    2  A    between atoms: C_4  and  C_5
REMARK    3  A    between atoms: C_5  and  O_6
REMARK    4  A    between atoms: O_6  and  C_7
REMARK    5  A    between atoms: C_10  and  C_11
REMARK                            x       y       z     vdW  Elec       q    Type
REMARK                         _______ _______ _______ _____ _____    ______ ____
ROOT
ATOM      1  C   UNL     1      26.666  23.294  24.865  0.00  0.00    +0.000 A 
ATOM      2  C   UNL     1      25.791  23.702  25.847  0.00  0.00    +0.000 A 
ATOM      3  C   UNL     1      26.129  23.598  27.197  0.00  0.00    +0.000 A 
ATOM      4  C   UNL     1      27.337  23.088  27.566  0.00  0.00    +0.000 A 
ATOM      5  C   UNL     1      28.220  22.677  26.603  0.00  0.00    +0.000 A 
ATOM      6  C   UNL     1      27.882  22.782  25.258  0.00  0.00    +0.000 A 
ENDROOT
BRANCH   4   7
ATOM      7  C   UNL     1      27.672  22.988  29.011  0.00  0.00    +0.000 C 
ATOM      8  C   UNL     1      29.158  23.191  29.239  0.00  0.00    +0.000 C 
ATOM      9  N   UNL     1      27.219  21.728  29.519  0.00  0.00    +0.000 NA
ATOM     10  C   UNL     1      26.247  21.986  30.509  0.00  0.00    +0.000 C 
ATOM     11  O   UNL     1      25.639  21.121  31.170  0.00  0.00    +0.000 OA
ATOM     12  N   UNL     1      26.064  23.402  30.644  0.00  0.00    +0.000 NA
ATOM     13  C   UNL     1      26.935  24.030  29.722  0.00  0.00    +0.000 C 
ATOM     14  O   UNL     1      27.047  25.262  29.554  0.00  0.00    +0.000 OA
ENDBRANCH   4   7
BRANCH   1  15
ATOM     15  O   UNL     1      26.276  23.421  23.545  0.00  0.00    +0.000 OA
BRANCH  15  16
ATOM     16  C   UNL     1      27.077  23.963  22.540  0.00  0.00    +0.000 C 
BRANCH  16  17
ATOM     17  C   UNL     1      27.298  25.443  22.687  0.00  0.00    +0.000 C 
BRANCH  17  19
ATOM     18  C   UNL     1      29.086  26.099  24.217  0.00  0.00    +0.000 C 
ATOM     19  C   UNL     1      28.770  25.782  22.769  0.00  0.00    +0.000 C 
ATOM     20  C   UNL     1      29.602  24.578  22.389  0.00  0.00    +0.000 C 
ENDBRANCH  17  19
ENDBRANCH  16  17
ENDBRANCH  15  16
ENDBRANCH   1  15
TORSDOF 5
ENDMDL
MODEL 8
REMARK VINA RESULT:      -6.1     16.816     18.610
REMARK  Name = 
REMARK  5 active torsions:
REMARK  status: ('A' for Active; 'I' for Inactive)
REMARK    1  A    between atoms: C_2  and  C_4
REMARK    2  A    between atoms: C_4  and  C_5
REMARK    3  A    between atoms: C_5  and  O_6
REMARK    4  A    between atoms: O_6  and  C_7
REMARK    5  A    between atoms: C_10  and  C_11
REMARK                            x       y       z     vdW  Elec       q    Type
REMARK                         _______ _______ _______ _____ _____    ______ ____
ROOT
ATOM      1  C   UNL     1      26.696  23.082  25.647  0.00  0.00    +0.000 A 
ATOM      2  C   UNL     1      25.846  23.862  26.397  0.00  0.00    +0.000 A 
ATOM      3  C   UNL     1      25.994  23.959  27.782  0.00  0.00    +0.000 A 
ATOM      4  C   UNL     1      26.990  23.278  28.416  0.00  0.00    +0.000 A 
ATOM      5  C   UNL     1      27.846  22.497  27.685  0.00  0.00    +0.000 A 
ATOM      6  C   UNL     1      27.696  22.402  26.306  0.00  0.00    +0.000 A 
ENDROOT
BRANCH   4   7
ATOM      7  C   UNL     1      27.127  23.399  29.891  0.00  0.00    +0.000 C 
ATOM      8  C   UNL     1      27.767  22.156  30.480  0.00  0.00    +0.000 C 
ATOM      9  N   UNL     1      25.844  23.666  30.468  0.00  0.00    +0.000 NA
ATOM     10  C   UNL     1      25.905  24.931  31.090  0.00  0.00    +0.000 C 
ATOM     11  O   UNL     1      24.969  25.484  31.699  0.00  0.00    +0.000 OA
ATOM     12  N   UNL     1      27.216  25.487  30.917  0.00  0.00    +0.000 NA
ATOM     13  C   UNL     1      27.976  24.553  30.176  0.00  0.00    +0.000 C 
ATOM     14  O   UNL     1      29.167  24.699  29.831  0.00  0.00    +0.000 OA
ENDBRANCH   4   7
BRANCH   1  15
ATOM     15  O   UNL     1      26.500  23.025  24.280  0.00  0.00    +0.000 OA
BRANCH  15  16
ATOM     16  C   UNL     1      27.078  23.907  23.368  0.00  0.00    +0.000 C 
BRANCH  16  17
ATOM     17  C   UNL     1      28.336  23.377  22.739  0.00  0.00    +0.000 C 
BRANCH  17  19
ATOM     18  C   UNL     1      29.054  25.386  23.927  0.00  0.00    +0.000 C 
ATOM     19  C   UNL     1      29.548  24.183  23.149  0.00  0.00    +0.000 C 
ATOM     20  C   UNL     1      30.416  23.376  24.087  0.00  0.00    +0.000 C 
ENDBRANCH  17  19
ENDBRANCH  16  17
ENDBRANCH  15  16
ENDBRANCH   1  15
TORSDOF 5
ENDMDL
MODEL 9
REMARK VINA RESULT:      -6.0     16.399     18.521
REMARK  Name = 
REMARK  5 active torsions:
REMARK  status: ('A' for Active; 'I' for Inactive)
REMARK    1  A    between atoms: C_2  and  C_4
REMARK    2  A    between atoms: C_4  and  C_5
REMARK    3  A    between atoms: C_5  and  O_6
REMARK    4  A    between atoms: O_6  and  C_7
REMARK    5  A    between atoms: C_10  and  C_11
REMARK                            x       y       z     vdW  Elec       q    Type
REMARK                         _______ _______ _______ _____ _____    ______ ____
ROOT
ATOM      1  C   UNL     1      26.471  23.085  25.482  0.00  0.00    +0.000 A 
ATOM      2  C   UNL     1      25.606  23.852  26.230  0.00  0.00    +0.000 A 
ATOM      3  C   UNL     1      25.807  24.030  27.600  0.00  0.00    +0.000 A 
ATOM      4  C   UNL     1      26.868  23.444  28.222  0.00  0.00    +0.000 A 
ATOM      5  C   UNL     1      27.739  22.677  27.493  0.00  0.00    +0.000 A 
ATOM      6  C   UNL     1      27.537  22.501  26.129  0.00  0.00    +0.000 A 
ENDROOT
BRANCH   4   7
ATOM      7  C   UNL     1      27.060  23.650  29.681  0.00  0.00    +0.000 C 
ATOM      8  C   UNL     1      25.994  24.569  30.245  0.00  0.00    +0.000 C 
ATOM      9  N   UNL     1      28.381  24.149  29.922  0.00  0.00    +0.000 NA
ATOM     10  C   UNL     1      29.066  23.196  30.705  0.00  0.00    +0.000 C 
ATOM     11  O   UNL     1      30.241  23.302  31.109  0.00  0.00    +0.000 OA
ATOM     12  N   UNL     1      28.203  22.082  30.970  0.00  0.00    +0.000 NA
ATOM     13  C   UNL     1      26.964  22.349  30.341  0.00  0.00    +0.000 C 
ATOM     14  O   UNL     1      25.968  21.597  30.353  0.00  0.00    +0.000 OA
ENDBRANCH   4   7
BRANCH   1  15
ATOM     15  O   UNL     1      26.221  22.944  24.130  0.00  0.00    +0.000 OA
BRANCH  15  16
ATOM     16  C   UNL     1      26.418  23.953  23.188  0.00  0.00    +0.000 C 
BRANCH  16  17
ATOM     17  C   UNL     1      27.587  23.701  22.278  0.00  0.00    +0.000 C 
BRANCH  17  19
ATOM     18  C   UNL     1      29.759  24.031  23.346  0.00  0.00    +0.000 C 
ATOM     19  C   UNL     1      28.696  24.705  22.502  0.00  0.00    +0.000 C 
ATOM     20  C   UNL     1      29.342  25.067  21.184  0.00  0.00    +0.000 C 
ENDBRANCH  17  19
ENDBRANCH  16  17
ENDBRANCH  15  16
ENDBRANCH   1  15
TORSDOF 5
ENDMDL
MODEL 10
REMARK VINA RESULT:      -5.9     19.677     22.346
REMARK  Name = 
REMARK  5 active torsions:
REMARK  status: ('A' for Active; 'I' for Inactive)
REMARK    1  A    between atoms: C_2  and  C_4
REMARK    2  A    between atoms: C_4  and  C_5
REMARK    3  A    between atoms: C_5  and  O_6
REMARK    4  A    between atoms: O_6  and  C_7
REMARK    5  A    between atoms: C_10  and  C_11
REMARK                            x       y       z     vdW  Elec       q    Type
REMARK                         _______ _______ _______ _____ _____    ______ ____
ROOT
ATOM      1  C   UNL     1      30.878  23.413  25.510  0.00  0.00    +0.000 A 
ATOM      2  C   UNL     1      31.113  24.608  24.867  0.00  0.00    +0.000 A 
ATOM      3  C   UNL     1      30.367  24.979  23.747  0.00  0.00    +0.000 A 
ATOM      4  C   UNL     1      29.390  24.159  23.269  0.00  0.00    +0.000 A 
ATOM      5  C   UNL     1      29.142  22.967  23.897  0.00  0.00    +0.000 A 
ATOM      6  C   UNL     1      29.885  22.599  25.012  0.00  0.00    +0.000 A 
ENDROOT
BRANCH   4   7
ATOM      7  C   UNL     1      28.609  24.578  22.075  0.00  0.00    +0.000 C 
ATOM      8  C   UNL     1      27.413  23.670  21.862  0.00  0.00    +0.000 C 
ATOM      9  N   UNL     1      29.470  24.608  20.931  0.00  0.00    +0.000 NA
ATOM     10  C   UNL     1      29.519  25.937  20.462  0.00  0.00    +0.000 C 
ATOM     11  O   UNL     1      30.170  26.334  19.475  0.00  0.00    +0.000 OA
ATOM     12  N   UNL     1      28.701  26.770  21.295  0.00  0.00    +0.000 NA
ATOM     13  C   UNL     1      28.138  25.943  22.295  0.00  0.00    +0.000 C 
ATOM     14  O   UNL     1      27.372  26.324  23.204  0.00  0.00    +0.000 OA
ENDBRANCH   4   7
BRANCH   1  15
ATOM     15  O   UNL     1      31.648  23.099  26.614  0.00  0.00    +0.000 OA
BRANCH  15  16
ATOM     16  C   UNL     1      31.214  22.299  27.670  0.00  0.00    +0.000 C 
BRANCH  16  17
ATOM     17  C   UNL     1      30.507  23.069  28.751  0.00  0.00    +0.000 C 
BRANCH  17  19
ATOM     18  C   UNL     1      28.571  22.697  30.192  0.00  0.00    +0.000 C 
ATOM     19  C   UNL     1      29.019  22.799  28.748  0.00  0.00    +0.000 C 
ATOM     20  C   UNL     1      28.280  23.968  28.138  0.00  0.00    +0.000 C 
ENDBRANCH  17  19
ENDBRANCH  16  17
ENDBRANCH  15  16
ENDBRANCH   1  15
TORSDOF 5
ENDMDL
