MODEL 1
REMARK VINA RESULT:      -8.0      0.000      0.000
REMARK  Name = 
REMARK  6 active torsions:
REMARK  status: ('A' for Active; 'I' for Inactive)
REMARK    1  A    between atoms: C_2  and  C_4
REMARK    2  A    between atoms: N_16  and  C_17
REMARK    3  A    between atoms: C_17  and  C_18
REMARK    4  A    between atoms: C_18  and  C_19
REMARK    5  A    between atoms: C_19  and  N_20
REMARK    6  A    between atoms: C_23  and  C_25
REMARK                            x       y       z     vdW  Elec       q    Type
REMARK                         _______ _______ _______ _____ _____    ______ ____
ROOT
ATOM      1  C   UNL     1      39.764   5.842  18.301  0.00  0.00    +0.000 A 
ATOM      2  C   UNL     1      40.488   6.188  17.183  0.00  0.00    +0.000 A 
ATOM      3  C   UNL     1      40.193   5.684  15.919  0.00  0.00    +0.000 A 
ATOM      4  C   UNL     1      39.136   4.796  15.752  0.00  0.00    +0.000 A 
ATOM      5  C   UNL     1      38.409   4.447  16.852  0.00  0.00    +0.000 A 
ATOM      6  C   UNL     1      38.703   4.951  18.124  0.00  0.00    +0.000 A 
ATOM      7  C   UNL     1      37.463   3.559  16.387  0.00  0.00    +0.000 A 
ATOM      8  C   UNL     1      36.449   2.878  17.028  0.00  0.00    +0.000 A 
ATOM      9  C   UNL     1      35.583   2.012  16.359  0.00  0.00    +0.000 A 
ATOM     10  C   UNL     1      35.745   1.825  14.997  0.00  0.00    +0.000 A 
ATOM     11  C   UNL     1      36.753   2.499  14.346  0.00  0.00    +0.000 A 
ATOM     12  C   UNL     1      37.604   3.356  15.024  0.00  0.00    +0.000 A 
ATOM     13  N   UNL     1      38.636   4.125  14.655  0.00  0.00    +0.000 N 
ENDROOT
BRANCH   1  15
ATOM     14  C   UNL     1      41.488   6.168  20.114  0.00  0.00    +0.000 C 
ATOM     15  C   UNL     1      40.132   6.348  19.610  0.00  0.00    +0.000 C 
ATOM     16  O   UNL     1      39.268   6.939  20.293  0.00  0.00    +0.000 OA
ENDBRANCH   1  15
BRANCH  13  17
ATOM     17  C   UNL     1      39.290   4.289  13.396  0.00  0.00    +0.000 C 
BRANCH  17  18
ATOM     18  C   UNL     1      40.658   3.638  13.312  0.00  0.00    +0.000 C 
BRANCH  18  19
ATOM     19  C   UNL     1      40.589   2.278  12.645  0.00  0.00    +0.000 C 
BRANCH  19  20
ATOM     20  N   UNL     1      40.216   1.269  13.664  0.00  0.00    +0.000 NA
ATOM     21  C   UNL     1      39.063   0.586  13.008  0.00  0.00    +0.000 C 
ATOM     22  C   UNL     1      39.475  -0.732  12.420  0.00  0.00    +0.000 C 
ATOM     23  C   UNL     1      39.804  -1.660  13.582  0.00  0.00    +0.000 C 
ATOM     24  O   UNL     1      40.175  -2.930  13.150  0.00  0.00    +0.000 OA
ATOM     25  C   UNL     1      40.932  -0.986  14.368  0.00  0.00    +0.000 C 
ATOM     26  C   UNL     1      41.317   0.319  13.707  0.00  0.00    +0.000 C 
BRANCH  23  27
ATOM     27  C   UNL     1      38.625  -1.684  14.475  0.00  0.00    +0.000 A 
ATOM     28  C   UNL     1      38.762  -1.344  15.804  0.00  0.00    +0.000 A 
ATOM     29  C   UNL     1      37.635  -1.378  16.629  0.00  0.00    +0.000 A 
ATOM     30  C   UNL     1      36.398  -1.738  16.153  0.00  0.00    +0.000 A 
ATOM     31  C   UNL     1      36.261  -2.081  14.816  0.00  0.00    +0.000 A 
ATOM     32  C   UNL     1      37.403  -2.037  14.017  0.00  0.00    +0.000 A 
ENDBRANCH  23  27
ENDBRANCH  19  20
ENDBRANCH  18  19
ENDBRANCH  17  18
ENDBRANCH  13  17
TORSDOF 6
ENDMDL
MODEL 2
REMARK VINA RESULT:      -7.9      3.034      7.212
REMARK  Name = 
REMARK  6 active torsions:
REMARK  status: ('A' for Active; 'I' for Inactive)
REMARK    1  A    between atoms: C_2  and  C_4
REMARK    2  A    between atoms: N_16  and  C_17
REMARK    3  A    between atoms: C_17  and  C_18
REMARK    4  A    between atoms: C_18  and  C_19
REMARK    5  A    between atoms: C_19  and  N_20
REMARK    6  A    between atoms: C_23  and  C_25
REMARK                            x       y       z     vdW  Elec       q    Type
REMARK                         _______ _______ _______ _____ _____    ______ ____
ROOT
ATOM      1  C   UNL     1      39.465  -2.473  14.728  0.00  0.00    +0.000 A 
ATOM      2  C   UNL     1      39.368  -1.586  15.775  0.00  0.00    +0.000 A 
ATOM      3  C   UNL     1      38.188  -1.405  16.492  0.00  0.00    +0.000 A 
ATOM      4  C   UNL     1      37.051  -2.130  16.156  0.00  0.00    +0.000 A 
ATOM      5  C   UNL     1      37.133  -3.015  15.120  0.00  0.00    +0.000 A 
ATOM      6  C   UNL     1      38.318  -3.200  14.398  0.00  0.00    +0.000 A 
ATOM      7  C   UNL     1      35.871  -3.557  15.014  0.00  0.00    +0.000 A 
ATOM      8  C   UNL     1      35.349  -4.507  14.160  0.00  0.00    +0.000 A 
ATOM      9  C   UNL     1      34.020  -4.927  14.223  0.00  0.00    +0.000 A 
ATOM     10  C   UNL     1      33.187  -4.370  15.179  0.00  0.00    +0.000 A 
ATOM     11  C   UNL     1      33.697  -3.422  16.036  0.00  0.00    +0.000 A 
ATOM     12  C   UNL     1      35.019  -3.016  15.962  0.00  0.00    +0.000 A 
ATOM     13  N   UNL     1      35.763  -2.143  16.652  0.00  0.00    +0.000 N 
ENDROOT
BRANCH   1  15
ATOM     14  C   UNL     1      40.682  -3.162  12.628  0.00  0.00    +0.000 C 
ATOM     15  C   UNL     1      40.697  -2.599  13.972  0.00  0.00    +0.000 C 
ATOM     16  O   UNL     1      41.767  -2.217  14.495  0.00  0.00    +0.000 OA
ENDBRANCH   1  15
BRANCH  13  17
ATOM     17  C   UNL     1      35.427  -1.241  17.707  0.00  0.00    +0.000 C 
BRANCH  17  18
ATOM     18  C   UNL     1      34.588  -0.054  17.270  0.00  0.00    +0.000 C 
BRANCH  18  19
ATOM     19  C   UNL     1      35.278   1.261  17.579  0.00  0.00    +0.000 C 
BRANCH  19  20
ATOM     20  N   UNL     1      36.404   1.439  16.633  0.00  0.00    +0.000 NA
ATOM     21  C   UNL     1      35.756   1.130  15.326  0.00  0.00    +0.000 C 
ATOM     22  C   UNL     1      35.435   2.386  14.569  0.00  0.00    +0.000 C 
ATOM     23  C   UNL     1      36.759   3.012  14.153  0.00  0.00    +0.000 C 
ATOM     24  O   UNL     1      36.579   4.178  13.414  0.00  0.00    +0.000 OA
ATOM     25  C   UNL     1      37.534   3.284  15.445  0.00  0.00    +0.000 C 
ATOM     26  C   UNL     1      36.712   2.861  16.642  0.00  0.00    +0.000 C 
BRANCH  23  27
ATOM     27  C   UNL     1      37.520   1.982  13.414  0.00  0.00    +0.000 A 
ATOM     28  C   UNL     1      38.864   1.808  13.665  0.00  0.00    +0.000 A 
ATOM     29  C   UNL     1      39.564   0.832  12.952  0.00  0.00    +0.000 A 
ATOM     30  C   UNL     1      38.951   0.043  12.011  0.00  0.00    +0.000 A 
ATOM     31  C   UNL     1      37.599   0.219  11.757  0.00  0.00    +0.000 A 
ATOM     32  C   UNL     1      36.927   1.200  12.484  0.00  0.00    +0.000 A 
ENDBRANCH  23  27
ENDBRANCH  19  20
ENDBRANCH  18  19
ENDBRANCH  17  18
ENDBRANCH  13  17
TORSDOF 6
ENDMDL
MODEL 3
REMARK VINA RESULT:      -7.7      2.491      7.155
REMARK  Name = 
REMARK  6 active torsions:
REMARK  status: ('A' for Active; 'I' for Inactive)
REMARK    1  A    between atoms: C_2  and  C_4
REMARK    2  A    between atoms: N_16  and  C_17
REMARK    3  A    between atoms: C_17  and  C_18
REMARK    4  A    between atoms: C_18  and  C_19
REMARK    5  A    between atoms: C_19  and  N_20
REMARK    6  A    between atoms: C_23  and  C_25
REMARK                            x       y       z     vdW  Elec       q    Type
REMARK                         _______ _______ _______ _____ _____    ______ ____
ROOT
ATOM      1  C   UNL     1      39.005  -2.028  13.441  0.00  0.00    +0.000 A 
ATOM      2  C   UNL     1      37.930  -1.244  13.091  0.00  0.00    +0.000 A 
ATOM      3  C   UNL     1      37.000  -0.794  14.025  0.00  0.00    +0.000 A 
ATOM      4  C   UNL     1      37.137  -1.137  15.365  0.00  0.00    +0.000 A 
ATOM      5  C   UNL     1      38.200  -1.912  15.726  0.00  0.00    +0.000 A 
ATOM      6  C   UNL     1      39.136  -2.366  14.790  0.00  0.00    +0.000 A 
ATOM      7  C   UNL     1      38.060  -2.098  17.085  0.00  0.00    +0.000 A 
ATOM      8  C   UNL     1      38.831  -2.784  18.001  0.00  0.00    +0.000 A 
ATOM      9  C   UNL     1      38.509  -2.847  19.357  0.00  0.00    +0.000 A 
ATOM     10  C   UNL     1      37.372  -2.197  19.806  0.00  0.00    +0.000 A 
ATOM     11  C   UNL     1      36.596  -1.509  18.901  0.00  0.00    +0.000 A 
ATOM     12  C   UNL     1      36.929  -1.455  17.558  0.00  0.00    +0.000 A 
ATOM     13  N   UNL     1      36.378  -0.871  16.487  0.00  0.00    +0.000 N 
ENDROOT
BRANCH   1  15
ATOM     14  C   UNL     1      41.129  -3.241  12.824  0.00  0.00    +0.000 C 
ATOM     15  C   UNL     1      39.925  -2.519  12.433  0.00  0.00    +0.000 C 
ATOM     16  O   UNL     1      39.665  -2.312  11.227  0.00  0.00    +0.000 OA
ENDBRANCH   1  15
BRANCH  13  17
ATOM     17  C   UNL     1      35.171  -0.124  16.334  0.00  0.00    +0.000 C 
BRANCH  17  18
ATOM     18  C   UNL     1      35.117   1.152  17.154  0.00  0.00    +0.000 C 
BRANCH  18  19
ATOM     19  C   UNL     1      35.351   2.378  16.295  0.00  0.00    +0.000 C 
BRANCH  19  20
ATOM     20  N   UNL     1      36.766   2.386  15.853  0.00  0.00    +0.000 NA
ATOM     21  C   UNL     1      36.624   2.560  14.379  0.00  0.00    +0.000 C 
ATOM     22  C   UNL     1      36.898   3.979  13.971  0.00  0.00    +0.000 C 
ATOM     23  C   UNL     1      38.381   4.235  14.203  0.00  0.00    +0.000 C 
ATOM     24  O   UNL     1      38.756   5.523  13.830  0.00  0.00    +0.000 OA
ATOM     25  C   UNL     1      38.635   3.989  15.693  0.00  0.00    +0.000 C 
ATOM     26  C   UNL     1      37.343   3.610  16.383  0.00  0.00    +0.000 C 
BRANCH  23  27
ATOM     27  C   UNL     1      39.129   3.190  13.471  0.00  0.00    +0.000 A 
ATOM     28  C   UNL     1      39.026   3.105  12.099  0.00  0.00    +0.000 A 
ATOM     29  C   UNL     1      39.738   2.108  11.428  0.00  0.00    +0.000 A 
ATOM     30  C   UNL     1      40.535   1.212  12.097  0.00  0.00    +0.000 A 
ATOM     31  C   UNL     1      40.637   1.296  13.478  0.00  0.00    +0.000 A 
ATOM     32  C   UNL     1      39.916   2.302  14.119  0.00  0.00    +0.000 A 
ENDBRANCH  23  27
ENDBRANCH  19  20
ENDBRANCH  18  19
ENDBRANCH  17  18
ENDBRANCH  13  17
TORSDOF 6
ENDMDL
MODEL 4
REMARK VINA RESULT:      -7.7      2.801      4.661
REMARK  Name = 
REMARK  6 active torsions:
REMARK  status: ('A' for Active; 'I' for Inactive)
REMARK    1  A    between atoms: C_2  and  C_4
REMARK    2  A    between atoms: N_16  and  C_17
REMARK    3  A    between atoms: C_17  and  C_18
REMARK    4  A    between atoms: C_18  and  C_19
REMARK    5  A    between atoms: C_19  and  N_20
REMARK    6  A    between atoms: C_23  and  C_25
REMARK                            x       y       z     vdW  Elec       q    Type
REMARK                         _______ _______ _______ _____ _____    ______ ____
ROOT
ATOM      1  C   UNL     1      41.728   6.614  19.597  0.00  0.00    +0.000 A 
ATOM      2  C   UNL     1      40.429   6.236  19.844  0.00  0.00    +0.000 A 
ATOM      3  C   UNL     1      39.557   5.854  18.826  0.00  0.00    +0.000 A 
ATOM      4  C   UNL     1      39.989   5.849  17.505  0.00  0.00    +0.000 A 
ATOM      5  C   UNL     1      41.277   6.219  17.246  0.00  0.00    +0.000 A 
ATOM      6  C   UNL     1      42.155   6.603  18.266  0.00  0.00    +0.000 A 
ATOM      7  C   UNL     1      41.403   6.135  15.877  0.00  0.00    +0.000 A 
ATOM      8  C   UNL     1      42.471   6.378  15.037  0.00  0.00    +0.000 A 
ATOM      9  C   UNL     1      42.389   6.226  13.652  0.00  0.00    +0.000 A 
ATOM     10  C   UNL     1      41.190   5.817  13.094  0.00  0.00    +0.000 A 
ATOM     11  C   UNL     1      40.118   5.571  13.922  0.00  0.00    +0.000 A 
ATOM     12  C   UNL     1      40.216   5.725  15.295  0.00  0.00    +0.000 A 
ATOM     13  N   UNL     1      39.362   5.555  16.312  0.00  0.00    +0.000 N 
ENDROOT
BRANCH   1  15
ATOM     14  C   UNL     1      43.280   6.077  21.512  0.00  0.00    +0.000 C 
ATOM     15  C   UNL     1      42.592   7.053  20.676  0.00  0.00    +0.000 C 
ATOM     16  O   UNL     1      42.733   8.280  20.875  0.00  0.00    +0.000 OA
ENDBRANCH   1  15
BRANCH  13  17
ATOM     17  C   UNL     1      37.978   5.203  16.335  0.00  0.00    +0.000 C 
BRANCH  17  18
ATOM     18  C   UNL     1      37.648   3.914  15.605  0.00  0.00    +0.000 C 
BRANCH  18  19
ATOM     19  C   UNL     1      36.536   3.150  16.296  0.00  0.00    +0.000 C 
BRANCH  19  20
ATOM     20  N   UNL     1      36.886   1.710  16.304  0.00  0.00    +0.000 NA
ATOM     21  C   UNL     1      36.471   1.304  17.679  0.00  0.00    +0.000 C 
ATOM     22  C   UNL     1      35.155   0.583  17.658  0.00  0.00    +0.000 C 
ATOM     23  C   UNL     1      35.383  -0.752  16.964  0.00  0.00    +0.000 C 
ATOM     24  O   UNL     1      34.225  -1.522  16.912  0.00  0.00    +0.000 OA
ATOM     25  C   UNL     1      35.900  -0.427  15.559  0.00  0.00    +0.000 C 
ATOM     26  C   UNL     1      35.973   1.072  15.368  0.00  0.00    +0.000 C 
BRANCH  23  27
ATOM     27  C   UNL     1      36.489  -1.434  17.671  0.00  0.00    +0.000 A 
ATOM     28  C   UNL     1      37.517  -2.005  16.952  0.00  0.00    +0.000 A 
ATOM     29  C   UNL     1      38.549  -2.646  17.641  0.00  0.00    +0.000 A 
ATOM     30  C   UNL     1      38.567  -2.723  19.012  0.00  0.00    +0.000 A 
ATOM     31  C   UNL     1      37.531  -2.150  19.735  0.00  0.00    +0.000 A 
ATOM     32  C   UNL     1      36.516  -1.515  19.020  0.00  0.00    +0.000 A 
ENDBRANCH  23  27
ENDBRANCH  19  20
ENDBRANCH  18  19
ENDBRANCH  17  18
ENDBRANCH  13  17
TORSDOF 6
ENDMDL
MODEL 5
REMARK VINA RESULT:      -7.7      2.058      7.408
REMARK  Name = 
REMARK  6 active torsions:
REMARK  status: ('A' for Active; 'I' for Inactive)
REMARK    1  A    between atoms: C_2  and  C_4
REMARK    2  A    between atoms: N_16  and  C_17
REMARK    3  A    between atoms: C_17  and  C_18
REMARK    4  A    between atoms: C_18  and  C_19
REMARK    5  A    between atoms: C_19  and  N_20
REMARK    6  A    between atoms: C_23  and  C_25
REMARK                            x       y       z     vdW  Elec       q    Type
REMARK                         _______ _______ _______ _____ _____    ______ ____
ROOT
ATOM      1  C   UNL     1      39.626  -1.236  13.907  0.00  0.00    +0.000 A 
ATOM      2  C   UNL     1      38.731  -0.366  13.330  0.00  0.00    +0.000 A 
ATOM      3  C   UNL     1      37.626   0.132  14.017  0.00  0.00    +0.000 A 
ATOM      4  C   UNL     1      37.395  -0.251  15.333  0.00  0.00    +0.000 A 
ATOM      5  C   UNL     1      38.277  -1.112  15.918  0.00  0.00    +0.000 A 
ATOM      6  C   UNL     1      39.388  -1.614  15.231  0.00  0.00    +0.000 A 
ATOM      7  C   UNL     1      37.784  -1.318  17.189  0.00  0.00    +0.000 A 
ATOM      8  C   UNL     1      38.248  -2.080  18.241  0.00  0.00    +0.000 A 
ATOM      9  C   UNL     1      37.589  -2.150  19.469  0.00  0.00    +0.000 A 
ATOM     10  C   UNL     1      36.421  -1.426  19.642  0.00  0.00    +0.000 A 
ATOM     11  C   UNL     1      35.949  -0.661  18.600  0.00  0.00    +0.000 A 
ATOM     12  C   UNL     1      36.615  -0.602  17.388  0.00  0.00    +0.000 A 
ATOM     13  N   UNL     1      36.395   0.045  16.237  0.00  0.00    +0.000 N 
ENDROOT
BRANCH   1  15
ATOM     14  C   UNL     1      41.825  -2.471  13.818  0.00  0.00    +0.000 C 
ATOM     15  C   UNL     1      40.738  -1.773  13.144  0.00  0.00    +0.000 C 
ATOM     16  O   UNL     1      40.744  -1.624  11.902  0.00  0.00    +0.000 OA
ENDBRANCH   1  15
BRANCH  13  17
ATOM     17  C   UNL     1      35.319   0.885  15.816  0.00  0.00    +0.000 C 
BRANCH  17  18
ATOM     18  C   UNL     1      35.456   2.336  16.240  0.00  0.00    +0.000 C 
BRANCH  18  19
ATOM     19  C   UNL     1      35.772   3.234  15.061  0.00  0.00    +0.000 C 
BRANCH  19  20
ATOM     20  N   UNL     1      36.411   4.472  15.567  0.00  0.00    +0.000 NA
ATOM     21  C   UNL     1      37.470   3.924  16.462  0.00  0.00    +0.000 C 
ATOM     22  C   UNL     1      38.817   3.967  15.800  0.00  0.00    +0.000 C 
ATOM     23  C   UNL     1      39.207   5.433  15.668  0.00  0.00    +0.000 C 
ATOM     24  O   UNL     1      40.462   5.592  15.086  0.00  0.00    +0.000 OA
ATOM     25  C   UNL     1      38.114   6.098  14.826  0.00  0.00    +0.000 C 
ATOM     26  C   UNL     1      37.077   5.074  14.422  0.00  0.00    +0.000 C 
BRANCH  23  27
ATOM     27  C   UNL     1      39.125   6.034  17.017  0.00  0.00    +0.000 A 
ATOM     28  C   UNL     1      39.916   5.548  18.035  0.00  0.00    +0.000 A 
ATOM     29  C   UNL     1      39.819   6.129  19.302  0.00  0.00    +0.000 A 
ATOM     30  C   UNL     1      38.958   7.167  19.559  0.00  0.00    +0.000 A 
ATOM     31  C   UNL     1      38.160   7.655  18.534  0.00  0.00    +0.000 A 
ATOM     32  C   UNL     1      38.281   7.056  17.281  0.00  0.00    +0.000 A 
ENDBRANCH  23  27
ENDBRANCH  19  20
ENDBRANCH  18  19
ENDBRANCH  17  18
ENDBRANCH  13  17
TORSDOF 6
ENDMDL
MODEL 6
REMARK VINA RESULT:      -7.5      1.696      3.375
REMARK  Name = 
REMARK  6 active torsions:
REMARK  status: ('A' for Active; 'I' for Inactive)
REMARK    1  A    between atoms: C_2  and  C_4
REMARK    2  A    between atoms: N_16  and  C_17
REMARK    3  A    between atoms: C_17  and  C_18
REMARK    4  A    between atoms: C_18  and  C_19
REMARK    5  A    between atoms: C_19  and  N_20
REMARK    6  A    between atoms: C_23  and  C_25
REMARK                            x       y       z     vdW  Elec       q    Type
REMARK                         _______ _______ _______ _____ _____    ______ ____
ROOT
ATOM      1  C   UNL     1      39.857   5.986  18.596  0.00  0.00    +0.000 A 
ATOM      2  C   UNL     1      38.709   5.251  18.414  0.00  0.00    +0.000 A 
ATOM      3  C   UNL     1      38.346   4.730  17.175  0.00  0.00    +0.000 A 
ATOM      4  C   UNL     1      39.154   4.947  16.064  0.00  0.00    +0.000 A 
ATOM      5  C   UNL     1      40.297   5.672  16.232  0.00  0.00    +0.000 A 
ATOM      6  C   UNL     1      40.665   6.197  17.476  0.00  0.00    +0.000 A 
ATOM      7  C   UNL     1      40.866   5.735  14.978  0.00  0.00    +0.000 A 
ATOM      8  C   UNL     1      42.029   6.324  14.526  0.00  0.00    +0.000 A 
ATOM      9  C   UNL     1      42.432   6.266  13.192  0.00  0.00    +0.000 A 
ATOM     10  C   UNL     1      41.636   5.593  12.281  0.00  0.00    +0.000 A 
ATOM     11  C   UNL     1      40.474   5.001  12.720  0.00  0.00    +0.000 A 
ATOM     12  C   UNL     1      40.088   5.066  14.048  0.00  0.00    +0.000 A 
ATOM     13  N   UNL     1      39.043   4.590  14.736  0.00  0.00    +0.000 N 
ENDROOT
BRANCH   1  15
ATOM     14  C   UNL     1      41.520   6.424  20.443  0.00  0.00    +0.000 C 
ATOM     15  C   UNL     1      40.177   6.555  19.892  0.00  0.00    +0.000 C 
ATOM     16  O   UNL     1      39.282   7.158  20.523  0.00  0.00    +0.000 OA
ENDBRANCH   1  15
BRANCH  13  17
ATOM     17  C   UNL     1      37.880   3.875  14.315  0.00  0.00    +0.000 C 
BRANCH  17  18
ATOM     18  C   UNL     1      38.074   2.374  14.205  0.00  0.00    +0.000 C 
BRANCH  18  19
ATOM     19  C   UNL     1      37.259   1.629  15.243  0.00  0.00    +0.000 C 
BRANCH  19  20
ATOM     20  N   UNL     1      37.945   0.354  15.559  0.00  0.00    +0.000 NA
ATOM     21  C   UNL     1      36.936  -0.653  15.118  0.00  0.00    +0.000 C 
ATOM     22  C   UNL     1      37.301  -1.239  13.785  0.00  0.00    +0.000 C 
ATOM     23  C   UNL     1      38.553  -2.081  13.992  0.00  0.00    +0.000 C 
ATOM     24  O   UNL     1      38.970  -2.700  12.817  0.00  0.00    +0.000 OA
ATOM     25  C   UNL     1      39.627  -1.133  14.534  0.00  0.00    +0.000 C 
ATOM     26  C   UNL     1      39.072   0.270  14.644  0.00  0.00    +0.000 C 
BRANCH  23  27
ATOM     27  C   UNL     1      38.261  -3.048  15.073  0.00  0.00    +0.000 A 
ATOM     28  C   UNL     1      39.087  -3.117  16.175  0.00  0.00    +0.000 A 
ATOM     29  C   UNL     1      38.793  -4.040  17.181  0.00  0.00    +0.000 A 
ATOM     30  C   UNL     1      37.708  -4.878  17.103  0.00  0.00    +0.000 A 
ATOM     31  C   UNL     1      36.879  -4.809  15.993  0.00  0.00    +0.000 A 
ATOM     32  C   UNL     1      37.196  -3.877  15.005  0.00  0.00    +0.000 A 
ENDBRANCH  23  27
ENDBRANCH  19  20
ENDBRANCH  18  19
ENDBRANCH  17  18
ENDBRANCH  13  17
TORSDOF 6
ENDMDL
MODEL 7
REMARK VINA RESULT:      -7.5      1.911      4.011
REMARK  Name = 
REMARK  6 active torsions:
REMARK  status: ('A' for Active; 'I' for Inactive)
REMARK    1  A    between atoms: C_2  and  C_4
REMARK    2  A    between atoms: N_16  and  C_17
REMARK    3  A    between atoms: C_17  and  C_18
REMARK    4  A    between atoms: C_18  and  C_19
REMARK    5  A    between atoms: C_19  and  N_20
REMARK    6  A    between atoms: C_23  and  C_25
REMARK                            x       y       z     vdW  Elec       q    Type
REMARK                         _______ _______ _______ _____ _____    ______ ____
ROOT
ATOM      1  C   UNL     1      42.161   6.772  20.018  0.00  0.00    +0.000 A 
ATOM      2  C   UNL     1      40.839   6.486  20.271  0.00  0.00    +0.000 A 
ATOM      3  C   UNL     1      39.939   6.164  19.257  0.00  0.00    +0.000 A 
ATOM      4  C   UNL     1      40.364   6.127  17.934  0.00  0.00    +0.000 A 
ATOM      5  C   UNL     1      41.674   6.406  17.670  0.00  0.00    +0.000 A 
ATOM      6  C   UNL     1      42.580   6.729  18.686  0.00  0.00    +0.000 A 
ATOM      7  C   UNL     1      41.788   6.311  16.300  0.00  0.00    +0.000 A 
ATOM      8  C   UNL     1      42.867   6.477  15.456  0.00  0.00    +0.000 A 
ATOM      9  C   UNL     1      42.769   6.329  14.072  0.00  0.00    +0.000 A 
ATOM     10  C   UNL     1      41.542   6.004  13.519  0.00  0.00    +0.000 A 
ATOM     11  C   UNL     1      40.460   5.835  14.351  0.00  0.00    +0.000 A 
ATOM     12  C   UNL     1      40.573   5.984  15.723  0.00  0.00    +0.000 A 
ATOM     13  N   UNL     1      39.713   5.875  16.744  0.00  0.00    +0.000 N 
ENDROOT
BRANCH   1  15
ATOM     14  C   UNL     1      43.727   6.130  21.889  0.00  0.00    +0.000 C 
ATOM     15  C   UNL     1      43.057   7.151  21.093  0.00  0.00    +0.000 C 
ATOM     16  O   UNL     1      43.243   8.366  21.323  0.00  0.00    +0.000 OA
ENDBRANCH   1  15
BRANCH  13  17
ATOM     17  C   UNL     1      38.308   5.621  16.774  0.00  0.00    +0.000 C 
BRANCH  17  18
ATOM     18  C   UNL     1      37.940   4.181  17.080  0.00  0.00    +0.000 C 
BRANCH  18  19
ATOM     19  C   UNL     1      37.371   3.479  15.863  0.00  0.00    +0.000 C 
BRANCH  19  20
ATOM     20  N   UNL     1      38.053   2.173  15.706  0.00  0.00    +0.000 NA
ATOM     21  C   UNL     1      36.898   1.245  15.537  0.00  0.00    +0.000 C 
ATOM     22  C   UNL     1      36.705   0.875  14.095  0.00  0.00    +0.000 C 
ATOM     23  C   UNL     1      37.895   0.016  13.688  0.00  0.00    +0.000 C 
ATOM     24  O   UNL     1      37.806  -0.411  12.366  0.00  0.00    +0.000 OA
ATOM     25  C   UNL     1      39.144   0.871  13.915  0.00  0.00    +0.000 C 
ATOM     26  C   UNL     1      38.750   2.238  14.431  0.00  0.00    +0.000 C 
BRANCH  23  27
ATOM     27  C   UNL     1      37.975  -1.109  14.645  0.00  0.00    +0.000 A 
ATOM     28  C   UNL     1      39.154  -1.361  15.312  0.00  0.00    +0.000 A 
ATOM     29  C   UNL     1      39.208  -2.432  16.208  0.00  0.00    +0.000 A 
ATOM     30  C   UNL     1      38.120  -3.236  16.442  0.00  0.00    +0.000 A 
ATOM     31  C   UNL     1      36.933  -2.982  15.770  0.00  0.00    +0.000 A 
ATOM     32  C   UNL     1      36.910  -1.907  14.883  0.00  0.00    +0.000 A 
ENDBRANCH  23  27
ENDBRANCH  19  20
ENDBRANCH  18  19
ENDBRANCH  17  18
ENDBRANCH  13  17
TORSDOF 6
ENDMDL
MODEL 8
REMARK VINA RESULT:      -7.4      1.665      8.001
REMARK  Name = 
REMARK  6 active torsions:
REMARK  status: ('A' for Active; 'I' for Inactive)
REMARK    1  A    between atoms: C_2  and  C_4
REMARK    2  A    between atoms: N_16  and  C_17
REMARK    3  A    between atoms: C_17  and  C_18
REMARK    4  A    between atoms: C_18  and  C_19
REMARK    5  A    between atoms: C_19  and  N_20
REMARK    6  A    between atoms: C_23  and  C_25
REMARK                            x       y       z     vdW  Elec       q    Type
REMARK                         _______ _______ _______ _____ _____    ______ ____
ROOT
ATOM      1  C   UNL     1      40.414  -0.862  14.282  0.00  0.00    +0.000 A 
ATOM      2  C   UNL     1      40.542   0.485  14.032  0.00  0.00    +0.000 A 
ATOM      3  C   UNL     1      39.562   1.407  14.395  0.00  0.00    +0.000 A 
ATOM      4  C   UNL     1      38.402   0.977  15.030  0.00  0.00    +0.000 A 
ATOM      5  C   UNL     1      38.264  -0.357  15.285  0.00  0.00    +0.000 A 
ATOM      6  C   UNL     1      39.247  -1.285  14.922  0.00  0.00    +0.000 A 
ATOM      7  C   UNL     1      37.032  -0.477  15.891  0.00  0.00    +0.000 A 
ATOM      8  C   UNL     1      36.354  -1.574  16.380  0.00  0.00    +0.000 A 
ATOM      9  C   UNL     1      35.093  -1.478  16.971  0.00  0.00    +0.000 A 
ATOM     10  C   UNL     1      34.496  -0.233  17.072  0.00  0.00    +0.000 A 
ATOM     11  C   UNL     1      35.163   0.868  16.589  0.00  0.00    +0.000 A 
ATOM     12  C   UNL     1      36.415   0.757  16.005  0.00  0.00    +0.000 A 
ATOM     13  N   UNL     1      37.273   1.634  15.471  0.00  0.00    +0.000 N 
ENDROOT
BRANCH   1  15
ATOM     14  C   UNL     1      42.726  -1.313  13.379  0.00  0.00    +0.000 C 
ATOM     15  C   UNL     1      41.432  -1.797  13.844  0.00  0.00    +0.000 C 
ATOM     16  O   UNL     1      41.179  -3.022  13.874  0.00  0.00    +0.000 OA
ENDBRANCH   1  15
BRANCH  13  17
ATOM     17  C   UNL     1      37.169   3.041  15.247  0.00  0.00    +0.000 C 
BRANCH  17  18
ATOM     18  C   UNL     1      37.574   3.895  16.435  0.00  0.00    +0.000 C 
BRANCH  18  19
ATOM     19  C   UNL     1      38.827   4.696  16.145  0.00  0.00    +0.000 C 
BRANCH  19  20
ATOM     20  N   UNL     1      39.436   5.106  17.433  0.00  0.00    +0.000 NA
ATOM     21  C   UNL     1      40.576   5.953  16.974  0.00  0.00    +0.000 C 
ATOM     22  C   UNL     1      40.256   7.413  17.110  0.00  0.00    +0.000 C 
ATOM     23  C   UNL     1      40.180   7.721  18.599  0.00  0.00    +0.000 C 
ATOM     24  O   UNL     1      39.913   9.065  18.844  0.00  0.00    +0.000 OA
ATOM     25  C   UNL     1      39.081   6.821  19.172  0.00  0.00    +0.000 C 
ATOM     26  C   UNL     1      38.469   5.985  18.070  0.00  0.00    +0.000 C 
BRANCH  23  27
ATOM     27  C   UNL     1      41.451   7.273  19.207  0.00  0.00    +0.000 A 
ATOM     28  C   UNL     1      41.432   6.487  20.339  0.00  0.00    +0.000 A 
ATOM     29  C   UNL     1      42.646   6.078  20.898  0.00  0.00    +0.000 A 
ATOM     30  C   UNL     1      43.853   6.438  20.352  0.00  0.00    +0.000 A 
ATOM     31  C   UNL     1      43.872   7.231  19.214  0.00  0.00    +0.000 A 
ATOM     32  C   UNL     1      42.646   7.622  18.678  0.00  0.00    +0.000 A 
ENDBRANCH  23  27
ENDBRANCH  19  20
ENDBRANCH  18  19
ENDBRANCH  17  18
ENDBRANCH  13  17
TORSDOF 6
ENDMDL
MODEL 9
REMARK VINA RESULT:      -7.4      1.705      2.729
REMARK  Name = 
REMARK  6 active torsions:
REMARK  status: ('A' for Active; 'I' for Inactive)
REMARK    1  A    between atoms: C_2  and  C_4
REMARK    2  A    between atoms: N_16  and  C_17
REMARK    3  A    between atoms: C_17  and  C_18
REMARK    4  A    between atoms: C_18  and  C_19
REMARK    5  A    between atoms: C_19  and  N_20
REMARK    6  A    between atoms: C_23  and  C_25
REMARK                            x       y       z     vdW  Elec       q    Type
REMARK                         _______ _______ _______ _____ _____    ______ ____
ROOT
ATOM      1  C   UNL     1      39.510   5.700  17.568  0.00  0.00    +0.000 A 
ATOM      2  C   UNL     1      39.547   6.281  16.322  0.00  0.00    +0.000 A 
ATOM      3  C   UNL     1      38.739   5.849  15.273  0.00  0.00    +0.000 A 
ATOM      4  C   UNL     1      37.855   4.793  15.464  0.00  0.00    +0.000 A 
ATOM      5  C   UNL     1      37.807   4.209  16.697  0.00  0.00    +0.000 A 
ATOM      6  C   UNL     1      38.618   4.641  17.752  0.00  0.00    +0.000 A 
ATOM      7  C   UNL     1      36.874   3.201  16.576  0.00  0.00    +0.000 A 
ATOM      8  C   UNL     1      36.396   2.280  17.486  0.00  0.00    +0.000 A 
ATOM      9  C   UNL     1      35.430   1.329  17.156  0.00  0.00    +0.000 A 
ATOM     10  C   UNL     1      34.929   1.304  15.865  0.00  0.00    +0.000 A 
ATOM     11  C   UNL     1      35.399   2.217  14.950  0.00  0.00    +0.000 A 
ATOM     12  C   UNL     1      36.357   3.157  15.293  0.00  0.00    +0.000 A 
ATOM     13  N   UNL     1      36.973   4.142  14.627  0.00  0.00    +0.000 N 
ENDROOT
BRANCH   1  15
ATOM     14  C   UNL     1      39.870   6.551  19.916  0.00  0.00    +0.000 C 
ATOM     15  C   UNL     1      40.403   6.144  18.621  0.00  0.00    +0.000 C 
ATOM     16  O   UNL     1      41.633   6.172  18.398  0.00  0.00    +0.000 OA
ENDBRANCH   1  15
BRANCH  13  17
ATOM     17  C   UNL     1      36.903   4.546  13.259  0.00  0.00    +0.000 C 
BRANCH  17  18
ATOM     18  C   UNL     1      37.269   3.458  12.267  0.00  0.00    +0.000 C 
BRANCH  18  19
ATOM     19  C   UNL     1      38.746   3.121  12.327  0.00  0.00    +0.000 C 
BRANCH  19  20
ATOM     20  N   UNL     1      38.900   1.650  12.246  0.00  0.00    +0.000 NA
ATOM     21  C   UNL     1      39.691   1.358  13.477  0.00  0.00    +0.000 C 
ATOM     22  C   UNL     1      38.815   0.814  14.568  0.00  0.00    +0.000 C 
ATOM     23  C   UNL     1      38.352  -0.568  14.126  0.00  0.00    +0.000 C 
ATOM     24  O   UNL     1      37.549  -1.183  15.083  0.00  0.00    +0.000 OA
ATOM     25  C   UNL     1      37.598  -0.370  12.808  0.00  0.00    +0.000 C 
ATOM     26  C   UNL     1      37.569   1.097  12.443  0.00  0.00    +0.000 C 
BRANCH  23  27
ATOM     27  C   UNL     1      39.561  -1.357  13.805  0.00  0.00    +0.000 A 
ATOM     28  C   UNL     1      39.659  -2.001  12.591  0.00  0.00    +0.000 A 
ATOM     29  C   UNL     1      40.809  -2.744  12.311  0.00  0.00    +0.000 A 
ATOM     30  C   UNL     1      41.841  -2.848  13.210  0.00  0.00    +0.000 A 
ATOM     31  C   UNL     1      41.742  -2.200  14.433  0.00  0.00    +0.000 A 
ATOM     32  C   UNL     1      40.583  -1.466  14.684  0.00  0.00    +0.000 A 
ENDBRANCH  23  27
ENDBRANCH  19  20
ENDBRANCH  18  19
ENDBRANCH  17  18
ENDBRANCH  13  17
TORSDOF 6
ENDMDL
MODEL 10
REMARK VINA RESULT:      -7.4     24.976     27.591
REMARK  Name = 
REMARK  6 active torsions:
REMARK  status: ('A' for Active; 'I' for Inactive)
REMARK    1  A    between atoms: C_2  and  C_4
REMARK    2  A    between atoms: N_16  and  C_17
REMARK    3  A    between atoms: C_17  and  C_18
REMARK    4  A    between atoms: C_18  and  C_19
REMARK    5  A    between atoms: C_19  and  N_20
REMARK    6  A    between atoms: C_23  and  C_25
REMARK                            x       y       z     vdW  Elec       q    Type
REMARK                         _______ _______ _______ _____ _____    ______ ____
ROOT
ATOM      1  C   UNL     1      23.677  20.401  33.418  0.00  0.00    +0.000 A 
ATOM      2  C   UNL     1      23.948  20.630  34.747  0.00  0.00    +0.000 A 
ATOM      3  C   UNL     1      24.502  19.656  35.574  0.00  0.00    +0.000 A 
ATOM      4  C   UNL     1      24.800  18.397  35.064  0.00  0.00    +0.000 A 
ATOM      5  C   UNL     1      24.538  18.157  33.747  0.00  0.00    +0.000 A 
ATOM      6  C   UNL     1      23.981  19.133  32.913  0.00  0.00    +0.000 A 
ATOM      7  C   UNL     1      24.912  16.846  33.543  0.00  0.00    +0.000 A 
ATOM      8  C   UNL     1      24.889  16.050  32.416  0.00  0.00    +0.000 A 
ATOM      9  C   UNL     1      25.324  14.724  32.423  0.00  0.00    +0.000 A 
ATOM     10  C   UNL     1      25.798  14.182  33.605  0.00  0.00    +0.000 A 
ATOM     11  C   UNL     1      25.826  14.966  34.735  0.00  0.00    +0.000 A 
ATOM     12  C   UNL     1      25.392  16.281  34.712  0.00  0.00    +0.000 A 
ATOM     13  N   UNL     1      25.315  17.250  35.633  0.00  0.00    +0.000 N 
ENDROOT
BRANCH   1  15
ATOM     14  C   UNL     1      23.044  22.813  33.038  0.00  0.00    +0.000 C 
ATOM     15  C   UNL     1      23.052  21.423  32.600  0.00  0.00    +0.000 C 
ATOM     16  O   UNL     1      22.523  21.089  31.517  0.00  0.00    +0.000 OA
ENDBRANCH   1  15
BRANCH  13  17
ATOM     17  C   UNL     1      25.604  17.251  37.031  0.00  0.00    +0.000 C 
BRANCH  17  18
ATOM     18  C   UNL     1      27.016  16.816  37.378  0.00  0.00    +0.000 C 
BRANCH  18  19
ATOM     19  C   UNL     1      28.051  17.720  36.737  0.00  0.00    +0.000 C 
BRANCH  19  20
ATOM     20  N   UNL     1      29.389  17.107  36.911  0.00  0.00    +0.000 NA
ATOM     21  C   UNL     1      29.145  15.709  36.452  0.00  0.00    +0.000 C 
ATOM     22  C   UNL     1      29.661  15.498  35.058  0.00  0.00    +0.000 C 
ATOM     23  C   UNL     1      31.181  15.574  35.125  0.00  0.00    +0.000 C 
ATOM     24  O   UNL     1      31.771  15.363  33.882  0.00  0.00    +0.000 OA
ATOM     25  C   UNL     1      31.521  16.962  35.676  0.00  0.00    +0.000 C 
ATOM     26  C   UNL     1      30.251  17.744  35.929  0.00  0.00    +0.000 C 
BRANCH  23  27
ATOM     27  C   UNL     1      31.627  14.596  36.141  0.00  0.00    +0.000 A 
ATOM     28  C   UNL     1      31.346  13.257  35.976  0.00  0.00    +0.000 A 
ATOM     29  C   UNL     1      31.774  12.352  36.950  0.00  0.00    +0.000 A 
ATOM     30  C   UNL     1      32.465  12.759  38.065  0.00  0.00    +0.000 A 
ATOM     31  C   UNL     1      32.745  14.108  38.232  0.00  0.00    +0.000 A 
ATOM     32  C   UNL     1      32.307  14.987  37.242  0.00  0.00    +0.000 A 
ENDBRANCH  23  27
ENDBRANCH  19  20
ENDBRANCH  18  19
ENDBRANCH  17  18
ENDBRANCH  13  17
TORSDOF 6
ENDMDL
