MODEL 1
REMARK VINA RESULT:      -8.1      0.000      0.000
REMARK  Name = 
REMARK  7 active torsions:
REMARK  status: ('A' for Active; 'I' for Inactive)
REMARK    1  A    between atoms: O_2  and  C_3
REMARK    2  A    between atoms: C_13  and  C_14
REMARK    3  A    between atoms: C_20  and  C_21
REMARK    4  A    between atoms: C_24  and  O_25
REMARK    5  A    between atoms: O_25  and  C_26
REMARK    6  A    between atoms: C_26  and  C_27
REMARK    7  A    between atoms: C_27  and  N_28
REMARK                            x       y       z     vdW  Elec       q    Type
REMARK                         _______ _______ _______ _____ _____    ______ ____
ROOT
ATOM      1  C   UNL     1      41.907  -1.278  13.360  0.00  0.00    +0.000 A 
ATOM      2  C   UNL     1      41.103  -1.611  12.292  0.00  0.00    +0.000 A 
ATOM      3  C   UNL     1      39.744  -1.826  12.430  0.00  0.00    +0.000 A 
ATOM      4  C   UNL     1      39.202  -1.697  13.685  0.00  0.00    +0.000 A 
ATOM      5  C   UNL     1      39.949  -1.369  14.786  0.00  0.00    +0.000 A 
ATOM      6  C   UNL     1      41.298  -1.165  14.591  0.00  0.00    +0.000 A 
ATOM      7  O   UNL     1      39.315  -1.260  16.024  0.00  0.00    +0.000 OA
ATOM      8  C   UNL     1      38.290  -2.106  16.389  0.00  0.00    +0.000 C 
ATOM      9  C   UNL     1      37.369  -1.714  17.421  0.00  0.00    +0.000 C 
ATOM     10  C   UNL     1      39.072  -3.312  17.036  0.00  0.00    +0.000 C 
ATOM     11  C   UNL     1      37.732  -2.890  15.163  0.00  0.00    +0.000 C 
ATOM     12  C   UNL     1      37.666  -1.936  13.851  0.00  0.00    +0.000 C 
ENDROOT
BRANCH  11  13
ATOM     13  C   UNL     1      36.245  -3.111  15.465  0.00  0.00    +0.000 A 
ATOM     14  C   UNL     1      35.472  -2.655  16.430  0.00  0.00    +0.000 A 
ATOM     15  C   UNL     1      34.146  -2.980  16.518  0.00  0.00    +0.000 A 
ATOM     16  C   UNL     1      33.608  -3.806  15.569  0.00  0.00    +0.000 A 
ATOM     17  C   UNL     1      34.361  -4.323  14.528  0.00  0.00    +0.000 A 
ATOM     18  C   UNL     1      35.696  -3.928  14.536  0.00  0.00    +0.000 A 
ENDBRANCH  11  13
BRANCH  12  19
ATOM     19  C   UNL     1      37.150  -0.563  14.208  0.00  0.00    +0.000 A 
ATOM     20  C   UNL     1      36.157  -0.135  14.973  0.00  0.00    +0.000 A 
ATOM     21  C   UNL     1      35.790   1.162  15.202  0.00  0.00    +0.000 A 
ATOM     22  C   UNL     1      36.519   2.142  14.581  0.00  0.00    +0.000 A 
ATOM     23  C   UNL     1      37.572   1.785  13.766  0.00  0.00    +0.000 A 
ATOM     24  C   UNL     1      37.895   0.449  13.573  0.00  0.00    +0.000 A 
BRANCH  22  25
ATOM     25  O   UNL     1      36.216   3.512  14.758  0.00  0.00    +0.000 OA
BRANCH  25  26
ATOM     26  C   UNL     1      37.221   4.339  15.246  0.00  0.00    +0.000 C 
BRANCH  26  27
ATOM     27  C   UNL     1      37.538   3.907  16.660  0.00  0.00    +0.000 C 
BRANCH  27  28
ATOM     28  N   UNL     1      38.810   4.421  17.112  0.00  0.00    +0.000 NA
ATOM     29  C   UNL     1      38.719   5.032  18.417  0.00  0.00    +0.000 C 
ATOM     30  C   UNL     1      39.979   5.821  18.568  0.00  0.00    +0.000 C 
ATOM     31  C   UNL     1      40.431   6.057  17.131  0.00  0.00    +0.000 C 
ATOM     32  C   UNL     1      39.314   5.481  16.286  0.00  0.00    +0.000 C 
ENDBRANCH  27  28
ENDBRANCH  26  27
ENDBRANCH  25  26
ENDBRANCH  22  25
ENDBRANCH  12  19
BRANCH   1  34
ATOM     33  C   UNL     1      43.918   0.021  13.756  0.00  0.00    +0.000 C 
ATOM     34  O   UNL     1      43.265  -1.075  13.155  0.00  0.00    +0.000 OA
ENDBRANCH   1  34
TORSDOF 7
ENDMDL
MODEL 2
REMARK VINA RESULT:      -7.9      5.973     11.178
REMARK  Name = 
REMARK  7 active torsions:
REMARK  status: ('A' for Active; 'I' for Inactive)
REMARK    1  A    between atoms: O_2  and  C_3
REMARK    2  A    between atoms: C_13  and  C_14
REMARK    3  A    between atoms: C_20  and  C_21
REMARK    4  A    between atoms: C_24  and  O_25
REMARK    5  A    between atoms: O_25  and  C_26
REMARK    6  A    between atoms: C_26  and  C_27
REMARK    7  A    between atoms: C_27  and  N_28
REMARK                            x       y       z     vdW  Elec       q    Type
REMARK                         _______ _______ _______ _____ _____    ______ ____
ROOT
ATOM      1  C   UNL     1      38.285   5.387  16.261  0.00  0.00    +0.000 A 
ATOM      2  C   UNL     1      38.188   4.692  17.447  0.00  0.00    +0.000 A 
ATOM      3  C   UNL     1      38.977   4.988  18.543  0.00  0.00    +0.000 A 
ATOM      4  C   UNL     1      39.880   6.015  18.420  0.00  0.00    +0.000 A 
ATOM      5  C   UNL     1      40.024   6.744  17.268  0.00  0.00    +0.000 A 
ATOM      6  C   UNL     1      39.212   6.406  16.207  0.00  0.00    +0.000 A 
ATOM      7  O   UNL     1      40.967   7.770  17.231  0.00  0.00    +0.000 OA
ATOM      8  C   UNL     1      42.184   7.657  17.869  0.00  0.00    +0.000 C 
ATOM      9  C   UNL     1      42.929   8.840  18.208  0.00  0.00    +0.000 C 
ATOM     10  C   UNL     1      43.073   6.970  16.763  0.00  0.00    +0.000 C 
ATOM     11  C   UNL     1      42.194   6.467  18.874  0.00  0.00    +0.000 C 
ATOM     12  C   UNL     1      40.775   6.360  19.655  0.00  0.00    +0.000 C 
ENDROOT
BRANCH  11  13
ATOM     13  C   UNL     1      43.140   6.896  20.002  0.00  0.00    +0.000 A 
ATOM     14  C   UNL     1      44.042   7.855  20.069  0.00  0.00    +0.000 A 
ATOM     15  C   UNL     1      44.793   8.074  21.191  0.00  0.00    +0.000 A 
ATOM     16  C   UNL     1      44.598   7.267  22.279  0.00  0.00    +0.000 A 
ATOM     17  C   UNL     1      43.669   6.239  22.279  0.00  0.00    +0.000 A 
ATOM     18  C   UNL     1      42.962   6.107  21.088  0.00  0.00    +0.000 A 
ENDBRANCH  11  13
BRANCH  12  19
ATOM     19  C   UNL     1      40.277   7.726  20.058  0.00  0.00    +0.000 A 
ATOM     20  C   UNL     1      40.883   8.878  20.306  0.00  0.00    +0.000 A 
ATOM     21  C   UNL     1      40.297  10.056  20.679  0.00  0.00    +0.000 A 
ATOM     22  C   UNL     1      38.934  10.065  20.818  0.00  0.00    +0.000 A 
ATOM     23  C   UNL     1      38.223   8.908  20.578  0.00  0.00    +0.000 A 
ATOM     24  C   UNL     1      38.877   7.743  20.202  0.00  0.00    +0.000 A 
BRANCH  22  25
ATOM     25  O   UNL     1      38.238  11.237  21.199  0.00  0.00    +0.000 OA
BRANCH  25  26
ATOM     26  C   UNL     1      38.470  12.395  20.465  0.00  0.00    +0.000 C 
BRANCH  26  27
ATOM     27  C   UNL     1      38.787  13.510  21.436  0.00  0.00    +0.000 C 
BRANCH  27  28
ATOM     28  N   UNL     1      37.777  13.639  22.461  0.00  0.00    +0.000 NA
ATOM     29  C   UNL     1      37.251  14.981  22.543  0.00  0.00    +0.000 C 
ATOM     30  C   UNL     1      36.528  15.038  23.850  0.00  0.00    +0.000 C 
ATOM     31  C   UNL     1      37.166  13.917  24.663  0.00  0.00    +0.000 C 
ATOM     32  C   UNL     1      38.284  13.402  23.782  0.00  0.00    +0.000 C 
ENDBRANCH  27  28
ENDBRANCH  26  27
ENDBRANCH  25  26
ENDBRANCH  22  25
ENDBRANCH  12  19
BRANCH   1  34
ATOM     33  C   UNL     1      36.791   3.800  15.194  0.00  0.00    +0.000 C 
ATOM     34  O   UNL     1      37.463   5.040  15.197  0.00  0.00    +0.000 OA
ENDBRANCH   1  34
TORSDOF 7
ENDMDL
MODEL 3
REMARK VINA RESULT:      -7.8      2.162      2.925
REMARK  Name = 
REMARK  7 active torsions:
REMARK  status: ('A' for Active; 'I' for Inactive)
REMARK    1  A    between atoms: O_2  and  C_3
REMARK    2  A    between atoms: C_13  and  C_14
REMARK    3  A    between atoms: C_20  and  C_21
REMARK    4  A    between atoms: C_24  and  O_25
REMARK    5  A    between atoms: O_25  and  C_26
REMARK    6  A    between atoms: C_26  and  C_27
REMARK    7  A    between atoms: C_27  and  N_28
REMARK                            x       y       z     vdW  Elec       q    Type
REMARK                         _______ _______ _______ _____ _____    ______ ____
ROOT
ATOM      1  C   UNL     1      42.163  -2.361  13.120  0.00  0.00    +0.000 A 
ATOM      2  C   UNL     1      41.351  -2.902  12.147  0.00  0.00    +0.000 A 
ATOM      3  C   UNL     1      39.979  -2.993  12.297  0.00  0.00    +0.000 A 
ATOM      4  C   UNL     1      39.432  -2.520  13.464  0.00  0.00    +0.000 A 
ATOM      5  C   UNL     1      40.185  -1.971  14.469  0.00  0.00    +0.000 A 
ATOM      6  C   UNL     1      41.547  -1.905  14.267  0.00  0.00    +0.000 A 
ATOM      7  O   UNL     1      39.546  -1.517  15.622  0.00  0.00    +0.000 OA
ATOM      8  C   UNL     1      38.463  -2.181  16.158  0.00  0.00    +0.000 C 
ATOM      9  C   UNL     1      37.558  -1.486  17.034  0.00  0.00    +0.000 C 
ATOM     10  C   UNL     1      39.157  -3.230  17.108  0.00  0.00    +0.000 C 
ATOM     11  C   UNL     1      37.870  -3.212  15.152  0.00  0.00    +0.000 C 
ATOM     12  C   UNL     1      37.882  -2.616  13.642  0.00  0.00    +0.000 C 
ENDROOT
BRANCH  11  13
ATOM     13  C   UNL     1      36.368  -3.260  15.458  0.00  0.00    +0.000 A 
ATOM     14  C   UNL     1      35.652  -2.702  16.414  0.00  0.00    +0.000 A 
ATOM     15  C   UNL     1      34.299  -2.874  16.508  0.00  0.00    +0.000 A 
ATOM     16  C   UNL     1      33.670  -3.655  15.576  0.00  0.00    +0.000 A 
ATOM     17  C   UNL     1      34.359  -4.273  14.545  0.00  0.00    +0.000 A 
ATOM     18  C   UNL     1      35.729  -4.029  14.545  0.00  0.00    +0.000 A 
ENDBRANCH  11  13
BRANCH  12  19
ATOM     19  C   UNL     1      37.453  -1.170  13.630  0.00  0.00    +0.000 A 
ATOM     20  C   UNL     1      36.608  -0.465  14.368  0.00  0.00    +0.000 A 
ATOM     21  C   UNL     1      36.304   0.861  14.237  0.00  0.00    +0.000 A 
ATOM     22  C   UNL     1      36.931   1.556  13.236  0.00  0.00    +0.000 A 
ATOM     23  C   UNL     1      37.827   0.899  12.419  0.00  0.00    +0.000 A 
ATOM     24  C   UNL     1      38.094  -0.450  12.603  0.00  0.00    +0.000 A 
BRANCH  22  25
ATOM     25  O   UNL     1      36.681   2.932  13.023  0.00  0.00    +0.000 OA
BRANCH  25  26
ATOM     26  C   UNL     1      37.028   3.817  14.037  0.00  0.00    +0.000 C 
BRANCH  26  27
ATOM     27  C   UNL     1      36.911   5.223  13.493  0.00  0.00    +0.000 C 
BRANCH  27  28
ATOM     28  N   UNL     1      35.551   5.553  13.133  0.00  0.00    +0.000 NA
ATOM     29  C   UNL     1      35.484   6.363  11.940  0.00  0.00    +0.000 C 
ATOM     30  C   UNL     1      34.096   6.916  11.920  0.00  0.00    +0.000 C 
ATOM     31  C   UNL     1      33.658   6.840  13.379  0.00  0.00    +0.000 C 
ATOM     32  C   UNL     1      34.890   6.361  14.117  0.00  0.00    +0.000 C 
ENDBRANCH  27  28
ENDBRANCH  26  27
ENDBRANCH  25  26
ENDBRANCH  22  25
ENDBRANCH  12  19
BRANCH   1  34
ATOM     33  C   UNL     1      44.046  -1.648  11.767  0.00  0.00    +0.000 C 
ATOM     34  O   UNL     1      43.533  -2.298  12.909  0.00  0.00    +0.000 OA
ENDBRANCH   1  34
TORSDOF 7
ENDMDL
MODEL 4
REMARK VINA RESULT:      -7.7      5.875     10.769
REMARK  Name = 
REMARK  7 active torsions:
REMARK  status: ('A' for Active; 'I' for Inactive)
REMARK    1  A    between atoms: O_2  and  C_3
REMARK    2  A    between atoms: C_13  and  C_14
REMARK    3  A    between atoms: C_20  and  C_21
REMARK    4  A    between atoms: C_24  and  O_25
REMARK    5  A    between atoms: O_25  and  C_26
REMARK    6  A    between atoms: C_26  and  C_27
REMARK    7  A    between atoms: C_27  and  N_28
REMARK                            x       y       z     vdW  Elec       q    Type
REMARK                         _______ _______ _______ _____ _____    ______ ____
ROOT
ATOM      1  C   UNL     1      38.333   5.266  16.198  0.00  0.00    +0.000 A 
ATOM      2  C   UNL     1      38.200   4.617  17.407  0.00  0.00    +0.000 A 
ATOM      3  C   UNL     1      38.955   4.957  18.515  0.00  0.00    +0.000 A 
ATOM      4  C   UNL     1      39.861   5.981  18.379  0.00  0.00    +0.000 A 
ATOM      5  C   UNL     1      40.039   6.665  17.205  0.00  0.00    +0.000 A 
ATOM      6  C   UNL     1      39.260   6.284  16.134  0.00  0.00    +0.000 A 
ATOM      7  O   UNL     1      40.982   7.691  17.158  0.00  0.00    +0.000 OA
ATOM      8  C   UNL     1      42.179   7.605  17.836  0.00  0.00    +0.000 C 
ATOM      9  C   UNL     1      42.912   8.802  18.152  0.00  0.00    +0.000 C 
ATOM     10  C   UNL     1      43.102   6.878  16.785  0.00  0.00    +0.000 C 
ATOM     11  C   UNL     1      42.160   6.454  18.887  0.00  0.00    +0.000 C 
ATOM     12  C   UNL     1      40.717   6.374  19.627  0.00  0.00    +0.000 C 
ENDROOT
BRANCH  11  13
ATOM     13  C   UNL     1      43.070   6.929  20.026  0.00  0.00    +0.000 A 
ATOM     14  C   UNL     1      43.895   7.953  20.116  0.00  0.00    +0.000 A 
ATOM     15  C   UNL     1      44.628   8.202  21.244  0.00  0.00    +0.000 A 
ATOM     16  C   UNL     1      44.496   7.357  22.313  0.00  0.00    +0.000 A 
ATOM     17  C   UNL     1      43.649   6.262  22.288  0.00  0.00    +0.000 A 
ATOM     18  C   UNL     1      42.953   6.103  21.092  0.00  0.00    +0.000 A 
ENDBRANCH  11  13
BRANCH  12  19
ATOM     19  C   UNL     1      40.206   7.754  19.962  0.00  0.00    +0.000 A 
ATOM     20  C   UNL     1      40.802   8.887  20.303  0.00  0.00    +0.000 A 
ATOM     21  C   UNL     1      40.202  10.081  20.594  0.00  0.00    +0.000 A 
ATOM     22  C   UNL     1      38.835  10.131  20.532  0.00  0.00    +0.000 A 
ATOM     23  C   UNL     1      38.133   8.996  20.184  0.00  0.00    +0.000 A 
ATOM     24  C   UNL     1      38.800   7.812  19.900  0.00  0.00    +0.000 A 
BRANCH  22  25
ATOM     25  O   UNL     1      38.125  11.322  20.815  0.00  0.00    +0.000 OA
BRANCH  25  26
ATOM     26  C   UNL     1      38.504  12.477  20.139  0.00  0.00    +0.000 C 
BRANCH  26  27
ATOM     27  C   UNL     1      37.924  12.414  18.744  0.00  0.00    +0.000 C 
BRANCH  27  28
ATOM     28  N   UNL     1      36.480  12.380  18.759  0.00  0.00    +0.000 NA
ATOM     29  C   UNL     1      35.934  11.859  17.528  0.00  0.00    +0.000 C 
ATOM     30  C   UNL     1      34.487  12.232  17.553  0.00  0.00    +0.000 C 
ATOM     31  C   UNL     1      34.436  13.413  18.516  0.00  0.00    +0.000 C 
ATOM     32  C   UNL     1      35.886  13.682  18.857  0.00  0.00    +0.000 C 
ENDBRANCH  27  28
ENDBRANCH  26  27
ENDBRANCH  25  26
ENDBRANCH  22  25
ENDBRANCH  12  19
BRANCH   1  34
ATOM     33  C   UNL     1      36.629   3.814  15.264  0.00  0.00    +0.000 C 
ATOM     34  O   UNL     1      37.545   4.876  15.124  0.00  0.00    +0.000 OA
ENDBRANCH   1  34
TORSDOF 7
ENDMDL
MODEL 5
REMARK VINA RESULT:      -7.6      4.388     10.534
REMARK  Name = 
REMARK  7 active torsions:
REMARK  status: ('A' for Active; 'I' for Inactive)
REMARK    1  A    between atoms: O_2  and  C_3
REMARK    2  A    between atoms: C_13  and  C_14
REMARK    3  A    between atoms: C_20  and  C_21
REMARK    4  A    between atoms: C_24  and  O_25
REMARK    5  A    between atoms: O_25  and  C_26
REMARK    6  A    between atoms: C_26  and  C_27
REMARK    7  A    between atoms: C_27  and  N_28
REMARK                            x       y       z     vdW  Elec       q    Type
REMARK                         _______ _______ _______ _____ _____    ______ ____
ROOT
ATOM      1  C   UNL     1      45.475   5.860  20.665  0.00  0.00    +0.000 A 
ATOM      2  C   UNL     1      44.497   5.510  21.571  0.00  0.00    +0.000 A 
ATOM      3  C   UNL     1      43.197   5.971  21.469  0.00  0.00    +0.000 A 
ATOM      4  C   UNL     1      42.897   6.805  20.421  0.00  0.00    +0.000 A 
ATOM      5  C   UNL     1      43.824   7.190  19.488  0.00  0.00    +0.000 A 
ATOM      6  C   UNL     1      45.103   6.700  19.638  0.00  0.00    +0.000 A 
ATOM      7  O   UNL     1      43.431   8.041  18.456  0.00  0.00    +0.000 OA
ATOM      8  C   UNL     1      42.525   9.059  18.663  0.00  0.00    +0.000 C 
ATOM      9  C   UNL     1      41.800   9.612  17.550  0.00  0.00    +0.000 C 
ATOM     10  C   UNL     1      43.460  10.245  19.115  0.00  0.00    +0.000 C 
ATOM     11  C   UNL     1      41.776   8.891  20.019  0.00  0.00    +0.000 C 
ATOM     12  C   UNL     1      41.429   7.329  20.296  0.00  0.00    +0.000 C 
ENDROOT
BRANCH  11  13
ATOM     13  C   UNL     1      40.382   9.486  19.790  0.00  0.00    +0.000 A 
ATOM     14  C   UNL     1      39.623   9.546  18.714  0.00  0.00    +0.000 A 
ATOM     15  C   UNL     1      38.388  10.132  18.724  0.00  0.00    +0.000 A 
ATOM     16  C   UNL     1      37.928  10.675  19.894  0.00  0.00    +0.000 A 
ATOM     17  C   UNL     1      38.672  10.650  21.062  0.00  0.00    +0.000 A 
ATOM     18  C   UNL     1      39.911  10.029  20.938  0.00  0.00    +0.000 A 
ENDBRANCH  11  13
BRANCH  12  19
ATOM     19  C   UNL     1      40.938   6.656  19.038  0.00  0.00    +0.000 A 
ATOM     20  C   UNL     1      41.445   6.521  17.821  0.00  0.00    +0.000 A 
ATOM     21  C   UNL     1      40.875   5.882  16.755  0.00  0.00    +0.000 A 
ATOM     22  C   UNL     1      39.644   5.312  16.947  0.00  0.00    +0.000 A 
ATOM     23  C   UNL     1      39.043   5.405  18.184  0.00  0.00    +0.000 A 
ATOM     24  C   UNL     1      39.673   6.068  19.228  0.00  0.00    +0.000 A 
BRANCH  22  25
ATOM     25  O   UNL     1      38.976   4.629  15.903  0.00  0.00    +0.000 OA
BRANCH  25  26
ATOM     26  C   UNL     1      37.730   4.079  16.184  0.00  0.00    +0.000 C 
BRANCH  26  27
ATOM     27  C   UNL     1      37.610   2.777  15.426  0.00  0.00    +0.000 C 
BRANCH  27  28
ATOM     28  N   UNL     1      36.878   1.780  16.173  0.00  0.00    +0.000 NA
ATOM     29  C   UNL     1      36.590   0.607  15.381  0.00  0.00    +0.000 C 
ATOM     30  C   UNL     1      35.541  -0.133  16.146  0.00  0.00    +0.000 C 
ATOM     31  C   UNL     1      34.909   0.942  17.022  0.00  0.00    +0.000 C 
ATOM     32  C   UNL     1      35.578   2.227  16.584  0.00  0.00    +0.000 C 
ENDBRANCH  27  28
ENDBRANCH  26  27
ENDBRANCH  25  26
ENDBRANCH  22  25
ENDBRANCH  12  19
BRANCH   1  34
ATOM     33  C   UNL     1      47.305   4.484  19.864  0.00  0.00    +0.000 C 
ATOM     34  O   UNL     1      46.761   5.363  20.823  0.00  0.00    +0.000 OA
ENDBRANCH   1  34
TORSDOF 7
ENDMDL
MODEL 6
REMARK VINA RESULT:      -7.4      2.610      3.814
REMARK  Name = 
REMARK  7 active torsions:
REMARK  status: ('A' for Active; 'I' for Inactive)
REMARK    1  A    between atoms: O_2  and  C_3
REMARK    2  A    between atoms: C_13  and  C_14
REMARK    3  A    between atoms: C_20  and  C_21
REMARK    4  A    between atoms: C_24  and  O_25
REMARK    5  A    between atoms: O_25  and  C_26
REMARK    6  A    between atoms: C_26  and  C_27
REMARK    7  A    between atoms: C_27  and  N_28
REMARK                            x       y       z     vdW  Elec       q    Type
REMARK                         _______ _______ _______ _____ _____    ______ ____
ROOT
ATOM      1  C   UNL     1      38.322   1.408   9.587  0.00  0.00    +0.000 A 
ATOM      2  C   UNL     1      36.964   1.291   9.795  0.00  0.00    +0.000 A 
ATOM      3  C   UNL     1      36.435   0.901  11.012  0.00  0.00    +0.000 A 
ATOM      4  C   UNL     1      37.313   0.626  12.031  0.00  0.00    +0.000 A 
ATOM      5  C   UNL     1      38.672   0.724  11.887  0.00  0.00    +0.000 A 
ATOM      6  C   UNL     1      39.145   1.117  10.654  0.00  0.00    +0.000 A 
ATOM      7  O   UNL     1      39.491   0.425  12.976  0.00  0.00    +0.000 OA
ATOM      8  C   UNL     1      39.184  -0.595  13.852  0.00  0.00    +0.000 C 
ATOM      9  C   UNL     1      39.750  -0.598  15.175  0.00  0.00    +0.000 C 
ATOM     10  C   UNL     1      39.863  -1.838  13.161  0.00  0.00    +0.000 C 
ATOM     11  C   UNL     1      37.711  -1.073  13.680  0.00  0.00    +0.000 C 
ATOM     12  C   UNL     1      36.724   0.187  13.411  0.00  0.00    +0.000 C 
ENDROOT
BRANCH  11  13
ATOM     13  C   UNL     1      37.267  -1.528  15.076  0.00  0.00    +0.000 A 
ATOM     14  C   UNL     1      37.867  -1.466  16.247  0.00  0.00    +0.000 A 
ATOM     15  C   UNL     1      37.284  -1.937  17.391  0.00  0.00    +0.000 A 
ATOM     16  C   UNL     1      36.034  -2.491  17.312  0.00  0.00    +0.000 A 
ATOM     17  C   UNL     1      35.345  -2.589  16.114  0.00  0.00    +0.000 A 
ATOM     18  C   UNL     1      36.031  -2.079  15.016  0.00  0.00    +0.000 A 
ENDBRANCH  11  13
BRANCH  12  19
ATOM     19  C   UNL     1      37.074   1.347  14.309  0.00  0.00    +0.000 A 
ATOM     20  C   UNL     1      38.002   2.291  14.257  0.00  0.00    +0.000 A 
ATOM     21  C   UNL     1      38.214   3.293  15.163  0.00  0.00    +0.000 A 
ATOM     22  C   UNL     1      37.386   3.342  16.253  0.00  0.00    +0.000 A 
ATOM     23  C   UNL     1      36.391   2.397  16.387  0.00  0.00    +0.000 A 
ATOM     24  C   UNL     1      36.226   1.404  15.432  0.00  0.00    +0.000 A 
BRANCH  22  25
ATOM     25  O   UNL     1      37.528   4.342  17.244  0.00  0.00    +0.000 OA
BRANCH  25  26
ATOM     26  C   UNL     1      38.808   4.820  17.502  0.00  0.00    +0.000 C 
BRANCH  26  27
ATOM     27  C   UNL     1      38.757   6.331  17.481  0.00  0.00    +0.000 C 
BRANCH  27  28
ATOM     28  N   UNL     1      38.387   6.878  18.766  0.00  0.00    +0.000 NA
ATOM     29  C   UNL     1      37.717   8.152  18.643  0.00  0.00    +0.000 C 
ATOM     30  C   UNL     1      37.743   8.741  20.016  0.00  0.00    +0.000 C 
ATOM     31  C   UNL     1      38.908   8.026  20.693  0.00  0.00    +0.000 C 
ATOM     32  C   UNL     1      39.518   7.179  19.596  0.00  0.00    +0.000 C 
ENDBRANCH  27  28
ENDBRANCH  26  27
ENDBRANCH  25  26
ENDBRANCH  22  25
ENDBRANCH  12  19
BRANCH   1  34
ATOM     33  C   UNL     1      39.311   0.852   7.443  0.00  0.00    +0.000 C 
ATOM     34  O   UNL     1      38.790   1.805   8.342  0.00  0.00    +0.000 OA
ENDBRANCH   1  34
TORSDOF 7
ENDMDL
MODEL 7
REMARK VINA RESULT:      -7.3      2.013      2.888
REMARK  Name = 
REMARK  7 active torsions:
REMARK  status: ('A' for Active; 'I' for Inactive)
REMARK    1  A    between atoms: O_2  and  C_3
REMARK    2  A    between atoms: C_13  and  C_14
REMARK    3  A    between atoms: C_20  and  C_21
REMARK    4  A    between atoms: C_24  and  O_25
REMARK    5  A    between atoms: O_25  and  C_26
REMARK    6  A    between atoms: C_26  and  C_27
REMARK    7  A    between atoms: C_27  and  N_28
REMARK                            x       y       z     vdW  Elec       q    Type
REMARK                         _______ _______ _______ _____ _____    ______ ____
ROOT
ATOM      1  C   UNL     1      42.027  -1.832  12.189  0.00  0.00    +0.000 A 
ATOM      2  C   UNL     1      40.978  -1.946  11.302  0.00  0.00    +0.000 A 
ATOM      3  C   UNL     1      39.658  -1.945  11.715  0.00  0.00    +0.000 A 
ATOM      4  C   UNL     1      39.411  -1.825  13.060  0.00  0.00    +0.000 A 
ATOM      5  C   UNL     1      40.410  -1.708  13.992  0.00  0.00    +0.000 A 
ATOM      6  C   UNL     1      41.706  -1.715  13.524  0.00  0.00    +0.000 A 
ATOM      7  O   UNL     1      40.068  -1.591  15.339  0.00  0.00    +0.000 OA
ATOM      8  C   UNL     1      39.004  -2.283  15.877  0.00  0.00    +0.000 C 
ATOM      9  C   UNL     1      38.393  -1.824  17.096  0.00  0.00    +0.000 C 
ATOM     10  C   UNL     1      39.675  -3.646  16.296  0.00  0.00    +0.000 C 
ATOM     11  C   UNL     1      38.081  -2.868  14.766  0.00  0.00    +0.000 C 
ATOM     12  C   UNL     1      37.922  -1.820  13.537  0.00  0.00    +0.000 C 
ENDROOT
BRANCH  11  13
ATOM     13  C   UNL     1      36.670  -2.865  15.366  0.00  0.00    +0.000 A 
ATOM     14  C   UNL     1      36.171  -2.253  16.421  0.00  0.00    +0.000 A 
ATOM     15  C   UNL     1      34.860  -2.386  16.790  0.00  0.00    +0.000 A 
ATOM     16  C   UNL     1      34.043  -3.182  16.033  0.00  0.00    +0.000 A 
ATOM     17  C   UNL     1      34.500  -3.855  14.912  0.00  0.00    +0.000 A 
ATOM     18  C   UNL     1      35.847  -3.649  14.630  0.00  0.00    +0.000 A 
ENDBRANCH  11  13
BRANCH  12  19
ATOM     19  C   UNL     1      37.740  -0.412  14.050  0.00  0.00    +0.000 A 
ATOM     20  C   UNL     1      38.585   0.558  14.366  0.00  0.00    +0.000 A 
ATOM     21  C   UNL     1      38.274   1.803  14.838  0.00  0.00    +0.000 A 
ATOM     22  C   UNL     1      36.947   2.099  15.009  0.00  0.00    +0.000 A 
ATOM     23  C   UNL     1      35.999   1.146  14.704  0.00  0.00    +0.000 A 
ATOM     24  C   UNL     1      36.378  -0.101  14.228  0.00  0.00    +0.000 A 
BRANCH  22  25
ATOM     25  O   UNL     1      36.529   3.362  15.491  0.00  0.00    +0.000 OA
BRANCH  25  26
ATOM     26  C   UNL     1      35.835   4.191  14.616  0.00  0.00    +0.000 C 
BRANCH  26  27
ATOM     27  C   UNL     1      36.701   5.395  14.326  0.00  0.00    +0.000 C 
BRANCH  27  28
ATOM     28  N   UNL     1      36.727   5.718  12.918  0.00  0.00    +0.000 NA
ATOM     29  C   UNL     1      35.486   6.305  12.469  0.00  0.00    +0.000 C 
ATOM     30  C   UNL     1      35.534   6.229  10.978  0.00  0.00    +0.000 C 
ATOM     31  C   UNL     1      36.531   5.108  10.706  0.00  0.00    +0.000 C 
ATOM     32  C   UNL     1      36.868   4.563  12.078  0.00  0.00    +0.000 C 
ENDBRANCH  27  28
ENDBRANCH  26  27
ENDBRANCH  25  26
ENDBRANCH  22  25
ENDBRANCH  12  19
BRANCH   1  34
ATOM     33  C   UNL     1      44.397  -1.462  12.550  0.00  0.00    +0.000 C 
ATOM     34  O   UNL     1      43.329  -1.840  11.710  0.00  0.00    +0.000 OA
ENDBRANCH   1  34
TORSDOF 7
ENDMDL
MODEL 8
REMARK VINA RESULT:      -7.2      3.316      5.981
REMARK  Name = 
REMARK  7 active torsions:
REMARK  status: ('A' for Active; 'I' for Inactive)
REMARK    1  A    between atoms: O_2  and  C_3
REMARK    2  A    between atoms: C_13  and  C_14
REMARK    3  A    between atoms: C_20  and  C_21
REMARK    4  A    between atoms: C_24  and  O_25
REMARK    5  A    between atoms: O_25  and  C_26
REMARK    6  A    between atoms: C_26  and  C_27
REMARK    7  A    between atoms: C_27  and  N_28
REMARK                            x       y       z     vdW  Elec       q    Type
REMARK                         _______ _______ _______ _____ _____    ______ ____
ROOT
ATOM      1  C   UNL     1      40.909   0.724  13.981  0.00  0.00    +0.000 A 
ATOM      2  C   UNL     1      41.268   1.823  13.231  0.00  0.00    +0.000 A 
ATOM      3  C   UNL     1      40.471   2.951  13.145  0.00  0.00    +0.000 A 
ATOM      4  C   UNL     1      39.287   2.949  13.841  0.00  0.00    +0.000 A 
ATOM      5  C   UNL     1      38.875   1.889  14.604  0.00  0.00    +0.000 A 
ATOM      6  C   UNL     1      39.707   0.792  14.654  0.00  0.00    +0.000 A 
ATOM      7  O   UNL     1      37.657   1.974  15.277  0.00  0.00    +0.000 OA
ATOM      8  C   UNL     1      36.564   2.601  14.718  0.00  0.00    +0.000 C 
ATOM      9  C   UNL     1      35.501   3.077  15.562  0.00  0.00    +0.000 C 
ATOM     10  C   UNL     1      35.890   1.430  13.907  0.00  0.00    +0.000 C 
ATOM     11  C   UNL     1      36.969   3.466  13.486  0.00  0.00    +0.000 C 
ATOM     12  C   UNL     1      38.382   4.221  13.752  0.00  0.00    +0.000 C 
ENDROOT
BRANCH  11  13
ATOM     13  C   UNL     1      35.983   4.640  13.473  0.00  0.00    +0.000 A 
ATOM     14  C   UNL     1      35.069   5.025  14.341  0.00  0.00    +0.000 A 
ATOM     15  C   UNL     1      34.281   6.122  14.133  0.00  0.00    +0.000 A 
ATOM     16  C   UNL     1      34.451   6.844  12.983  0.00  0.00    +0.000 A 
ATOM     17  C   UNL     1      35.391   6.498  12.026  0.00  0.00    +0.000 A 
ATOM     18  C   UNL     1      36.137   5.366  12.340  0.00  0.00    +0.000 A 
ENDBRANCH  11  13
BRANCH  12  19
ATOM     19  C   UNL     1      38.442   4.774  15.154  0.00  0.00    +0.000 A 
ATOM     20  C   UNL     1      38.686   4.229  16.337  0.00  0.00    +0.000 A 
ATOM     21  C   UNL     1      38.698   4.860  17.551  0.00  0.00    +0.000 A 
ATOM     22  C   UNL     1      38.429   6.203  17.565  0.00  0.00    +0.000 A 
ATOM     23  C   UNL     1      38.163   6.851  16.377  0.00  0.00    +0.000 A 
ATOM     24  C   UNL     1      38.166   6.154  15.177  0.00  0.00    +0.000 A 
BRANCH  22  25
ATOM     25  O   UNL     1      38.419   6.941  18.772  0.00  0.00    +0.000 OA
BRANCH  25  26
ATOM     26  C   UNL     1      39.428   6.686  19.694  0.00  0.00    +0.000 C 
BRANCH  26  27
ATOM     27  C   UNL     1      40.182   7.975  19.932  0.00  0.00    +0.000 C 
BRANCH  27  28
ATOM     28  N   UNL     1      41.605   7.814  19.743  0.00  0.00    +0.000 NA
ATOM     29  C   UNL     1      41.933   7.388  18.403  0.00  0.00    +0.000 C 
ATOM     30  C   UNL     1      43.348   6.916  18.478  0.00  0.00    +0.000 C 
ATOM     31  C   UNL     1      43.539   6.582  19.953  0.00  0.00    +0.000 C 
ATOM     32  C   UNL     1      42.168   6.780  20.564  0.00  0.00    +0.000 C 
ENDBRANCH  27  28
ENDBRANCH  26  27
ENDBRANCH  25  26
ENDBRANCH  22  25
ENDBRANCH  12  19
BRANCH   1  34
ATOM     33  C   UNL     1      43.044  -0.304  13.465  0.00  0.00    +0.000 C 
ATOM     34  O   UNL     1      41.753  -0.376  14.026  0.00  0.00    +0.000 OA
ENDBRANCH   1  34
TORSDOF 7
ENDMDL
MODEL 9
REMARK VINA RESULT:      -7.2     23.482     26.254
REMARK  Name = 
REMARK  7 active torsions:
REMARK  status: ('A' for Active; 'I' for Inactive)
REMARK    1  A    between atoms: O_2  and  C_3
REMARK    2  A    between atoms: C_13  and  C_14
REMARK    3  A    between atoms: C_20  and  C_21
REMARK    4  A    between atoms: C_24  and  O_25
REMARK    5  A    between atoms: O_25  and  C_26
REMARK    6  A    between atoms: C_26  and  C_27
REMARK    7  A    between atoms: C_27  and  N_28
REMARK                            x       y       z     vdW  Elec       q    Type
REMARK                         _______ _______ _______ _____ _____    ______ ____
ROOT
ATOM      1  C   UNL     1      14.770  -7.333   7.157  0.00  0.00    +0.000 A 
ATOM      2  C   UNL     1      15.855  -6.794   7.814  0.00  0.00    +0.000 A 
ATOM      3  C   UNL     1      16.282  -5.497   7.594  0.00  0.00    +0.000 A 
ATOM      4  C   UNL     1      15.582  -4.741   6.687  0.00  0.00    +0.000 A 
ATOM      5  C   UNL     1      14.495  -5.218   6.003  0.00  0.00    +0.000 A 
ATOM      6  C   UNL     1      14.114  -6.517   6.260  0.00  0.00    +0.000 A 
ATOM      7  O   UNL     1      13.845  -4.379   5.098  0.00  0.00    +0.000 OA
ATOM      8  C   UNL     1      14.540  -3.488   4.309  0.00  0.00    +0.000 C 
ATOM      9  C   UNL     1      13.863  -2.351   3.745  0.00  0.00    +0.000 C 
ATOM     10  C   UNL     1      14.890  -4.368   3.049  0.00  0.00    +0.000 C 
ATOM     11  C   UNL     1      16.003  -3.301   4.812  0.00  0.00    +0.000 C 
ATOM     12  C   UNL     1      16.056  -3.272   6.434  0.00  0.00    +0.000 C 
ENDROOT
BRANCH  11  13
ATOM     13  C   UNL     1      16.370  -1.854   4.460  0.00  0.00    +0.000 A 
ATOM     14  C   UNL     1      15.766  -0.956   3.708  0.00  0.00    +0.000 A 
ATOM     15  C   UNL     1      16.271   0.301   3.523  0.00  0.00    +0.000 A 
ATOM     16  C   UNL     1      17.445   0.635   4.143  0.00  0.00    +0.000 A 
ATOM     17  C   UNL     1      18.134  -0.258   4.948  0.00  0.00    +0.000 A 
ATOM     18  C   UNL     1      17.531  -1.506   5.066  0.00  0.00    +0.000 A 
ENDBRANCH  11  13
BRANCH  12  19
ATOM     19  C   UNL     1      14.920  -2.453   6.996  0.00  0.00    +0.000 A 
ATOM     20  C   UNL     1      14.436  -1.253   6.711  0.00  0.00    +0.000 A 
ATOM     21  C   UNL     1      13.389  -0.619   7.320  0.00  0.00    +0.000 A 
ATOM     22  C   UNL     1      12.758  -1.281   8.340  0.00  0.00    +0.000 A 
ATOM     23  C   UNL     1      13.197  -2.537   8.702  0.00  0.00    +0.000 A 
ATOM     24  C   UNL     1      14.267  -3.128   8.044  0.00  0.00    +0.000 A 
BRANCH  22  25
ATOM     25  O   UNL     1      11.664  -0.706   9.029  0.00  0.00    +0.000 OA
BRANCH  25  26
ATOM     26  C   UNL     1      11.157   0.497   8.548  0.00  0.00    +0.000 C 
BRANCH  26  27
ATOM     27  C   UNL     1      10.380   1.157   9.664  0.00  0.00    +0.000 C 
BRANCH  27  28
ATOM     28  N   UNL     1      10.689   2.564   9.780  0.00  0.00    +0.000 NA
ATOM     29  C   UNL     1       9.663   3.291  10.492  0.00  0.00    +0.000 C 
ATOM     30  C   UNL     1       9.934   4.731  10.204  0.00  0.00    +0.000 C 
ATOM     31  C   UNL     1      10.739   4.695   8.909  0.00  0.00    +0.000 C 
ATOM     32  C   UNL     1      10.747   3.234   8.513  0.00  0.00    +0.000 C 
ENDBRANCH  27  28
ENDBRANCH  26  27
ENDBRANCH  25  26
ENDBRANCH  22  25
ENDBRANCH  12  19
BRANCH   1  34
ATOM     33  C   UNL     1      13.040  -9.027   7.310  0.00  0.00    +0.000 C 
ATOM     34  O   UNL     1      14.392  -8.641   7.423  0.00  0.00    +0.000 OA
ENDBRANCH   1  34
TORSDOF 7
ENDMDL
MODEL 10
REMARK VINA RESULT:      -7.2     26.627     29.426
REMARK  Name = 
REMARK  7 active torsions:
REMARK  status: ('A' for Active; 'I' for Inactive)
REMARK    1  A    between atoms: O_2  and  C_3
REMARK    2  A    between atoms: C_13  and  C_14
REMARK    3  A    between atoms: C_20  and  C_21
REMARK    4  A    between atoms: C_24  and  O_25
REMARK    5  A    between atoms: O_25  and  C_26
REMARK    6  A    between atoms: C_26  and  C_27
REMARK    7  A    between atoms: C_27  and  N_28
REMARK                            x       y       z     vdW  Elec       q    Type
REMARK                         _______ _______ _______ _____ _____    ______ ____
ROOT
ATOM      1  C   UNL     1      24.454  17.710  33.132  0.00  0.00    +0.000 A 
ATOM      2  C   UNL     1      24.729  16.393  32.835  0.00  0.00    +0.000 A 
ATOM      3  C   UNL     1      25.792  15.714  33.403  0.00  0.00    +0.000 A 
ATOM      4  C   UNL     1      26.584  16.399  34.291  0.00  0.00    +0.000 A 
ATOM      5  C   UNL     1      26.363  17.709  34.628  0.00  0.00    +0.000 A 
ATOM      6  C   UNL     1      25.290  18.336  34.032  0.00  0.00    +0.000 A 
ATOM      7  O   UNL     1      27.219  18.327  35.539  0.00  0.00    +0.000 OA
ATOM      8  C   UNL     1      28.572  18.062  35.554  0.00  0.00    +0.000 C 
ATOM      9  C   UNL     1      29.342  18.329  36.739  0.00  0.00    +0.000 C 
ATOM     10  C   UNL     1      29.125  19.110  34.515  0.00  0.00    +0.000 C 
ATOM     11  C   UNL     1      28.914  16.787  34.725  0.00  0.00    +0.000 C 
ATOM     12  C   UNL     1      27.786  15.639  34.941  0.00  0.00    +0.000 C 
ENDROOT
BRANCH  11  13
ATOM     13  C   UNL     1      30.131  16.166  35.420  0.00  0.00    +0.000 A 
ATOM     14  C   UNL     1      31.098  16.703  36.137  0.00  0.00    +0.000 A 
ATOM     15  C   UNL     1      32.108  15.956  36.678  0.00  0.00    +0.000 A 
ATOM     16  C   UNL     1      32.111  14.604  36.465  0.00  0.00    +0.000 A 
ATOM     17  C   UNL     1      31.128  13.972  35.722  0.00  0.00    +0.000 A 
ATOM     18  C   UNL     1      30.151  14.826  35.220  0.00  0.00    +0.000 A 
ENDBRANCH  11  13
BRANCH  12  19
ATOM     19  C   UNL     1      27.381  15.549  36.391  0.00  0.00    +0.000 A 
ATOM     20  C   UNL     1      28.051  15.636  37.531  0.00  0.00    +0.000 A 
ATOM     21  C   UNL     1      27.547  15.522  38.797  0.00  0.00    +0.000 A 
ATOM     22  C   UNL     1      26.203  15.291  38.921  0.00  0.00    +0.000 A 
ATOM     23  C   UNL     1      25.428  15.187  37.785  0.00  0.00    +0.000 A 
ATOM     24  C   UNL     1      25.999  15.312  36.527  0.00  0.00    +0.000 A 
BRANCH  22  25
ATOM     25  O   UNL     1      25.590  15.160  40.190  0.00  0.00    +0.000 OA
BRANCH  25  26
ATOM     26  C   UNL     1      26.322  14.545  41.200  0.00  0.00    +0.000 C 
BRANCH  26  27
ATOM     27  C   UNL     1      26.007  13.066  41.173  0.00  0.00    +0.000 C 
BRANCH  27  28
ATOM     28  N   UNL     1      27.084  12.293  40.601  0.00  0.00    +0.000 NA
ATOM     29  C   UNL     1      27.031  10.905  40.997  0.00  0.00    +0.000 C 
ATOM     30  C   UNL     1      28.372  10.347  40.648  0.00  0.00    +0.000 C 
ATOM     31  C   UNL     1      29.273  11.576  40.602  0.00  0.00    +0.000 C 
ATOM     32  C   UNL     1      28.380  12.714  41.051  0.00  0.00    +0.000 C 
ENDBRANCH  27  28
ENDBRANCH  26  27
ENDBRANCH  25  26
ENDBRANCH  22  25
ENDBRANCH  12  19
BRANCH   1  34
ATOM     33  C   UNL     1      23.581  19.358  31.580  0.00  0.00    +0.000 C 
ATOM     34  O   UNL     1      23.372  18.335  32.528  0.00  0.00    +0.000 OA
ENDBRANCH   1  34
TORSDOF 7
ENDMDL
