MODEL 1
REMARK VINA RESULT:      -8.2      0.000      0.000
REMARK  Name = 
REMARK  2 active torsions:
REMARK  status: ('A' for Active; 'I' for Inactive)
REMARK    1  A    between atoms: O_2  and  C_3
REMARK    2  A    between atoms: C_6  and  C_7
REMARK                            x       y       z     vdW  Elec       q    Type
REMARK                         _______ _______ _______ _____ _____    ______ ____
ROOT
ATOM      1  C   UNL     1      14.825  11.595  36.470  0.00  0.00    +0.000 A 
ATOM      2  O   UNL     1      16.012  11.210  36.875  0.00  0.00    +0.000 OA
ATOM      3  C   UNL     1      16.186  10.672  38.064  0.00  0.00    +0.000 A 
ATOM      4  C   UNL     1      17.438  10.278  38.460  0.00  0.00    +0.000 A 
ATOM      5  C   UNL     1      18.593  10.470  37.523  0.00  0.00    +0.000 C 
ATOM      6  C   UNL     1      17.687   9.710  39.689  0.00  0.00    +0.000 A 
ATOM      7  C   UNL     1      16.649   9.511  40.590  0.00  0.00    +0.000 A 
ATOM      8  C   UNL     1      16.876   8.901  41.929  0.00  0.00    +0.000 C 
ATOM      9  C   UNL     1      15.391   9.908  40.189  0.00  0.00    +0.000 A 
ATOM     10  C   UNL     1      15.150  10.477  38.955  0.00  0.00    +0.000 A 
ATOM     11  C   UNL     1      13.895  10.877  38.544  0.00  0.00    +0.000 A 
ATOM     12  O   UNL     1      12.916  10.732  39.298  0.00  0.00    +0.000 OA
ATOM     13  C   UNL     1      13.750  11.439  37.288  0.00  0.00    +0.000 A 
ATOM     14  O   UNL     1      12.497  11.843  36.867  0.00  0.00    +0.000 OA
ENDROOT
BRANCH   1  18
ATOM     15  C   UNL     1      14.326  13.344  32.624  0.00  0.00    +0.000 A 
ATOM     16  C   UNL     1      14.971  12.145  32.785  0.00  0.00    +0.000 A 
ATOM     17  C   UNL     1      15.147  11.556  34.016  0.00  0.00    +0.000 A 
ATOM     18  C   UNL     1      14.658  12.190  35.146  0.00  0.00    +0.000 A 
ATOM     19  C   UNL     1      14.015  13.382  34.995  0.00  0.00    +0.000 A 
ATOM     20  C   UNL     1      13.838  13.976  33.748  0.00  0.00    +0.000 A 
BRANCH  15  22
ATOM     21  C   UNL     1      15.261  13.975  30.465  0.00  0.00    +0.000 C 
ATOM     22  O   UNL     1      14.173  13.898  31.367  0.00  0.00    +0.000 OA
ENDBRANCH  15  22
ENDBRANCH   1  18
TORSDOF 2
ENDMDL
MODEL 2
REMARK VINA RESULT:      -7.6      1.935      7.469
REMARK  Name = 
REMARK  2 active torsions:
REMARK  status: ('A' for Active; 'I' for Inactive)
REMARK    1  A    between atoms: O_2  and  C_3
REMARK    2  A    between atoms: C_6  and  C_7
REMARK                            x       y       z     vdW  Elec       q    Type
REMARK                         _______ _______ _______ _____ _____    ______ ____
ROOT
ATOM      1  C   UNL     1      16.447  10.889  35.995  0.00  0.00    +0.000 A 
ATOM      2  O   UNL     1      15.530  11.803  35.786  0.00  0.00    +0.000 OA
ATOM      3  C   UNL     1      15.196  12.167  34.565  0.00  0.00    +0.000 A 
ATOM      4  C   UNL     1      14.234  13.125  34.377  0.00  0.00    +0.000 A 
ATOM      5  C   UNL     1      13.578  13.744  35.574  0.00  0.00    +0.000 C 
ATOM      6  C   UNL     1      13.839  13.549  33.128  0.00  0.00    +0.000 A 
ATOM      7  C   UNL     1      14.418  13.005  31.989  0.00  0.00    +0.000 A 
ATOM      8  C   UNL     1      14.020  13.436  30.621  0.00  0.00    +0.000 C 
ATOM      9  C   UNL     1      15.385  12.041  32.182  0.00  0.00    +0.000 A 
ATOM     10  C   UNL     1      15.775  11.621  33.437  0.00  0.00    +0.000 A 
ATOM     11  C   UNL     1      16.742  10.657  33.641  0.00  0.00    +0.000 A 
ATOM     12  O   UNL     1      17.305  10.124  32.669  0.00  0.00    +0.000 OA
ATOM     13  C   UNL     1      17.068  10.301  34.938  0.00  0.00    +0.000 A 
ATOM     14  O   UNL     1      18.035   9.336  35.152  0.00  0.00    +0.000 OA
ENDROOT
BRANCH   1  18
ATOM     15  C   UNL     1      17.500   9.760  39.960  0.00  0.00    +0.000 A 
ATOM     16  C   UNL     1      16.213  10.097  39.632  0.00  0.00    +0.000 A 
ATOM     17  C   UNL     1      15.843  10.466  38.358  0.00  0.00    +0.000 A 
ATOM     18  C   UNL     1      16.802  10.502  37.359  0.00  0.00    +0.000 A 
ATOM     19  C   UNL     1      18.084  10.168  37.676  0.00  0.00    +0.000 A 
ATOM     20  C   UNL     1      18.455   9.795  38.966  0.00  0.00    +0.000 A 
BRANCH  15  22
ATOM     21  C   UNL     1      16.821   9.214  42.235  0.00  0.00    +0.000 C 
ATOM     22  O   UNL     1      17.825   9.396  41.253  0.00  0.00    +0.000 OA
ENDBRANCH  15  22
ENDBRANCH   1  18
TORSDOF 2
ENDMDL
MODEL 3
REMARK VINA RESULT:      -7.2     20.262     22.089
REMARK  Name = 
REMARK  2 active torsions:
REMARK  status: ('A' for Active; 'I' for Inactive)
REMARK    1  A    between atoms: O_2  and  C_3
REMARK    2  A    between atoms: C_6  and  C_7
REMARK                            x       y       z     vdW  Elec       q    Type
REMARK                         _______ _______ _______ _____ _____    ______ ____
ROOT
ATOM      1  C   UNL     1      33.711   0.566  35.810  0.00  0.00    +0.000 A 
ATOM      2  O   UNL     1      33.676   1.466  34.856  0.00  0.00    +0.000 OA
ATOM      3  C   UNL     1      33.829   2.747  35.122  0.00  0.00    +0.000 A 
ATOM      4  C   UNL     1      33.789   3.665  34.105  0.00  0.00    +0.000 A 
ATOM      5  C   UNL     1      33.570   3.189  32.701  0.00  0.00    +0.000 C 
ATOM      6  C   UNL     1      33.942   5.017  34.316  0.00  0.00    +0.000 A 
ATOM      7  C   UNL     1      34.148   5.506  35.600  0.00  0.00    +0.000 A 
ATOM      8  C   UNL     1      34.318   6.960  35.870  0.00  0.00    +0.000 C 
ATOM      9  C   UNL     1      34.188   4.579  36.620  0.00  0.00    +0.000 A 
ATOM     10  C   UNL     1      34.034   3.226  36.400  0.00  0.00    +0.000 A 
ATOM     11  C   UNL     1      34.073   2.291  37.415  0.00  0.00    +0.000 A 
ATOM     12  O   UNL     1      34.253   2.653  38.591  0.00  0.00    +0.000 OA
ATOM     13  C   UNL     1      33.907   0.953  37.097  0.00  0.00    +0.000 A 
ATOM     14  O   UNL     1      33.945   0.009  38.107  0.00  0.00    +0.000 OA
ENDROOT
BRANCH   1  18
ATOM     15  C   UNL     1      33.186  -3.553  34.879  0.00  0.00    +0.000 A 
ATOM     16  C   UNL     1      34.434  -3.011  35.038  0.00  0.00    +0.000 A 
ATOM     17  C   UNL     1      34.635  -1.682  35.339  0.00  0.00    +0.000 A 
ATOM     18  C   UNL     1      33.538  -0.850  35.490  0.00  0.00    +0.000 A 
ATOM     19  C   UNL     1      32.293  -1.380  35.333  0.00  0.00    +0.000 A 
ATOM     20  C   UNL     1      32.093  -2.725  35.029  0.00  0.00    +0.000 A 
BRANCH  15  22
ATOM     21  C   UNL     1      32.064  -5.324  33.640  0.00  0.00    +0.000 C 
ATOM     22  O   UNL     1      33.033  -4.892  34.577  0.00  0.00    +0.000 OA
ENDBRANCH  15  22
ENDBRANCH   1  18
TORSDOF 2
ENDMDL
MODEL 4
REMARK VINA RESULT:      -7.2     20.048     22.071
REMARK  Name = 
REMARK  2 active torsions:
REMARK  status: ('A' for Active; 'I' for Inactive)
REMARK    1  A    between atoms: O_2  and  C_3
REMARK    2  A    between atoms: C_6  and  C_7
REMARK                            x       y       z     vdW  Elec       q    Type
REMARK                         _______ _______ _______ _____ _____    ______ ____
ROOT
ATOM      1  C   UNL     1      33.667   0.846  35.026  0.00  0.00    +0.000 A 
ATOM      2  O   UNL     1      33.826   1.615  36.077  0.00  0.00    +0.000 OA
ATOM      3  C   UNL     1      33.915   2.923  35.958  0.00  0.00    +0.000 A 
ATOM      4  C   UNL     1      34.081   3.702  37.073  0.00  0.00    +0.000 A 
ATOM      5  C   UNL     1      34.158   3.042  38.417  0.00  0.00    +0.000 C 
ATOM      6  C   UNL     1      34.180   5.074  37.016  0.00  0.00    +0.000 A 
ATOM      7  C   UNL     1      34.113   5.730  35.794  0.00  0.00    +0.000 A 
ATOM      8  C   UNL     1      34.217   7.211  35.689  0.00  0.00    +0.000 C 
ATOM      9  C   UNL     1      33.946   4.943  34.674  0.00  0.00    +0.000 A 
ATOM     10  C   UNL     1      33.847   3.569  34.739  0.00  0.00    +0.000 A 
ATOM     11  C   UNL     1      33.680   2.773  33.624  0.00  0.00    +0.000 A 
ATOM     12  O   UNL     1      33.612   3.289  32.494  0.00  0.00    +0.000 OA
ATOM     13  C   UNL     1      33.591   1.402  33.788  0.00  0.00    +0.000 A 
ATOM     14  O   UNL     1      33.423   0.597  32.677  0.00  0.00    +0.000 OA
ENDROOT
BRANCH   1  18
ATOM     15  C   UNL     1      33.410  -3.376  35.486  0.00  0.00    +0.000 A 
ATOM     16  C   UNL     1      32.288  -2.591  35.467  0.00  0.00    +0.000 A 
ATOM     17  C   UNL     1      32.340  -1.223  35.321  0.00  0.00    +0.000 A 
ATOM     18  C   UNL     1      33.571  -0.604  35.184  0.00  0.00    +0.000 A 
ATOM     19  C   UNL     1      34.693  -1.377  35.201  0.00  0.00    +0.000 A 
ATOM     20  C   UNL     1      34.637  -2.761  35.350  0.00  0.00    +0.000 A 
BRANCH  15  22
ATOM     21  C   UNL     1      32.047  -5.383  35.700  0.00  0.00    +0.000 C 
ATOM     22  O   UNL     1      33.310  -4.746  35.636  0.00  0.00    +0.000 OA
ENDBRANCH  15  22
ENDBRANCH   1  18
TORSDOF 2
ENDMDL
MODEL 5
REMARK VINA RESULT:      -7.2      2.496      8.209
REMARK  Name = 
REMARK  2 active torsions:
REMARK  status: ('A' for Active; 'I' for Inactive)
REMARK    1  A    between atoms: O_2  and  C_3
REMARK    2  A    between atoms: C_6  and  C_7
REMARK                            x       y       z     vdW  Elec       q    Type
REMARK                         _______ _______ _______ _____ _____    ______ ____
ROOT
ATOM      1  C   UNL     1      16.340   9.679  39.980  0.00  0.00    +0.000 A 
ATOM      2  O   UNL     1      15.154  10.059  39.567  0.00  0.00    +0.000 OA
ATOM      3  C   UNL     1      15.010  10.768  38.466  0.00  0.00    +0.000 A 
ATOM      4  C   UNL     1      13.759  11.150  38.058  0.00  0.00    +0.000 A 
ATOM      5  C   UNL     1      12.570  10.750  38.879  0.00  0.00    +0.000 C 
ATOM      6  C   UNL     1      13.541  11.891  36.918  0.00  0.00    +0.000 A 
ATOM      7  C   UNL     1      14.611  12.284  36.124  0.00  0.00    +0.000 A 
ATOM      8  C   UNL     1      14.418  13.085  34.885  0.00  0.00    +0.000 C 
ATOM      9  C   UNL     1      15.868  11.897  36.538  0.00  0.00    +0.000 A 
ATOM     10  C   UNL     1      16.078  11.155  37.681  0.00  0.00    +0.000 A 
ATOM     11  C   UNL     1      17.333  10.763  38.104  0.00  0.00    +0.000 A 
ATOM     12  O   UNL     1      18.339  11.079  37.445  0.00  0.00    +0.000 OA
ATOM     13  C   UNL     1      17.445  10.020  39.266  0.00  0.00    +0.000 A 
ATOM     14  O   UNL     1      18.697   9.623  39.697  0.00  0.00    +0.000 OA
ENDROOT
BRANCH   1  18
ATOM     15  C   UNL     1      16.728   7.410  43.558  0.00  0.00    +0.000 A 
ATOM     16  C   UNL     1      16.754   6.811  42.327  0.00  0.00    +0.000 A 
ATOM     17  C   UNL     1      16.630   7.518  41.153  0.00  0.00    +0.000 A 
ATOM     18  C   UNL     1      16.473   8.894  41.206  0.00  0.00    +0.000 A 
ATOM     19  C   UNL     1      16.447   9.499  42.426  0.00  0.00    +0.000 A 
ATOM     20  C   UNL     1      16.572   8.779  43.613  0.00  0.00    +0.000 A 
BRANCH  15  22
ATOM     21  C   UNL     1      16.423   5.311  44.756  0.00  0.00    +0.000 C 
ATOM     22  O   UNL     1      16.855   6.659  44.711  0.00  0.00    +0.000 OA
ENDBRANCH  15  22
ENDBRANCH   1  18
TORSDOF 2
ENDMDL
MODEL 6
REMARK VINA RESULT:      -7.2      2.388      7.758
REMARK  Name = 
REMARK  2 active torsions:
REMARK  status: ('A' for Active; 'I' for Inactive)
REMARK    1  A    between atoms: O_2  and  C_3
REMARK    2  A    between atoms: C_6  and  C_7
REMARK                            x       y       z     vdW  Elec       q    Type
REMARK                         _______ _______ _______ _____ _____    ______ ____
ROOT
ATOM      1  C   UNL     1      17.125  10.044  38.438  0.00  0.00    +0.000 A 
ATOM      2  O   UNL     1      16.155  10.737  37.889  0.00  0.00    +0.000 OA
ATOM      3  C   UNL     1      16.141  10.984  36.595  0.00  0.00    +0.000 A 
ATOM      4  C   UNL     1      15.115  11.710  36.050  0.00  0.00    +0.000 A 
ATOM      5  C   UNL     1      14.022  12.214  36.944  0.00  0.00    +0.000 C 
ATOM      6  C   UNL     1      15.041  12.002  34.706  0.00  0.00    +0.000 A 
ATOM      7  C   UNL     1      16.030  11.557  33.838  0.00  0.00    +0.000 A 
ATOM      8  C   UNL     1      15.987  11.852  32.380  0.00  0.00    +0.000 C 
ATOM      9  C   UNL     1      17.060  10.827  34.391  0.00  0.00    +0.000 A 
ATOM     10  C   UNL     1      17.127  10.538  35.738  0.00  0.00    +0.000 A 
ATOM     11  C   UNL     1      18.154   9.807  36.301  0.00  0.00    +0.000 A 
ATOM     12  O   UNL     1      19.076   9.375  35.586  0.00  0.00    +0.000 OA
ATOM     13  C   UNL     1      18.136   9.569  37.664  0.00  0.00    +0.000 A 
ATOM     14  O   UNL     1      19.160   8.838  38.236  0.00  0.00    +0.000 OA
ENDROOT
BRANCH   1  18
ATOM     15  C   UNL     1      17.086   9.284  42.624  0.00  0.00    +0.000 A 
ATOM     16  C   UNL     1      18.252   9.555  41.959  0.00  0.00    +0.000 A 
ATOM     17  C   UNL     1      18.296   9.805  40.606  0.00  0.00    +0.000 A 
ATOM     18  C   UNL     1      17.119   9.784  39.876  0.00  0.00    +0.000 A 
ATOM     19  C   UNL     1      15.954   9.515  40.529  0.00  0.00    +0.000 A 
ATOM     20  C   UNL     1      15.913   9.263  41.899  0.00  0.00    +0.000 A 
BRANCH  15  22
ATOM     21  C   UNL     1      16.191   9.706  44.849  0.00  0.00    +0.000 C 
ATOM     22  O   UNL     1      17.091   9.039  43.984  0.00  0.00    +0.000 OA
ENDBRANCH  15  22
ENDBRANCH   1  18
TORSDOF 2
ENDMDL
MODEL 7
REMARK VINA RESULT:      -7.1      1.800      7.049
REMARK  Name = 
REMARK  2 active torsions:
REMARK  status: ('A' for Active; 'I' for Inactive)
REMARK    1  A    between atoms: O_2  and  C_3
REMARK    2  A    between atoms: C_6  and  C_7
REMARK                            x       y       z     vdW  Elec       q    Type
REMARK                         _______ _______ _______ _____ _____    ______ ____
ROOT
ATOM      1  C   UNL     1      15.995  11.087  36.473  0.00  0.00    +0.000 A 
ATOM      2  O   UNL     1      16.402  10.875  35.244  0.00  0.00    +0.000 OA
ATOM      3  C   UNL     1      15.826  11.472  34.221  0.00  0.00    +0.000 A 
ATOM      4  C   UNL     1      16.273  11.231  32.948  0.00  0.00    +0.000 A 
ATOM      5  C   UNL     1      17.417  10.285  32.744  0.00  0.00    +0.000 C 
ATOM      6  C   UNL     1      15.714  11.823  31.838  0.00  0.00    +0.000 A 
ATOM      7  C   UNL     1      14.652  12.707  31.976  0.00  0.00    +0.000 A 
ATOM      8  C   UNL     1      14.019  13.367  30.802  0.00  0.00    +0.000 C 
ATOM      9  C   UNL     1      14.205  12.947  33.259  0.00  0.00    +0.000 A 
ATOM     10  C   UNL     1      14.770  12.350  34.366  0.00  0.00    +0.000 A 
ATOM     11  C   UNL     1      14.330  12.584  35.654  0.00  0.00    +0.000 A 
ATOM     12  O   UNL     1      13.382  13.364  35.857  0.00  0.00    +0.000 OA
ATOM     13  C   UNL     1      14.960  11.938  36.703  0.00  0.00    +0.000 A 
ATOM     14  O   UNL     1      14.527  12.166  37.996  0.00  0.00    +0.000 OA
ENDROOT
BRANCH   1  18
ATOM     15  C   UNL     1      17.921   9.118  39.715  0.00  0.00    +0.000 A 
ATOM     16  C   UNL     1      16.677   9.673  39.855  0.00  0.00    +0.000 A 
ATOM     17  C   UNL     1      16.029  10.316  38.825  0.00  0.00    +0.000 A 
ATOM     18  C   UNL     1      16.651  10.412  37.591  0.00  0.00    +0.000 A 
ATOM     19  C   UNL     1      17.889   9.863  37.442  0.00  0.00    +0.000 A 
ATOM     20  C   UNL     1      18.541   9.213  38.487  0.00  0.00    +0.000 A 
BRANCH  15  22
ATOM     21  C   UNL     1      18.285   7.115  41.053  0.00  0.00    +0.000 C 
ATOM     22  O   UNL     1      18.533   8.482  40.779  0.00  0.00    +0.000 OA
ENDBRANCH  15  22
ENDBRANCH   1  18
TORSDOF 2
ENDMDL
MODEL 8
REMARK VINA RESULT:      -7.0      2.643      4.320
REMARK  Name = 
REMARK  2 active torsions:
REMARK  status: ('A' for Active; 'I' for Inactive)
REMARK    1  A    between atoms: O_2  and  C_3
REMARK    2  A    between atoms: C_6  and  C_7
REMARK                            x       y       z     vdW  Elec       q    Type
REMARK                         _______ _______ _______ _____ _____    ______ ____
ROOT
ATOM      1  C   UNL     1      17.987   9.993  37.701  0.00  0.00    +0.000 A 
ATOM      2  O   UNL     1      17.135   9.833  38.685  0.00  0.00    +0.000 OA
ATOM      3  C   UNL     1      17.536   9.452  39.880  0.00  0.00    +0.000 A 
ATOM      4  C   UNL     1      16.623   9.293  40.890  0.00  0.00    +0.000 A 
ATOM      5  C   UNL     1      15.174   9.557  40.610  0.00  0.00    +0.000 C 
ATOM      6  C   UNL     1      16.978   8.898  42.160  0.00  0.00    +0.000 A 
ATOM      7  C   UNL     1      18.308   8.642  42.467  0.00  0.00    +0.000 A 
ATOM      8  C   UNL     1      18.733   8.213  43.827  0.00  0.00    +0.000 C 
ATOM      9  C   UNL     1      19.224   8.804  41.449  0.00  0.00    +0.000 A 
ATOM     10  C   UNL     1      18.860   9.200  40.179  0.00  0.00    +0.000 A 
ATOM     11  C   UNL     1      19.770   9.365  39.153  0.00  0.00    +0.000 A 
ATOM     12  O   UNL     1      20.979   9.153  39.353  0.00  0.00    +0.000 OA
ATOM     13  C   UNL     1      19.310   9.765  37.910  0.00  0.00    +0.000 A 
ATOM     14  O   UNL     1      20.214   9.933  36.877  0.00  0.00    +0.000 OA
ENDROOT
BRANCH   1  18
ATOM     15  C   UNL     1      16.613  11.244  33.873  0.00  0.00    +0.000 A 
ATOM     16  C   UNL     1      17.099   9.979  34.079  0.00  0.00    +0.000 A 
ATOM     17  C   UNL     1      17.550   9.547  35.305  0.00  0.00    +0.000 A 
ATOM     18  C   UNL     1      17.517  10.416  36.383  0.00  0.00    +0.000 A 
ATOM     19  C   UNL     1      17.035  11.675  36.188  0.00  0.00    +0.000 A 
ATOM     20  C   UNL     1      16.579  12.110  34.945  0.00  0.00    +0.000 A 
BRANCH  15  22
ATOM     21  C   UNL     1      15.931  10.682  31.604  0.00  0.00    +0.000 C 
ATOM     22  O   UNL     1      16.171  11.634  32.624  0.00  0.00    +0.000 OA
ENDBRANCH  15  22
ENDBRANCH   1  18
TORSDOF 2
ENDMDL
MODEL 9
REMARK VINA RESULT:      -6.9     22.163     23.513
REMARK  Name = 
REMARK  2 active torsions:
REMARK  status: ('A' for Active; 'I' for Inactive)
REMARK    1  A    between atoms: O_2  and  C_3
REMARK    2  A    between atoms: C_6  and  C_7
REMARK                            x       y       z     vdW  Elec       q    Type
REMARK                         _______ _______ _______ _____ _____    ______ ____
ROOT
ATOM      1  C   UNL     1      19.181  -8.559  27.116  0.00  0.00    +0.000 A 
ATOM      2  O   UNL     1      20.298  -9.132  26.736  0.00  0.00    +0.000 OA
ATOM      3  C   UNL     1      21.175  -8.490  25.992  0.00  0.00    +0.000 A 
ATOM      4  C   UNL     1      22.334  -9.114  25.610  0.00  0.00    +0.000 A 
ATOM      5  C   UNL     1      22.581 -10.526  26.049  0.00  0.00    +0.000 C 
ATOM      6  C   UNL     1      23.291  -8.499  24.834  0.00  0.00    +0.000 A 
ATOM      7  C   UNL     1      23.107  -7.191  24.403  0.00  0.00    +0.000 A 
ATOM      8  C   UNL     1      24.116  -6.491  23.563  0.00  0.00    +0.000 C 
ATOM      9  C   UNL     1      21.940  -6.567  24.790  0.00  0.00    +0.000 A 
ATOM     10  C   UNL     1      20.987  -7.190  25.568  0.00  0.00    +0.000 A 
ATOM     11  C   UNL     1      19.815  -6.573  25.960  0.00  0.00    +0.000 A 
ATOM     12  O   UNL     1      19.580  -5.403  25.612  0.00  0.00    +0.000 OA
ATOM     13  C   UNL     1      18.917  -7.280  26.741  0.00  0.00    +0.000 A 
ATOM     14  O   UNL     1      17.741  -6.671  27.138  0.00  0.00    +0.000 OA
ENDROOT
BRANCH   1  18
ATOM     15  C   UNL     1      16.402 -10.687  29.535  0.00  0.00    +0.000 A 
ATOM     16  C   UNL     1      16.308 -10.692  28.168  0.00  0.00    +0.000 A 
ATOM     17  C   UNL     1      17.192 -10.014  27.360  0.00  0.00    +0.000 A 
ATOM     18  C   UNL     1      18.223  -9.293  27.941  0.00  0.00    +0.000 A 
ATOM     19  C   UNL     1      18.323  -9.282  29.299  0.00  0.00    +0.000 A 
ATOM     20  C   UNL     1      17.427  -9.970  30.115  0.00  0.00    +0.000 A 
BRANCH  15  22
ATOM     21  C   UNL     1      15.295 -11.066  31.671  0.00  0.00    +0.000 C 
ATOM     22  O   UNL     1      15.491 -11.384  30.306  0.00  0.00    +0.000 OA
ENDBRANCH  15  22
ENDBRANCH   1  18
TORSDOF 2
ENDMDL
MODEL 10
REMARK VINA RESULT:      -6.8     18.131     21.900
REMARK  Name = 
REMARK  2 active torsions:
REMARK  status: ('A' for Active; 'I' for Inactive)
REMARK    1  A    between atoms: O_2  and  C_3
REMARK    2  A    between atoms: C_6  and  C_7
REMARK                            x       y       z     vdW  Elec       q    Type
REMARK                         _______ _______ _______ _____ _____    ______ ____
ROOT
ATOM      1  C   UNL     1      28.736  24.089  24.845  0.00  0.00    +0.000 A 
ATOM      2  O   UNL     1      27.665  24.370  25.549  0.00  0.00    +0.000 OA
ATOM      3  C   UNL     1      27.434  23.781  26.704  0.00  0.00    +0.000 A 
ATOM      4  C   UNL     1      26.308  24.095  27.418  0.00  0.00    +0.000 A 
ATOM      5  C   UNL     1      25.354  25.111  26.865  0.00  0.00    +0.000 C 
ATOM      6  C   UNL     1      26.008  23.516  28.631  0.00  0.00    +0.000 A 
ATOM      7  C   UNL     1      26.862  22.570  29.184  0.00  0.00    +0.000 A 
ATOM      8  C   UNL     1      26.575  21.920  30.492  0.00  0.00    +0.000 C 
ATOM      9  C   UNL     1      27.995  22.257  28.463  0.00  0.00    +0.000 A 
ATOM     10  C   UNL     1      28.287  22.842  27.248  0.00  0.00    +0.000 A 
ATOM     11  C   UNL     1      29.419  22.535  26.519  0.00  0.00    +0.000 A 
ATOM     12  O   UNL     1      30.230  21.696  26.950  0.00  0.00    +0.000 OA
ATOM     13  C   UNL     1      29.628  23.174  25.309  0.00  0.00    +0.000 A 
ATOM     14  O   UNL     1      30.758  22.873  24.571  0.00  0.00    +0.000 OA
ENDROOT
BRANCH   1  18
ATOM     15  C   UNL     1      29.421  26.048  21.131  0.00  0.00    +0.000 A 
ATOM     16  C   UNL     1      29.088  24.721  21.186  0.00  0.00    +0.000 A 
ATOM     17  C   UNL     1      28.861  24.060  22.372  0.00  0.00    +0.000 A 
ATOM     18  C   UNL     1      28.970  24.755  23.565  0.00  0.00    +0.000 A 
ATOM     19  C   UNL     1      29.300  26.076  23.520  0.00  0.00    +0.000 A 
ATOM     20  C   UNL     1      29.529  26.742  22.318  0.00  0.00    +0.000 A 
BRANCH  15  22
ATOM     21  C   UNL     1      29.677  28.081  19.814  0.00  0.00    +0.000 C 
ATOM     22  O   UNL     1      29.640  26.670  19.917  0.00  0.00    +0.000 OA
ENDBRANCH  15  22
ENDBRANCH   1  18
TORSDOF 2
ENDMDL
