MODEL 1
REMARK VINA RESULT:      -6.7      0.000      0.000
REMARK  Name = 
REMARK  4 active torsions:
REMARK  status: ('A' for Active; 'I' for Inactive)
REMARK    1  A    between atoms: C_2  and  O_3
REMARK    2  A    between atoms: O_3  and  C_4
REMARK    3  A    between atoms: C_4  and  C_6
REMARK    4  A    between atoms: C_17  and  C_18
REMARK                            x       y       z     vdW  Elec       q    Type
REMARK                         _______ _______ _______ _____ _____    ______ ____
ROOT
ATOM      1  C   UNL     1      18.008   9.117  39.057  0.00  0.00    +0.000 C 
ATOM      2  C   UNL     1      17.040   9.611  39.707  0.00  0.00    +0.000 C 
ATOM      3  N   UNL     1      16.845   9.305  41.133  0.00  0.00    +0.000 NA
ATOM      4  O   UNL     1      16.120  10.454  39.137  0.00  0.00    +0.000 OA
ATOM      5  C   UNL     1      16.267  10.771  37.789  0.00  0.00    +0.000 C 
ATOM      6  C   UNL     1      17.222  10.310  37.067  0.00  0.00    +0.000 C 
ATOM      7  C   UNL     1      17.319  10.682  35.661  0.00  0.00    +0.000 C 
ATOM      8  O   UNL     1      17.835   9.917  34.783  0.00  0.00    +0.000 OA
ATOM      9  C   UNL     1      16.791  12.005  35.245  0.00  0.00    +0.000 C 
ATOM     10  C   UNL     1      15.798  12.600  36.178  0.00  0.00    +0.000 C 
ATOM     11  C   UNL     1      15.248  11.686  37.214  0.00  0.00    +0.000 C 
ATOM     12  C   UNL     1      18.329   9.349  37.581  0.00  0.00    +0.000 C 
ENDROOT
BRANCH  12  13
ATOM     13  C   UNL     1      19.551  10.350  37.773  0.00  0.00    +0.000 A 
ATOM     14  C   UNL     1      19.515  11.500  38.395  0.00  0.00    +0.000 A 
ATOM     15  C   UNL     1      20.671  12.254  38.475  0.00  0.00    +0.000 A 
ATOM     16  C   UNL     1      21.832  11.817  37.919  0.00  0.00    +0.000 A 
ATOM     17  C   UNL     1      21.889  10.607  37.260  0.00  0.00    +0.000 A 
ATOM     18  C   UNL     1      20.691   9.875  37.204  0.00  0.00    +0.000 A 
ENDBRANCH  12  13
BRANCH   1  19
ATOM     19  C   UNL     1      18.930   8.217  39.806  0.00  0.00    +0.000 C 
ATOM     20  O   UNL     1      19.835   8.717  40.508  0.00  0.00    +0.000 OA
BRANCH  19  21
ATOM     21  O   UNL     1      18.831   6.850  39.762  0.00  0.00    +0.000 OA
BRANCH  21  23
ATOM     22  C   UNL     1      17.341   5.836  41.275  0.00  0.00    +0.000 C 
ATOM     23  C   UNL     1      18.797   6.005  40.885  0.00  0.00    +0.000 C 
ENDBRANCH  21  23
ENDBRANCH  19  21
ENDBRANCH   1  19
TORSDOF 4
ENDMDL
MODEL 2
REMARK VINA RESULT:      -6.7     19.990     22.673
REMARK  Name = 
REMARK  4 active torsions:
REMARK  status: ('A' for Active; 'I' for Inactive)
REMARK    1  A    between atoms: C_2  and  O_3
REMARK    2  A    between atoms: O_3  and  C_4
REMARK    3  A    between atoms: C_4  and  C_6
REMARK    4  A    between atoms: C_17  and  C_18
REMARK                            x       y       z     vdW  Elec       q    Type
REMARK                         _______ _______ _______ _____ _____    ______ ____
ROOT
ATOM      1  C   UNL     1      26.979  24.273  23.429  0.00  0.00    +0.000 C 
ATOM      2  C   UNL     1      25.979  23.540  23.683  0.00  0.00    +0.000 C 
ATOM      3  N   UNL     1      25.320  22.756  22.625  0.00  0.00    +0.000 NA
ATOM      4  O   UNL     1      25.446  23.425  24.942  0.00  0.00    +0.000 OA
ATOM      5  C   UNL     1      26.038  24.149  25.973  0.00  0.00    +0.000 C 
ATOM      6  C   UNL     1      27.055  24.912  25.793  0.00  0.00    +0.000 C 
ATOM      7  C   UNL     1      27.627  25.643  26.916  0.00  0.00    +0.000 C 
ATOM      8  O   UNL     1      28.218  26.763  26.777  0.00  0.00    +0.000 OA
ATOM      9  C   UNL     1      27.511  25.053  28.272  0.00  0.00    +0.000 C 
ATOM     10  C   UNL     1      26.424  24.050  28.424  0.00  0.00    +0.000 C 
ATOM     11  C   UNL     1      25.429  23.994  27.319  0.00  0.00    +0.000 C 
ATOM     12  C   UNL     1      27.755  25.135  24.424  0.00  0.00    +0.000 C 
ENDROOT
BRANCH  12  13
ATOM     13  C   UNL     1      29.038  24.206  24.572  0.00  0.00    +0.000 A 
ATOM     14  C   UNL     1      29.045  22.961  24.974  0.00  0.00    +0.000 A 
ATOM     15  C   UNL     1      30.251  22.289  25.047  0.00  0.00    +0.000 A 
ATOM     16  C   UNL     1      31.416  22.902  24.708  0.00  0.00    +0.000 A 
ATOM     17  C   UNL     1      31.427  24.213  24.280  0.00  0.00    +0.000 A 
ATOM     18  C   UNL     1      30.180  24.857  24.222  0.00  0.00    +0.000 A 
ENDBRANCH  12  13
BRANCH   1  19
ATOM     19  C   UNL     1      27.449  24.301  22.015  0.00  0.00    +0.000 C 
ATOM     20  O   UNL     1      28.056  23.311  21.554  0.00  0.00    +0.000 OA
BRANCH  19  21
ATOM     21  O   UNL     1      27.245  25.374  21.186  0.00  0.00    +0.000 OA
BRANCH  21  23
ATOM     22  C   UNL     1      29.345  26.372  20.821  0.00  0.00    +0.000 C 
ATOM     23  C   UNL     1      27.917  26.606  21.276  0.00  0.00    +0.000 C 
ENDBRANCH  21  23
ENDBRANCH  19  21
ENDBRANCH   1  19
TORSDOF 4
ENDMDL
MODEL 3
REMARK VINA RESULT:      -6.6     20.972     23.320
REMARK  Name = 
REMARK  4 active torsions:
REMARK  status: ('A' for Active; 'I' for Inactive)
REMARK    1  A    between atoms: C_2  and  O_3
REMARK    2  A    between atoms: O_3  and  C_4
REMARK    3  A    between atoms: C_4  and  C_6
REMARK    4  A    between atoms: C_17  and  C_18
REMARK                            x       y       z     vdW  Elec       q    Type
REMARK                         _______ _______ _______ _____ _____    ______ ____
ROOT
ATOM      1  C   UNL     1      28.029  24.406  24.828  0.00  0.00    +0.000 C 
ATOM      2  C   UNL     1      27.196  25.344  24.999  0.00  0.00    +0.000 C 
ATOM      3  N   UNL     1      26.417  25.454  26.243  0.00  0.00    +0.000 NA
ATOM      4  O   UNL     1      26.965  26.310  24.053  0.00  0.00    +0.000 OA
ATOM      5  C   UNL     1      27.681  26.245  22.860  0.00  0.00    +0.000 C 
ATOM      6  C   UNL     1      28.542  25.324  22.615  0.00  0.00    +0.000 C 
ATOM      7  C   UNL     1      29.258  25.313  21.346  0.00  0.00    +0.000 C 
ATOM      8  O   UNL     1      29.675  24.240  20.802  0.00  0.00    +0.000 OA
ATOM      9  C   UNL     1      29.504  26.609  20.666  0.00  0.00    +0.000 C 
ATOM     10  C   UNL     1      28.596  27.711  21.079  0.00  0.00    +0.000 C 
ATOM     11  C   UNL     1      27.399  27.310  21.865  0.00  0.00    +0.000 C 
ATOM     12  C   UNL     1      28.900  24.172  23.594  0.00  0.00    +0.000 C 
ENDROOT
BRANCH  12  13
ATOM     13  C   UNL     1      30.281  24.687  24.194  0.00  0.00    +0.000 A 
ATOM     14  C   UNL     1      30.522  25.888  24.650  0.00  0.00    +0.000 A 
ATOM     15  C   UNL     1      31.782  26.177  25.142  0.00  0.00    +0.000 A 
ATOM     16  C   UNL     1      32.761  25.234  25.155  0.00  0.00    +0.000 A 
ATOM     17  C   UNL     1      32.524  23.962  24.680  0.00  0.00    +0.000 A 
ATOM     18  C   UNL     1      31.231  23.714  24.190  0.00  0.00    +0.000 A 
ENDBRANCH  12  13
BRANCH   1  19
ATOM     19  C   UNL     1      28.177  23.427  25.942  0.00  0.00    +0.000 C 
ATOM     20  O   UNL     1      27.526  22.361  25.908  0.00  0.00    +0.000 OA
BRANCH  19  21
ATOM     21  O   UNL     1      29.003  23.643  27.016  0.00  0.00    +0.000 OA
BRANCH  21  23
ATOM     22  C   UNL     1      30.787  22.169  27.445  0.00  0.00    +0.000 C 
ATOM     23  C   UNL     1      29.430  22.654  27.919  0.00  0.00    +0.000 C 
ENDBRANCH  21  23
ENDBRANCH  19  21
ENDBRANCH   1  19
TORSDOF 4
ENDMDL
MODEL 4
REMARK VINA RESULT:      -6.6     17.213     19.428
REMARK  Name = 
REMARK  4 active torsions:
REMARK  status: ('A' for Active; 'I' for Inactive)
REMARK    1  A    between atoms: C_2  and  O_3
REMARK    2  A    between atoms: O_3  and  C_4
REMARK    3  A    between atoms: C_4  and  C_6
REMARK    4  A    between atoms: C_17  and  C_18
REMARK                            x       y       z     vdW  Elec       q    Type
REMARK                         _______ _______ _______ _____ _____    ______ ____
ROOT
ATOM      1  C   UNL     1      26.256  23.372  29.226  0.00  0.00    +0.000 C 
ATOM      2  C   UNL     1      25.765  24.444  29.687  0.00  0.00    +0.000 C 
ATOM      3  N   UNL     1      25.721  24.700  31.136  0.00  0.00    +0.000 NA
ATOM      4  O   UNL     1      25.249  25.427  28.882  0.00  0.00    +0.000 OA
ATOM      5  C   UNL     1      25.270  25.226  27.504  0.00  0.00    +0.000 C 
ATOM      6  C   UNL     1      25.751  24.166  26.964  0.00  0.00    +0.000 C 
ATOM      7  C   UNL     1      25.744  24.017  25.514  0.00  0.00    +0.000 C 
ATOM      8  O   UNL     1      25.675  22.883  24.941  0.00  0.00    +0.000 OA
ATOM      9  C   UNL     1      25.818  25.243  24.681  0.00  0.00    +0.000 C 
ATOM     10  C   UNL     1      25.405  26.493  25.374  0.00  0.00    +0.000 C 
ATOM     11  C   UNL     1      24.701  26.316  26.672  0.00  0.00    +0.000 C 
ATOM     12  C   UNL     1      26.365  22.977  27.753  0.00  0.00    +0.000 C 
ENDROOT
BRANCH  12  13
ATOM     13  C   UNL     1      27.922  23.244  27.566  0.00  0.00    +0.000 A 
ATOM     14  C   UNL     1      28.538  24.381  27.763  0.00  0.00    +0.000 A 
ATOM     15  C   UNL     1      29.903  24.447  27.556  0.00  0.00    +0.000 A 
ATOM     16  C   UNL     1      30.603  23.354  27.152  0.00  0.00    +0.000 A 
ATOM     17  C   UNL     1      29.971  22.148  26.939  0.00  0.00    +0.000 A 
ATOM     18  C   UNL     1      28.584  22.127  27.163  0.00  0.00    +0.000 A 
ENDBRANCH  12  13
BRANCH   1  19
ATOM     19  C   UNL     1      26.780  22.392  30.219  0.00  0.00    +0.000 C 
ATOM     20  O   UNL     1      25.976  21.686  30.863  0.00  0.00    +0.000 OA
BRANCH  19  21
ATOM     21  O   UNL     1      28.120  22.226  30.462  0.00  0.00    +0.000 OA
BRANCH  21  23
ATOM     22  C   UNL     1      30.376  22.754  30.873  0.00  0.00    +0.000 C 
ATOM     23  C   UNL     1      28.936  23.139  31.152  0.00  0.00    +0.000 C 
ENDBRANCH  21  23
ENDBRANCH  19  21
ENDBRANCH   1  19
TORSDOF 4
ENDMDL
MODEL 5
REMARK VINA RESULT:      -6.4     20.637     23.339
REMARK  Name = 
REMARK  4 active torsions:
REMARK  status: ('A' for Active; 'I' for Inactive)
REMARK    1  A    between atoms: C_2  and  O_3
REMARK    2  A    between atoms: O_3  and  C_4
REMARK    3  A    between atoms: C_4  and  C_6
REMARK    4  A    between atoms: C_17  and  C_18
REMARK                            x       y       z     vdW  Elec       q    Type
REMARK                         _______ _______ _______ _____ _____    ______ ____
ROOT
ATOM      1  C   UNL     1      28.120  23.918  22.725  0.00  0.00    +0.000 C 
ATOM      2  C   UNL     1      29.329  23.995  22.357  0.00  0.00    +0.000 C 
ATOM      3  N   UNL     1      29.687  24.464  21.009  0.00  0.00    +0.000 NA
ATOM      4  O   UNL     1      30.375  23.654  23.177  0.00  0.00    +0.000 OA
ATOM      5  C   UNL     1      30.082  23.205  24.462  0.00  0.00    +0.000 C 
ATOM      6  C   UNL     1      28.882  23.101  24.905  0.00  0.00    +0.000 C 
ATOM      7  C   UNL     1      28.643  22.624  26.262  0.00  0.00    +0.000 C 
ATOM      8  O   UNL     1      27.587  21.995  26.593  0.00  0.00    +0.000 OA
ATOM      9  C   UNL     1      29.679  22.886  27.292  0.00  0.00    +0.000 C 
ATOM     10  C   UNL     1      31.037  23.162  26.753  0.00  0.00    +0.000 C 
ATOM     11  C   UNL     1      31.244  22.846  25.314  0.00  0.00    +0.000 C 
ATOM     12  C   UNL     1      27.608  23.451  24.088  0.00  0.00    +0.000 C 
ENDROOT
BRANCH  12  13
ATOM     13  C   UNL     1      27.233  24.877  24.685  0.00  0.00    +0.000 A 
ATOM     14  C   UNL     1      28.073  25.836  24.976  0.00  0.00    +0.000 A 
ATOM     15  C   UNL     1      27.582  27.022  25.490  0.00  0.00    +0.000 A 
ATOM     16  C   UNL     1      26.250  27.199  25.694  0.00  0.00    +0.000 A 
ATOM     17  C   UNL     1      25.350  26.200  25.392  0.00  0.00    +0.000 A 
ATOM     18  C   UNL     1      25.892  25.012  24.872  0.00  0.00    +0.000 A 
ENDBRANCH  12  13
BRANCH   1  19
ATOM     19  C   UNL     1      27.088  24.322  21.729  0.00  0.00    +0.000 C 
ATOM     20  O   UNL     1      26.188  23.513  21.420  0.00  0.00    +0.000 OA
BRANCH  19  21
ATOM     21  O   UNL     1      27.079  25.555  21.127  0.00  0.00    +0.000 OA
BRANCH  21  23
ATOM     22  C   UNL     1      28.120  27.662  21.260  0.00  0.00    +0.000 C 
ATOM     23  C   UNL     1      27.008  26.785  21.805  0.00  0.00    +0.000 C 
ENDBRANCH  21  23
ENDBRANCH  19  21
ENDBRANCH   1  19
TORSDOF 4
ENDMDL
MODEL 6
REMARK VINA RESULT:      -5.8     20.855     22.647
REMARK  Name = 
REMARK  4 active torsions:
REMARK  status: ('A' for Active; 'I' for Inactive)
REMARK    1  A    between atoms: C_2  and  O_3
REMARK    2  A    between atoms: O_3  and  C_4
REMARK    3  A    between atoms: C_4  and  C_6
REMARK    4  A    between atoms: C_17  and  C_18
REMARK                            x       y       z     vdW  Elec       q    Type
REMARK                         _______ _______ _______ _____ _____    ______ ____
ROOT
ATOM      1  C   UNL     1      16.746  -9.426  26.347  0.00  0.00    +0.000 C 
ATOM      2  C   UNL     1      17.023 -10.494  25.727  0.00  0.00    +0.000 C 
ATOM      3  N   UNL     1      16.303 -10.871  24.500  0.00  0.00    +0.000 NA
ATOM      4  O   UNL     1      17.998 -11.362  26.147  0.00  0.00    +0.000 OA
ATOM      5  C   UNL     1      18.704 -11.045  27.304  0.00  0.00    +0.000 C 
ATOM      6  C   UNL     1      18.480  -9.980  27.986  0.00  0.00    +0.000 C 
ATOM      7  C   UNL     1      19.256  -9.707  29.189  0.00  0.00    +0.000 C 
ATOM      8  O   UNL     1      18.790  -9.043  30.170  0.00  0.00    +0.000 OA
ATOM      9  C   UNL     1      20.644 -10.228  29.265  0.00  0.00    +0.000 C 
ATOM     10  C   UNL     1      20.932 -11.365  28.351  0.00  0.00    +0.000 C 
ATOM     11  C   UNL     1      19.750 -12.013  27.723  0.00  0.00    +0.000 C 
ATOM     12  C   UNL     1      17.409  -8.915  27.626  0.00  0.00    +0.000 C 
ENDROOT
BRANCH  12  13
ATOM     13  C   UNL     1      18.306  -7.775  26.972  0.00  0.00    +0.000 A 
ATOM     14  C   UNL     1      19.313  -7.958  26.158  0.00  0.00    +0.000 A 
ATOM     15  C   UNL     1      19.992  -6.856  25.674  0.00  0.00    +0.000 A 
ATOM     16  C   UNL     1      19.627  -5.596  26.033  0.00  0.00    +0.000 A 
ATOM     17  C   UNL     1      18.568  -5.383  26.888  0.00  0.00    +0.000 A 
ATOM     18  C   UNL     1      17.907  -6.532  27.355  0.00  0.00    +0.000 A 
ENDBRANCH  12  13
BRANCH   1  19
ATOM     19  C   UNL     1      15.662  -8.578  25.774  0.00  0.00    +0.000 C 
ATOM     20  O   UNL     1      15.921  -7.821  24.815  0.00  0.00    +0.000 OA
BRANCH  19  21
ATOM     21  O   UNL     1      14.377  -8.590  26.255  0.00  0.00    +0.000 OA
BRANCH  21  23
ATOM     22  C   UNL     1      12.037  -8.780  26.410  0.00  0.00    +0.000 C 
ATOM     23  C   UNL     1      13.219  -8.678  25.465  0.00  0.00    +0.000 C 
ENDBRANCH  21  23
ENDBRANCH  19  21
ENDBRANCH   1  19
TORSDOF 4
ENDMDL
MODEL 7
REMARK VINA RESULT:      -5.8     19.758     22.199
REMARK  Name = 
REMARK  4 active torsions:
REMARK  status: ('A' for Active; 'I' for Inactive)
REMARK    1  A    between atoms: C_2  and  O_3
REMARK    2  A    between atoms: O_3  and  C_4
REMARK    3  A    between atoms: C_4  and  C_6
REMARK    4  A    between atoms: C_17  and  C_18
REMARK                            x       y       z     vdW  Elec       q    Type
REMARK                         _______ _______ _______ _____ _____    ______ ____
ROOT
ATOM      1  C   UNL     1      27.664  23.703  24.032  0.00  0.00    +0.000 C 
ATOM      2  C   UNL     1      28.356  24.391  23.226  0.00  0.00    +0.000 C 
ATOM      3  N   UNL     1      27.734  25.075  22.080  0.00  0.00    +0.000 NA
ATOM      4  O   UNL     1      29.712  24.547  23.361  0.00  0.00    +0.000 OA
ATOM      5  C   UNL     1      30.341  23.918  24.431  0.00  0.00    +0.000 C 
ATOM      6  C   UNL     1      29.706  23.204  25.290  0.00  0.00    +0.000 C 
ATOM      7  C   UNL     1      30.426  22.572  26.388  0.00  0.00    +0.000 C 
ATOM      8  O   UNL     1      30.042  21.482  26.923  0.00  0.00    +0.000 OA
ATOM      9  C   UNL     1      31.655  23.231  26.896  0.00  0.00    +0.000 C 
ATOM     10  C   UNL     1      32.293  24.177  25.943  0.00  0.00    +0.000 C 
ATOM     11  C   UNL     1      31.810  24.113  24.538  0.00  0.00    +0.000 C 
ATOM     12  C   UNL     1      28.176  22.944  25.257  0.00  0.00    +0.000 C 
ENDROOT
BRANCH  12  13
ATOM     13  C   UNL     1      27.661  23.953  26.375  0.00  0.00    +0.000 A 
ATOM     14  C   UNL     1      28.038  25.196  26.524  0.00  0.00    +0.000 A 
ATOM     15  C   UNL     1      27.491  25.943  27.551  0.00  0.00    +0.000 A 
ATOM     16  C   UNL     1      26.577  25.403  28.399  0.00  0.00    +0.000 A 
ATOM     17  C   UNL     1      26.167  24.094  28.257  0.00  0.00    +0.000 A 
ATOM     18  C   UNL     1      26.748  23.374  27.200  0.00  0.00    +0.000 A 
ENDBRANCH  12  13
BRANCH   1  19
ATOM     19  C   UNL     1      26.200  23.622  23.762  0.00  0.00    +0.000 C 
ATOM     20  O   UNL     1      25.786  22.846  22.875  0.00  0.00    +0.000 OA
BRANCH  19  21
ATOM     21  O   UNL     1      25.276  24.367  24.449  0.00  0.00    +0.000 OA
BRANCH  21  23
ATOM     22  C   UNL     1      24.230  26.160  25.558  0.00  0.00    +0.000 C 
ATOM     23  C   UNL     1      25.245  25.771  24.500  0.00  0.00    +0.000 C 
ENDBRANCH  21  23
ENDBRANCH  19  21
ENDBRANCH   1  19
TORSDOF 4
ENDMDL
MODEL 8
REMARK VINA RESULT:      -5.7     21.074     22.674
REMARK  Name = 
REMARK  4 active torsions:
REMARK  status: ('A' for Active; 'I' for Inactive)
REMARK    1  A    between atoms: C_2  and  O_3
REMARK    2  A    between atoms: O_3  and  C_4
REMARK    3  A    between atoms: C_4  and  C_6
REMARK    4  A    between atoms: C_17  and  C_18
REMARK                            x       y       z     vdW  Elec       q    Type
REMARK                         _______ _______ _______ _____ _____    ______ ____
ROOT
ATOM      1  C   UNL     1      18.568  -7.404  25.891  0.00  0.00    +0.000 C 
ATOM      2  C   UNL     1      19.153  -6.292  26.045  0.00  0.00    +0.000 C 
ATOM      3  N   UNL     1      18.478  -5.161  26.703  0.00  0.00    +0.000 NA
ATOM      4  O   UNL     1      20.437  -6.065  25.619  0.00  0.00    +0.000 OA
ATOM      5  C   UNL     1      21.114  -7.108  24.992  0.00  0.00    +0.000 C 
ATOM      6  C   UNL     1      20.587  -8.262  24.800  0.00  0.00    +0.000 C 
ATOM      7  C   UNL     1      21.351  -9.312  24.136  0.00  0.00    +0.000 C 
ATOM      8  O   UNL     1      20.801 -10.227  23.443  0.00  0.00    +0.000 OA
ATOM      9  C   UNL     1      22.828  -9.304  24.278  0.00  0.00    +0.000 C 
ATOM     10  C   UNL     1      23.410  -7.989  24.657  0.00  0.00    +0.000 C 
ATOM     11  C   UNL     1      22.501  -6.817  24.547  0.00  0.00    +0.000 C 
ATOM     12  C   UNL     1      19.147  -8.655  25.229  0.00  0.00    +0.000 C 
ENDROOT
BRANCH  12  13
ATOM     13  C   UNL     1      19.430  -9.495  26.551  0.00  0.00    +0.000 A 
ATOM     14  C   UNL     1      20.227  -9.148  27.528  0.00  0.00    +0.000 A 
ATOM     15  C   UNL     1      20.363  -9.995  28.613  0.00  0.00    +0.000 A 
ATOM     16  C   UNL     1      19.684 -11.171  28.672  0.00  0.00    +0.000 A 
ATOM     17  C   UNL     1      18.839 -11.552  27.652  0.00  0.00    +0.000 A 
ATOM     18  C   UNL     1      18.731 -10.661  26.571  0.00  0.00    +0.000 A 
ENDBRANCH  12  13
BRANCH   1  19
ATOM     19  C   UNL     1      17.173  -7.506  26.403  0.00  0.00    +0.000 C 
ATOM     20  O   UNL     1      16.983  -7.666  27.628  0.00  0.00    +0.000 OA
BRANCH  19  21
ATOM     21  O   UNL     1      16.074  -7.432  25.586  0.00  0.00    +0.000 OA
BRANCH  21  23
ATOM     22  C   UNL     1      15.670  -9.375  24.321  0.00  0.00    +0.000 C 
ATOM     23  C   UNL     1      15.132  -8.459  25.403  0.00  0.00    +0.000 C 
ENDBRANCH  21  23
ENDBRANCH  19  21
ENDBRANCH   1  19
TORSDOF 4
ENDMDL
MODEL 9
REMARK VINA RESULT:      -5.6     19.828     22.170
REMARK  Name = 
REMARK  4 active torsions:
REMARK  status: ('A' for Active; 'I' for Inactive)
REMARK    1  A    between atoms: C_2  and  O_3
REMARK    2  A    between atoms: O_3  and  C_4
REMARK    3  A    between atoms: C_4  and  C_6
REMARK    4  A    between atoms: C_17  and  C_18
REMARK                            x       y       z     vdW  Elec       q    Type
REMARK                         _______ _______ _______ _____ _____    ______ ____
ROOT
ATOM      1  C   UNL     1      28.126  23.722  26.365  0.00  0.00    +0.000 C 
ATOM      2  C   UNL     1      27.553  24.775  26.774  0.00  0.00    +0.000 C 
ATOM      3  N   UNL     1      27.399  25.049  28.212  0.00  0.00    +0.000 NA
ATOM      4  O   UNL     1      27.043  25.719  25.920  0.00  0.00    +0.000 OA
ATOM      5  C   UNL     1      27.166  25.500  24.550  0.00  0.00    +0.000 C 
ATOM      6  C   UNL     1      27.735  24.458  24.061  0.00  0.00    +0.000 C 
ATOM      7  C   UNL     1      27.831  24.289  22.617  0.00  0.00    +0.000 C 
ATOM      8  O   UNL     1      27.857  23.144  22.060  0.00  0.00    +0.000 OA
ATOM      9  C   UNL     1      27.899  25.505  21.769  0.00  0.00    +0.000 C 
ATOM     10  C   UNL     1      27.379  26.741  22.411  0.00  0.00    +0.000 C 
ATOM     11  C   UNL     1      26.600  26.547  23.663  0.00  0.00    +0.000 C 
ATOM     12  C   UNL     1      28.353  23.313  24.910  0.00  0.00    +0.000 C 
ENDROOT
BRANCH  12  13
ATOM     13  C   UNL     1      29.904  23.657  24.820  0.00  0.00    +0.000 A 
ATOM     14  C   UNL     1      30.862  22.820  24.517  0.00  0.00    +0.000 A 
ATOM     15  C   UNL     1      32.165  23.280  24.482  0.00  0.00    +0.000 A 
ATOM     16  C   UNL     1      32.457  24.580  24.757  0.00  0.00    +0.000 A 
ATOM     17  C   UNL     1      31.460  25.475  25.077  0.00  0.00    +0.000 A 
ATOM     18  C   UNL     1      30.151  24.965  25.100  0.00  0.00    +0.000 A 
ENDBRANCH  12  13
BRANCH   1  19
ATOM     19  C   UNL     1      28.632  22.785  27.407  0.00  0.00    +0.000 C 
ATOM     20  O   UNL     1      28.014  21.720  27.621  0.00  0.00    +0.000 OA
BRANCH  19  21
ATOM     21  O   UNL     1      29.756  23.038  28.152  0.00  0.00    +0.000 OA
BRANCH  21  23
ATOM     22  C   UNL     1      32.095  23.287  28.218  0.00  0.00    +0.000 C 
ATOM     23  C   UNL     1      30.950  22.300  28.088  0.00  0.00    +0.000 C 
ENDBRANCH  21  23
ENDBRANCH  19  21
ENDBRANCH   1  19
TORSDOF 4
ENDMDL
MODEL 10
REMARK VINA RESULT:      -5.4     27.095     29.613
REMARK  Name = 
REMARK  4 active torsions:
REMARK  status: ('A' for Active; 'I' for Inactive)
REMARK    1  A    between atoms: C_2  and  O_3
REMARK    2  A    between atoms: O_3  and  C_4
REMARK    3  A    between atoms: C_4  and  C_6
REMARK    4  A    between atoms: C_17  and  C_18
REMARK                            x       y       z     vdW  Elec       q    Type
REMARK                         _______ _______ _______ _____ _____    ______ ____
ROOT
ATOM      1  C   UNL     1       9.531  13.210  11.788  0.00  0.00    +0.000 C 
ATOM      2  C   UNL     1       9.693  12.457  12.794  0.00  0.00    +0.000 C 
ATOM      3  N   UNL     1       9.467  12.953  14.161  0.00  0.00    +0.000 NA
ATOM      4  O   UNL     1      10.085  11.148  12.682  0.00  0.00    +0.000 OA
ATOM      5  C   UNL     1      10.310  10.637  11.406  0.00  0.00    +0.000 C 
ATOM      6  C   UNL     1      10.166  11.338  10.341  0.00  0.00    +0.000 C 
ATOM      7  C   UNL     1      10.418  10.742   9.035  0.00  0.00    +0.000 C 
ATOM      8  O   UNL     1      10.825  11.421   8.037  0.00  0.00    +0.000 OA
ATOM      9  C   UNL     1      10.190   9.285   8.870  0.00  0.00    +0.000 C 
ATOM     10  C   UNL     1      10.204   8.506  10.137  0.00  0.00    +0.000 C 
ATOM     11  C   UNL     1      10.733   9.215  11.332  0.00  0.00    +0.000 C 
ATOM     12  C   UNL     1       9.729  12.829  10.321  0.00  0.00    +0.000 C 
ENDROOT
BRANCH  12  13
ATOM     13  C   UNL     1       8.196  12.703   9.914  0.00  0.00    +0.000 A 
ATOM     14  C   UNL     1       7.306  11.940  10.492  0.00  0.00    +0.000 A 
ATOM     15  C   UNL     1       6.008  11.946  10.015  0.00  0.00    +0.000 A 
ATOM     16  C   UNL     1       5.653  12.730   8.962  0.00  0.00    +0.000 A 
ATOM     17  C   UNL     1       6.578  13.542   8.342  0.00  0.00    +0.000 A 
ATOM     18  C   UNL     1       7.884  13.503   8.860  0.00  0.00    +0.000 A 
ENDBRANCH  12  13
BRANCH   1  19
ATOM     19  C   UNL     1       9.103  14.611  12.060  0.00  0.00    +0.000 C 
ATOM     20  O   UNL     1       9.933  15.537  11.942  0.00  0.00    +0.000 OA
BRANCH  19  21
ATOM     21  O   UNL     1       7.825  14.938  12.439  0.00  0.00    +0.000 OA
BRANCH  21  23
ATOM     22  C   UNL     1       5.536  15.139  11.933  0.00  0.00    +0.000 C 
ATOM     23  C   UNL     1       6.923  15.695  11.673  0.00  0.00    +0.000 C 
ENDBRANCH  21  23
ENDBRANCH  19  21
ENDBRANCH   1  19
TORSDOF 4
ENDMDL
