MODEL 1
REMARK VINA RESULT:      -6.2      0.000      0.000
REMARK  Name = 
REMARK  2 active torsions:
REMARK  status: ('A' for Active; 'I' for Inactive)
REMARK    1  A    between atoms: C_6  and  C_7
REMARK    2  A    between atoms: C_8  and  C_9
REMARK                            x       y       z     vdW  Elec       q    Type
REMARK                         _______ _______ _______ _____ _____    ______ ____
ROOT
ATOM      1  C   UNL     1      16.145  10.675  36.124  0.00  0.00    +0.000 C 
ATOM      2  C   UNL     1      14.919  11.335  36.684  0.00  0.00    +0.000 C 
ATOM      3  C   UNL     1      14.151  12.088  35.959  0.00  0.00    +0.000 C 
ATOM      4  N   UNL     1      12.997  12.654  36.647  0.00  0.00    +0.000 NA
ATOM      5  O   UNL     1      14.343  12.387  34.614  0.00  0.00    +0.000 OA
ATOM      6  C   UNL     1      15.469  11.800  34.071  0.00  0.00    +0.000 C 
ATOM      7  C   UNL     1      16.310  11.029  34.697  0.00  0.00    +0.000 C 
ATOM      8  C   UNL     1      17.507  10.470  33.939  0.00  0.00    +0.000 C 
ATOM      9  C   UNL     1      17.172  10.083  32.552  0.00  0.00    +0.000 C 
ATOM     10  C   UNL     1      16.129  10.898  31.863  0.00  0.00    +0.000 C 
ATOM     11  C   UNL     1      15.693  12.125  32.595  0.00  0.00    +0.000 C 
ENDROOT
BRANCH   1  17
ATOM     12  C   UNL     1      18.324   9.145  37.765  0.00  0.00    +0.000 C 
ATOM     13  C   UNL     1      18.255  10.660  37.586  0.00  0.00    +0.000 A 
ATOM     14  C   UNL     1      19.216  11.405  38.187  0.00  0.00    +0.000 A 
ATOM     15  C   UNL     1      19.156  12.750  38.026  0.00  0.00    +0.000 A 
ATOM     16  S   UNL     1      17.775  12.957  37.051  0.00  0.00    +0.000 S 
ATOM     17  C   UNL     1      17.323  11.357  36.879  0.00  0.00    +0.000 A 
ENDBRANCH   1  17
BRANCH   2  18
ATOM     18  C   UNL     1      14.555  11.143  38.091  0.00  0.00    +0.000 C 
ATOM     19  N   UNL     1      14.261  10.965  39.200  0.00  0.00    +0.000 NA
ENDBRANCH   2  18
TORSDOF 2
ENDMDL
MODEL 2
REMARK VINA RESULT:      -6.2      2.554      4.552
REMARK  Name = 
REMARK  2 active torsions:
REMARK  status: ('A' for Active; 'I' for Inactive)
REMARK    1  A    between atoms: C_6  and  C_7
REMARK    2  A    between atoms: C_8  and  C_9
REMARK                            x       y       z     vdW  Elec       q    Type
REMARK                         _______ _______ _______ _____ _____    ______ ____
ROOT
ATOM      1  C   UNL     1      15.505  12.712  34.396  0.00  0.00    +0.000 C 
ATOM      2  C   UNL     1      16.570  11.821  34.966  0.00  0.00    +0.000 C 
ATOM      3  C   UNL     1      16.981  10.758  34.347  0.00  0.00    +0.000 C 
ATOM      4  N   UNL     1      18.023  10.000  35.029  0.00  0.00    +0.000 NA
ATOM      5  O   UNL     1      16.513  10.301  33.119  0.00  0.00    +0.000 OA
ATOM      6  C   UNL     1      15.525  11.096  32.572  0.00  0.00    +0.000 C 
ATOM      7  C   UNL     1      15.035  12.181  33.097  0.00  0.00    +0.000 C 
ATOM      8  C   UNL     1      13.940  12.934  32.353  0.00  0.00    +0.000 C 
ATOM      9  C   UNL     1      14.155  12.954  30.890  0.00  0.00    +0.000 C 
ATOM     10  C   UNL     1      14.816  11.756  30.295  0.00  0.00    +0.000 C 
ATOM     11  C   UNL     1      15.001  10.601  31.225  0.00  0.00    +0.000 C 
ENDROOT
BRANCH   1  17
ATOM     12  C   UNL     1      13.237  14.832  34.782  0.00  0.00    +0.000 C 
ATOM     13  C   UNL     1      13.342  13.503  35.528  0.00  0.00    +0.000 A 
ATOM     14  C   UNL     1      12.372  13.217  36.433  0.00  0.00    +0.000 A 
ATOM     15  C   UNL     1      12.463  12.037  37.094  0.00  0.00    +0.000 A 
ATOM     16  S   UNL     1      13.883  11.349  36.454  0.00  0.00    +0.000 S 
ATOM     17  C   UNL     1      14.312  12.559  35.383  0.00  0.00    +0.000 A 
ENDBRANCH   1  17
BRANCH   2  18
ATOM     18  C   UNL     1      17.180  12.138  36.260  0.00  0.00    +0.000 C 
ATOM     19  N   UNL     1      17.661  12.414  37.280  0.00  0.00    +0.000 NA
ENDBRANCH   2  18
TORSDOF 2
ENDMDL
MODEL 3
REMARK VINA RESULT:      -5.4     18.754     19.738
REMARK  Name = 
REMARK  2 active torsions:
REMARK  status: ('A' for Active; 'I' for Inactive)
REMARK    1  A    between atoms: C_6  and  C_7
REMARK    2  A    between atoms: C_8  and  C_9
REMARK                            x       y       z     vdW  Elec       q    Type
REMARK                         _______ _______ _______ _____ _____    ______ ____
ROOT
ATOM      1  C   UNL     1      10.996  22.360  21.842  0.00  0.00    +0.000 C 
ATOM      2  C   UNL     1      10.576  21.067  21.207  0.00  0.00    +0.000 C 
ATOM      3  C   UNL     1      11.354  20.412  20.401  0.00  0.00    +0.000 C 
ATOM      4  N   UNL     1      10.803  19.171  19.870  0.00  0.00    +0.000 NA
ATOM      5  O   UNL     1      12.635  20.797  20.018  0.00  0.00    +0.000 OA
ATOM      6  C   UNL     1      13.047  21.989  20.579  0.00  0.00    +0.000 C 
ATOM      7  C   UNL     1      12.358  22.730  21.399  0.00  0.00    +0.000 C 
ATOM      8  C   UNL     1      12.971  24.024  21.919  0.00  0.00    +0.000 C 
ATOM      9  C   UNL     1      14.415  23.892  22.212  0.00  0.00    +0.000 C 
ATOM     10  C   UNL     1      15.191  22.960  21.344  0.00  0.00    +0.000 C 
ATOM     11  C   UNL     1      14.451  22.423  20.162  0.00  0.00    +0.000 C 
ENDROOT
BRANCH   1  17
ATOM     12  C   UNL     1       9.067  24.189  23.491  0.00  0.00    +0.000 C 
ATOM     13  C   UNL     1       9.208  24.197  21.971  0.00  0.00    +0.000 A 
ATOM     14  C   UNL     1       8.433  25.068  21.276  0.00  0.00    +0.000 A 
ATOM     15  C   UNL     1       8.560  25.077  19.926  0.00  0.00    +0.000 A 
ATOM     16  S   UNL     1       9.742  23.884  19.645  0.00  0.00    +0.000 S 
ATOM     17  C   UNL     1      10.036  23.418  21.223  0.00  0.00    +0.000 A 
ENDBRANCH   1  17
BRANCH   2  18
ATOM     18  C   UNL     1       9.252  20.504  21.487  0.00  0.00    +0.000 C 
ATOM     19  N   UNL     1       8.194  20.083  21.710  0.00  0.00    +0.000 NA
ENDBRANCH   2  18
TORSDOF 2
ENDMDL
MODEL 4
REMARK VINA RESULT:      -5.4     23.964     25.709
REMARK  Name = 
REMARK  2 active torsions:
REMARK  status: ('A' for Active; 'I' for Inactive)
REMARK    1  A    between atoms: C_6  and  C_7
REMARK    2  A    between atoms: C_8  and  C_9
REMARK                            x       y       z     vdW  Elec       q    Type
REMARK                         _______ _______ _______ _____ _____    ______ ____
ROOT
ATOM      1  C   UNL     1      34.825  -5.446  32.330  0.00  0.00    +0.000 C 
ATOM      2  C   UNL     1      35.792  -6.292  33.105  0.00  0.00    +0.000 C 
ATOM      3  C   UNL     1      36.192  -7.449  32.675  0.00  0.00    +0.000 C 
ATOM      4  N   UNL     1      37.134  -8.147  33.541  0.00  0.00    +0.000 NA
ATOM      5  O   UNL     1      35.798  -8.053  31.486  0.00  0.00    +0.000 OA
ATOM      6  C   UNL     1      34.901  -7.302  30.753  0.00  0.00    +0.000 C 
ATOM      7  C   UNL     1      34.431  -6.133  31.080  0.00  0.00    +0.000 C 
ATOM      8  C   UNL     1      33.440  -5.447  30.149  0.00  0.00    +0.000 C 
ATOM      9  C   UNL     1      33.772  -5.642  28.721  0.00  0.00    +0.000 C 
ATOM     10  C   UNL     1      34.411  -6.940  28.354  0.00  0.00    +0.000 C 
ATOM     11  C   UNL     1      34.458  -7.958  29.446  0.00  0.00    +0.000 C 
ENDROOT
BRANCH   1  17
ATOM     12  C   UNL     1      33.554  -2.836  33.496  0.00  0.00    +0.000 C 
ATOM     13  C   UNL     1      33.025  -4.252  33.715  0.00  0.00    +0.000 A 
ATOM     14  C   UNL     1      31.912  -4.391  34.480  0.00  0.00    +0.000 A 
ATOM     15  C   UNL     1      31.440  -5.647  34.673  0.00  0.00    +0.000 A 
ATOM     16  S   UNL     1      32.542  -6.608  33.799  0.00  0.00    +0.000 S 
ATOM     17  C   UNL     1      33.551  -5.406  33.223  0.00  0.00    +0.000 A 
ENDBRANCH   1  17
BRANCH   2  18
ATOM     18  C   UNL     1      36.314  -5.823  34.392  0.00  0.00    +0.000 C 
ATOM     19  N   UNL     1      36.706  -5.438  35.414  0.00  0.00    +0.000 NA
ENDBRANCH   2  18
TORSDOF 2
ENDMDL
MODEL 5
REMARK VINA RESULT:      -5.4     20.405     21.790
REMARK  Name = 
REMARK  2 active torsions:
REMARK  status: ('A' for Active; 'I' for Inactive)
REMARK    1  A    between atoms: C_6  and  C_7
REMARK    2  A    between atoms: C_8  and  C_9
REMARK                            x       y       z     vdW  Elec       q    Type
REMARK                         _______ _______ _______ _____ _____    ______ ____
ROOT
ATOM      1  C   UNL     1      28.524  25.317  24.173  0.00  0.00    +0.000 C 
ATOM      2  C   UNL     1      28.021  24.725  22.889  0.00  0.00    +0.000 C 
ATOM      3  C   UNL     1      26.928  24.028  22.835  0.00  0.00    +0.000 C 
ATOM      4  N   UNL     1      26.571  23.524  21.515  0.00  0.00    +0.000 NA
ATOM      5  O   UNL     1      26.099  23.734  23.913  0.00  0.00    +0.000 OA
ATOM      6  C   UNL     1      26.541  24.258  25.111  0.00  0.00    +0.000 C 
ATOM      7  C   UNL     1      27.616  24.971  25.288  0.00  0.00    +0.000 C 
ATOM      8  C   UNL     1      27.954  25.467  26.688  0.00  0.00    +0.000 C 
ATOM      9  C   UNL     1      26.756  25.889  27.447  0.00  0.00    +0.000 C 
ATOM     10  C   UNL     1      25.493  25.145  27.171  0.00  0.00    +0.000 C 
ATOM     11  C   UNL     1      25.639  23.938  26.303  0.00  0.00    +0.000 C 
ENDROOT
BRANCH   1  17
ATOM     12  C   UNL     1      31.244  26.696  24.871  0.00  0.00    +0.000 C 
ATOM     13  C   UNL     1      31.023  25.190  24.747  0.00  0.00    +0.000 A 
ATOM     14  C   UNL     1      32.093  24.382  24.956  0.00  0.00    +0.000 A 
ATOM     15  C   UNL     1      31.896  23.045  24.849  0.00  0.00    +0.000 A 
ATOM     16  S   UNL     1      30.242  22.931  24.460  0.00  0.00    +0.000 S 
ATOM     17  C   UNL     1      29.855  24.558  24.447  0.00  0.00    +0.000 A 
ENDBRANCH   1  17
BRANCH   2  18
ATOM     18  C   UNL     1      28.768  24.923  21.644  0.00  0.00    +0.000 C 
ATOM     19  N   UNL     1      29.378  25.092  20.671  0.00  0.00    +0.000 NA
ENDBRANCH   2  18
TORSDOF 2
ENDMDL
MODEL 6
REMARK VINA RESULT:      -5.3     20.158     21.652
REMARK  Name = 
REMARK  2 active torsions:
REMARK  status: ('A' for Active; 'I' for Inactive)
REMARK    1  A    between atoms: C_6  and  C_7
REMARK    2  A    between atoms: C_8  and  C_9
REMARK                            x       y       z     vdW  Elec       q    Type
REMARK                         _______ _______ _______ _____ _____    ______ ____
ROOT
ATOM      1  C   UNL     1      27.974  23.818  24.547  0.00  0.00    +0.000 C 
ATOM      2  C   UNL     1      28.183  23.880  23.063  0.00  0.00    +0.000 C 
ATOM      3  C   UNL     1      29.353  24.080  22.540  0.00  0.00    +0.000 C 
ATOM      4  N   UNL     1      29.392  24.111  21.083  0.00  0.00    +0.000 NA
ATOM      5  O   UNL     1      30.537  24.264  23.248  0.00  0.00    +0.000 OA
ATOM      6  C   UNL     1      30.376  24.220  24.618  0.00  0.00    +0.000 C 
ATOM      7  C   UNL     1      29.257  24.026  25.254  0.00  0.00    +0.000 C 
ATOM      8  C   UNL     1      29.263  24.013  26.777  0.00  0.00    +0.000 C 
ATOM      9  C   UNL     1      30.458  23.344  27.335  0.00  0.00    +0.000 C 
ATOM     10  C   UNL     1      31.723  23.472  26.555  0.00  0.00    +0.000 C 
ATOM     11  C   UNL     1      31.670  24.425  25.405  0.00  0.00    +0.000 C 
ENDROOT
BRANCH   1  17
ATOM     12  C   UNL     1      25.530  23.826  26.500  0.00  0.00    +0.000 C 
ATOM     13  C   UNL     1      26.040  25.033  25.717  0.00  0.00    +0.000 A 
ATOM     14  C   UNL     1      25.379  26.208  25.880  0.00  0.00    +0.000 A 
ATOM     15  C   UNL     1      25.833  27.281  25.187  0.00  0.00    +0.000 A 
ATOM     16  S   UNL     1      27.158  26.648  24.325  0.00  0.00    +0.000 S 
ATOM     17  C   UNL     1      27.098  25.065  24.862  0.00  0.00    +0.000 A 
ENDBRANCH   1  17
BRANCH   2  18
ATOM     18  C   UNL     1      27.047  23.715  22.151  0.00  0.00    +0.000 C 
ATOM     19  N   UNL     1      26.134  23.572  21.448  0.00  0.00    +0.000 NA
ENDBRANCH   2  18
TORSDOF 2
ENDMDL
MODEL 7
REMARK VINA RESULT:      -5.3     21.217     22.879
REMARK  Name = 
REMARK  2 active torsions:
REMARK  status: ('A' for Active; 'I' for Inactive)
REMARK    1  A    between atoms: C_6  and  C_7
REMARK    2  A    between atoms: C_8  and  C_9
REMARK                            x       y       z     vdW  Elec       q    Type
REMARK                         _______ _______ _______ _____ _____    ______ ____
ROOT
ATOM      1  C   UNL     1      18.841  -9.218  28.641  0.00  0.00    +0.000 C 
ATOM      2  C   UNL     1      20.051 -10.101  28.560  0.00  0.00    +0.000 C 
ATOM      3  C   UNL     1      20.953  -9.949  27.639  0.00  0.00    +0.000 C 
ATOM      4  N   UNL     1      22.070 -10.883  27.696  0.00  0.00    +0.000 NA
ATOM      5  O   UNL     1      20.930  -8.989  26.632  0.00  0.00    +0.000 OA
ATOM      6  C   UNL     1      19.823  -8.166  26.676  0.00  0.00    +0.000 C 
ATOM      7  C   UNL     1      18.858  -8.222  27.548  0.00  0.00    +0.000 C 
ATOM      8  C   UNL     1      17.706  -7.231  27.442  0.00  0.00    +0.000 C 
ATOM      9  C   UNL     1      18.153  -5.878  27.047  0.00  0.00    +0.000 C 
ATOM     10  C   UNL     1      19.328  -5.802  26.131  0.00  0.00    +0.000 C 
ATOM     11  C   UNL     1      19.786  -7.110  25.572  0.00  0.00    +0.000 C 
ENDROOT
BRANCH   1  17
ATOM     12  C   UNL     1      16.841 -10.302  30.789  0.00  0.00    +0.000 C 
ATOM     13  C   UNL     1      16.799 -10.628  29.298  0.00  0.00    +0.000 A 
ATOM     14  C   UNL     1      15.814 -11.456  28.867  0.00  0.00    +0.000 A 
ATOM     15  C   UNL     1      15.774 -11.744  27.543  0.00  0.00    +0.000 A 
ATOM     16  S   UNL     1      17.096 -10.868  26.922  0.00  0.00    +0.000 S 
ATOM     17  C   UNL     1      17.650 -10.173  28.338  0.00  0.00    +0.000 A 
ENDBRANCH   1  17
BRANCH   2  18
ATOM     18  C   UNL     1      20.245 -11.178  29.535  0.00  0.00    +0.000 C 
ATOM     19  N   UNL     1      20.385 -12.047  30.291  0.00  0.00    +0.000 NA
ENDBRANCH   2  18
TORSDOF 2
ENDMDL
MODEL 8
REMARK VINA RESULT:      -5.3     20.460     21.598
REMARK  Name = 
REMARK  2 active torsions:
REMARK  status: ('A' for Active; 'I' for Inactive)
REMARK    1  A    between atoms: C_6  and  C_7
REMARK    2  A    between atoms: C_8  and  C_9
REMARK                            x       y       z     vdW  Elec       q    Type
REMARK                         _______ _______ _______ _____ _____    ______ ____
ROOT
ATOM      1  C   UNL     1      30.383  23.444  24.953  0.00  0.00    +0.000 C 
ATOM      2  C   UNL     1      29.818  22.771  26.168  0.00  0.00    +0.000 C 
ATOM      3  C   UNL     1      28.541  22.613  26.336  0.00  0.00    +0.000 C 
ATOM      4  N   UNL     1      28.150  21.937  27.567  0.00  0.00    +0.000 NA
ATOM      5  O   UNL     1      27.549  23.030  25.454  0.00  0.00    +0.000 OA
ATOM      6  C   UNL     1      28.038  23.661  24.328  0.00  0.00    +0.000 C 
ATOM      7  C   UNL     1      29.292  23.875  24.051  0.00  0.00    +0.000 C 
ATOM      8  C   UNL     1      29.652  24.595  22.758  0.00  0.00    +0.000 C 
ATOM      9  C   UNL     1      28.791  24.194  21.625  0.00  0.00    +0.000 C 
ATOM     10  C   UNL     1      27.378  23.842  21.949  0.00  0.00    +0.000 C 
ATOM     11  C   UNL     1      26.957  24.127  23.354  0.00  0.00    +0.000 C 
ENDROOT
BRANCH   1  17
ATOM     12  C   UNL     1      33.402  24.200  24.636  0.00  0.00    +0.000 C 
ATOM     13  C   UNL     1      32.349  25.045  25.350  0.00  0.00    +0.000 A 
ATOM     14  C   UNL     1      32.755  26.221  25.893  0.00  0.00    +0.000 A 
ATOM     15  C   UNL     1      31.820  26.973  26.525  0.00  0.00    +0.000 A 
ATOM     16  S   UNL     1      30.404  26.042  26.358  0.00  0.00    +0.000 S 
ATOM     17  C   UNL     1      31.030  24.747  25.504  0.00  0.00    +0.000 A 
ENDBRANCH   1  17
BRANCH   2  18
ATOM     18  C   UNL     1      30.711  22.269  27.216  0.00  0.00    +0.000 C 
ATOM     19  N   UNL     1      31.439  21.871  28.028  0.00  0.00    +0.000 NA
ENDBRANCH   2  18
TORSDOF 2
ENDMDL
MODEL 9
REMARK VINA RESULT:      -5.2     21.233     22.980
REMARK  Name = 
REMARK  2 active torsions:
REMARK  status: ('A' for Active; 'I' for Inactive)
REMARK    1  A    between atoms: C_6  and  C_7
REMARK    2  A    between atoms: C_8  and  C_9
REMARK                            x       y       z     vdW  Elec       q    Type
REMARK                         _______ _______ _______ _____ _____    ______ ____
ROOT
ATOM      1  C   UNL     1      18.085  -9.175  25.329  0.00  0.00    +0.000 C 
ATOM      2  C   UNL     1      16.585  -9.183  25.367  0.00  0.00    +0.000 C 
ATOM      3  C   UNL     1      15.903  -8.181  25.831  0.00  0.00    +0.000 C 
ATOM      4  N   UNL     1      14.455  -8.339  25.796  0.00  0.00    +0.000 NA
ATOM      5  O   UNL     1      16.438  -7.004  26.346  0.00  0.00    +0.000 OA
ATOM      6  C   UNL     1      17.818  -6.970  26.332  0.00  0.00    +0.000 C 
ATOM      7  C   UNL     1      18.605  -7.910  25.893  0.00  0.00    +0.000 C 
ATOM      8  C   UNL     1      20.113  -7.704  25.959  0.00  0.00    +0.000 C 
ATOM      9  C   UNL     1      20.512  -6.315  25.645  0.00  0.00    +0.000 C 
ATOM     10  C   UNL     1      19.563  -5.237  26.051  0.00  0.00    +0.000 C 
ATOM     11  C   UNL     1      18.417  -5.684  26.898  0.00  0.00    +0.000 C 
ENDROOT
BRANCH   1  17
ATOM     12  C   UNL     1      19.844 -11.654  24.590  0.00  0.00    +0.000 C 
ATOM     13  C   UNL     1      19.264 -11.362  25.972  0.00  0.00    +0.000 A 
ATOM     14  C   UNL     1      19.531 -12.251  26.962  0.00  0.00    +0.000 A 
ATOM     15  C   UNL     1      19.018 -11.992  28.190  0.00  0.00    +0.000 A 
ATOM     16  S   UNL     1      18.177 -10.531  27.952  0.00  0.00    +0.000 S 
ATOM     17  C   UNL     1      18.497 -10.295  26.328  0.00  0.00    +0.000 A 
ENDBRANCH   1  17
BRANCH   2  18
ATOM     18  C   UNL     1      15.841 -10.345  24.873  0.00  0.00    +0.000 C 
ATOM     19  N   UNL     1      15.273 -11.280  24.485  0.00  0.00    +0.000 NA
ENDBRANCH   2  18
TORSDOF 2
ENDMDL
MODEL 10
REMARK VINA RESULT:      -5.2     20.817     22.625
REMARK  Name = 
REMARK  2 active torsions:
REMARK  status: ('A' for Active; 'I' for Inactive)
REMARK    1  A    between atoms: C_6  and  C_7
REMARK    2  A    between atoms: C_8  and  C_9
REMARK                            x       y       z     vdW  Elec       q    Type
REMARK                         _______ _______ _______ _____ _____    ______ ____
ROOT
ATOM      1  C   UNL     1      19.228  -8.493  25.310  0.00  0.00    +0.000 C 
ATOM      2  C   UNL     1      18.558  -7.282  25.889  0.00  0.00    +0.000 C 
ATOM      3  C   UNL     1      19.187  -6.158  26.047  0.00  0.00    +0.000 C 
ATOM      4  N   UNL     1      18.398  -5.074  26.618  0.00  0.00    +0.000 NA
ATOM      5  O   UNL     1      20.519  -5.921  25.723  0.00  0.00    +0.000 OA
ATOM      6  C   UNL     1      21.165  -7.020  25.195  0.00  0.00    +0.000 C 
ATOM      7  C   UNL     1      20.641  -8.194  24.990  0.00  0.00    +0.000 C 
ATOM      8  C   UNL     1      21.507  -9.299  24.401  0.00  0.00    +0.000 C 
ATOM      9  C   UNL     1      22.432  -8.804  23.358  0.00  0.00    +0.000 C 
ATOM     10  C   UNL     1      22.954  -7.417  23.531  0.00  0.00    +0.000 C 
ATOM     11  C   UNL     1      22.631  -6.772  24.839  0.00  0.00    +0.000 C 
ENDROOT
BRANCH   1  17
ATOM     12  C   UNL     1      17.914 -11.331  25.236  0.00  0.00    +0.000 C 
ATOM     13  C   UNL     1      18.673 -10.739  26.422  0.00  0.00    +0.000 A 
ATOM     14  C   UNL     1      18.787 -11.505  27.536  0.00  0.00    +0.000 A 
ATOM     15  C   UNL     1      19.463 -10.981  28.588  0.00  0.00    +0.000 A 
ATOM     16  S   UNL     1      19.923  -9.444  28.019  0.00  0.00    +0.000 S 
ATOM     17  C   UNL     1      19.257  -9.511  26.487  0.00  0.00    +0.000 A 
ENDBRANCH   1  17
BRANCH   2  18
ATOM     18  C   UNL     1      17.152  -7.341  26.298  0.00  0.00    +0.000 C 
ATOM     19  N   UNL     1      16.031  -7.383  26.597  0.00  0.00    +0.000 NA
ENDBRANCH   2  18
TORSDOF 2
ENDMDL
