MODEL 1
REMARK VINA RESULT:      -7.9      0.000      0.000
REMARK  Name = 
REMARK  8 active torsions:
REMARK  status: ('A' for Active; 'I' for Inactive)
REMARK    1  A    between atoms: C_2  and  O_3
REMARK    2  A    between atoms: O_3  and  C_4
REMARK    3  A    between atoms: C_7  and  N_8
REMARK    4  A    between atoms: C_11  and  N_12
REMARK    5  A    between atoms: N_12  and  C_13
REMARK    6  A    between atoms: C_16  and  O_17
REMARK    7  A    between atoms: C_21  and  S_22
REMARK    8  A    between atoms: S_22  and  C_23
REMARK                            x       y       z     vdW  Elec       q    Type
REMARK                         _______ _______ _______ _____ _____    ______ ____
ROOT
ATOM      1  N   UNL     1      36.519   2.256  15.153  0.00  0.00    +0.000 N 
ATOM      2  C   UNL     1      35.624   3.320  14.852  0.00  0.00    +0.000 C 
ATOM      3  O   UNL     1      34.390   3.166  14.709  0.00  0.00    +0.000 OA
ATOM      4  C   UNL     1      36.412   4.565  14.750  0.00  0.00    +0.000 C 
ATOM      5  C   UNL     1      37.685   4.290  14.969  0.00  0.00    +0.000 C 
ATOM      6  C   UNL     1      37.801   2.863  15.225  0.00  0.00    +0.000 C 
ATOM      7  O   UNL     1      38.857   2.201  15.481  0.00  0.00    +0.000 OA
ENDROOT
BRANCH   1  11
ATOM      8  C   UNL     1      35.604  -1.807  15.822  0.00  0.00    +0.000 A 
ATOM      9  C   UNL     1      35.170  -0.833  16.693  0.00  0.00    +0.000 A 
ATOM     10  C   UNL     1      35.492   0.494  16.441  0.00  0.00    +0.000 A 
ATOM     11  C   UNL     1      36.234   0.881  15.348  0.00  0.00    +0.000 A 
ATOM     12  C   UNL     1      36.659  -0.109  14.489  0.00  0.00    +0.000 A 
ATOM     13  C   UNL     1      36.346  -1.452  14.724  0.00  0.00    +0.000 A 
BRANCH   8  14
ATOM     14  O   UNL     1      35.264  -3.130  16.104  0.00  0.00    +0.000 OA
BRANCH  14  16
ATOM     15  C   UNL     1      33.625  -4.358  14.801  0.00  0.00    +0.000 C 
ATOM     16  C   UNL     1      35.075  -4.090  15.081  0.00  0.00    +0.000 C 
ENDBRANCH  14  16
ENDBRANCH   8  14
ENDBRANCH   1  11
BRANCH   4  17
ATOM     17  N   UNL     1      35.890   5.852  14.462  0.00  0.00    +0.000 NA
BRANCH  17  18
ATOM     18  C   UNL     1      35.372   6.215  13.194  0.00  0.00    +0.000 A 
ATOM     19  C   UNL     1      34.152   6.848  13.138  0.00  0.00    +0.000 A 
ATOM     20  C   UNL     1      33.557   7.246  11.936  0.00  0.00    +0.000 A 
ATOM     21  C   UNL     1      34.209   7.002  10.748  0.00  0.00    +0.000 A 
ATOM     22  C   UNL     1      35.433   6.366  10.806  0.00  0.00    +0.000 A 
ATOM     23  C   UNL     1      36.026   5.970  12.005  0.00  0.00    +0.000 A 
BRANCH  21  24
ATOM     24  O   UNL     1      33.651   7.382   9.524  0.00  0.00    +0.000 OA
ATOM     25  C   UNL     1      34.475   7.663   8.415  0.00  0.00    +0.000 C 
ENDBRANCH  21  24
ENDBRANCH  17  18
ENDBRANCH   4  17
BRANCH   5  26
ATOM     26  S   UNL     1      39.062   5.418  14.967  0.00  0.00    +0.000 S 
BRANCH  26  27
ATOM     27  C   UNL     1      39.632   5.718  16.626  0.00  0.00    +0.000 A 
ATOM     28  C   UNL     1      38.871   5.513  17.755  0.00  0.00    +0.000 A 
ATOM     29  C   UNL     1      39.432   5.788  19.005  0.00  0.00    +0.000 A 
ATOM     30  C   UNL     1      40.722   6.256  19.118  0.00  0.00    +0.000 A 
ATOM     31  C   UNL     1      41.479   6.458  17.979  0.00  0.00    +0.000 A 
ATOM     32  C   UNL     1      40.930   6.191  16.764  0.00  0.00    +0.000 A 
ENDBRANCH  26  27
ENDBRANCH   5  26
TORSDOF 8
ENDMDL
MODEL 2
REMARK VINA RESULT:      -7.9      3.824      8.944
REMARK  Name = 
REMARK  8 active torsions:
REMARK  status: ('A' for Active; 'I' for Inactive)
REMARK    1  A    between atoms: C_2  and  O_3
REMARK    2  A    between atoms: O_3  and  C_4
REMARK    3  A    between atoms: C_7  and  N_8
REMARK    4  A    between atoms: C_11  and  N_12
REMARK    5  A    between atoms: N_12  and  C_13
REMARK    6  A    between atoms: C_16  and  O_17
REMARK    7  A    between atoms: C_21  and  S_22
REMARK    8  A    between atoms: S_22  and  C_23
REMARK                            x       y       z     vdW  Elec       q    Type
REMARK                         _______ _______ _______ _____ _____    ______ ____
ROOT
ATOM      1  N   UNL     1      38.136   3.770  16.039  0.00  0.00    +0.000 N 
ATOM      2  C   UNL     1      37.096   2.803  16.135  0.00  0.00    +0.000 C 
ATOM      3  O   UNL     1      36.219   2.817  17.029  0.00  0.00    +0.000 OA
ATOM      4  C   UNL     1      37.261   1.842  15.026  0.00  0.00    +0.000 C 
ATOM      5  C   UNL     1      38.315   2.187  14.307  0.00  0.00    +0.000 C 
ATOM      6  C   UNL     1      38.893   3.383  14.900  0.00  0.00    +0.000 C 
ATOM      7  O   UNL     1      39.916   4.030  14.508  0.00  0.00    +0.000 OA
ENDROOT
BRANCH   1  11
ATOM      8  C   UNL     1      38.853   7.161  18.442  0.00  0.00    +0.000 A 
ATOM      9  C   UNL     1      38.329   7.291  17.175  0.00  0.00    +0.000 A 
ATOM     10  C   UNL     1      38.108   6.151  16.413  0.00  0.00    +0.000 A 
ATOM     11  C   UNL     1      38.393   4.886  16.873  0.00  0.00    +0.000 A 
ATOM     12  C   UNL     1      38.916   4.778  18.142  0.00  0.00    +0.000 A 
ATOM     13  C   UNL     1      39.147   5.912  18.928  0.00  0.00    +0.000 A 
BRANCH   8  14
ATOM     14  O   UNL     1      39.063   8.324  19.182  0.00  0.00    +0.000 OA
BRANCH  14  16
ATOM     15  C   UNL     1      38.371   9.792  20.988  0.00  0.00    +0.000 C 
ATOM     16  C   UNL     1      38.749   8.403  20.560  0.00  0.00    +0.000 C 
ENDBRANCH  14  16
ENDBRANCH   8  14
ENDBRANCH   1  11
BRANCH   4  17
ATOM     17  N   UNL     1      36.425   0.725  14.768  0.00  0.00    +0.000 NA
BRANCH  17  18
ATOM     18  C   UNL     1      36.678  -0.570  15.285  0.00  0.00    +0.000 A 
ATOM     19  C   UNL     1      36.405  -1.659  14.490  0.00  0.00    +0.000 A 
ATOM     20  C   UNL     1      36.620  -2.977  14.908  0.00  0.00    +0.000 A 
ATOM     21  C   UNL     1      37.128  -3.211  16.167  0.00  0.00    +0.000 A 
ATOM     22  C   UNL     1      37.400  -2.117  16.963  0.00  0.00    +0.000 A 
ATOM     23  C   UNL     1      37.185  -0.803  16.545  0.00  0.00    +0.000 A 
BRANCH  21  24
ATOM     24  O   UNL     1      37.357  -4.511  16.626  0.00  0.00    +0.000 OA
ATOM     25  C   UNL     1      38.363  -4.769  17.580  0.00  0.00    +0.000 C 
ENDBRANCH  21  24
ENDBRANCH  17  18
ENDBRANCH   4  17
BRANCH   5  26
ATOM     26  S   UNL     1      38.963   1.378  12.861  0.00  0.00    +0.000 S 
BRANCH  26  27
ATOM     27  C   UNL     1      39.525  -0.264  13.257  0.00  0.00    +0.000 A 
ATOM     28  C   UNL     1      39.327  -1.365  12.455  0.00  0.00    +0.000 A 
ATOM     29  C   UNL     1      39.815  -2.604  12.877  0.00  0.00    +0.000 A 
ATOM     30  C   UNL     1      40.484  -2.734  14.074  0.00  0.00    +0.000 A 
ATOM     31  C   UNL     1      40.679  -1.622  14.873  0.00  0.00    +0.000 A 
ATOM     32  C   UNL     1      40.202  -0.419  14.460  0.00  0.00    +0.000 A 
ENDBRANCH  26  27
ENDBRANCH   5  26
TORSDOF 8
ENDMDL
MODEL 3
REMARK VINA RESULT:      -7.8      1.498      7.307
REMARK  Name = 
REMARK  8 active torsions:
REMARK  status: ('A' for Active; 'I' for Inactive)
REMARK    1  A    between atoms: C_2  and  O_3
REMARK    2  A    between atoms: O_3  and  C_4
REMARK    3  A    between atoms: C_7  and  N_8
REMARK    4  A    between atoms: C_11  and  N_12
REMARK    5  A    between atoms: N_12  and  C_13
REMARK    6  A    between atoms: C_16  and  O_17
REMARK    7  A    between atoms: C_21  and  S_22
REMARK    8  A    between atoms: S_22  and  C_23
REMARK                            x       y       z     vdW  Elec       q    Type
REMARK                         _______ _______ _______ _____ _____    ______ ____
ROOT
ATOM      1  N   UNL     1      36.279   5.147  14.162  0.00  0.00    +0.000 N 
ATOM      2  C   UNL     1      35.853   4.016  14.913  0.00  0.00    +0.000 C 
ATOM      3  O   UNL     1      34.826   3.354  14.644  0.00  0.00    +0.000 OA
ATOM      4  C   UNL     1      36.822   3.803  16.008  0.00  0.00    +0.000 C 
ATOM      5  C   UNL     1      37.764   4.727  15.937  0.00  0.00    +0.000 C 
ATOM      6  C   UNL     1      37.468   5.587  14.802  0.00  0.00    +0.000 C 
ATOM      7  O   UNL     1      38.131   6.593  14.394  0.00  0.00    +0.000 OA
ENDROOT
BRANCH   1  11
ATOM      8  C   UNL     1      34.416   6.953  10.836  0.00  0.00    +0.000 A 
ATOM      9  C   UNL     1      33.917   7.131  12.108  0.00  0.00    +0.000 A 
ATOM     10  C   UNL     1      34.557   6.518  13.178  0.00  0.00    +0.000 A 
ATOM     11  C   UNL     1      35.677   5.735  13.021  0.00  0.00    +0.000 A 
ATOM     12  C   UNL     1      36.160   5.570  11.742  0.00  0.00    +0.000 A 
ATOM     13  C   UNL     1      35.532   6.176  10.649  0.00  0.00    +0.000 A 
BRANCH   8  14
ATOM     14  O   UNL     1      33.751   7.580   9.784  0.00  0.00    +0.000 OA
BRANCH  14  16
ATOM     15  C   UNL     1      33.413   6.586   7.595  0.00  0.00    +0.000 C 
ATOM     16  C   UNL     1      34.225   7.514   8.451  0.00  0.00    +0.000 C 
ENDBRANCH  14  16
ENDBRANCH   8  14
ENDBRANCH   1  11
BRANCH   4  17
ATOM     17  N   UNL     1      36.756   2.774  16.982  0.00  0.00    +0.000 NA
BRANCH  17  18
ATOM     18  C   UNL     1      36.300   1.463  16.697  0.00  0.00    +0.000 A 
ATOM     19  C   UNL     1      36.983   0.717  15.765  0.00  0.00    +0.000 A 
ATOM     20  C   UNL     1      36.611  -0.586  15.415  0.00  0.00    +0.000 A 
ATOM     21  C   UNL     1      35.517  -1.161  16.022  0.00  0.00    +0.000 A 
ATOM     22  C   UNL     1      34.833  -0.411  16.957  0.00  0.00    +0.000 A 
ATOM     23  C   UNL     1      35.204   0.888  17.306  0.00  0.00    +0.000 A 
BRANCH  21  24
ATOM     24  O   UNL     1      35.110  -2.460  15.702  0.00  0.00    +0.000 OA
ATOM     25  C   UNL     1      36.028  -3.389  15.169  0.00  0.00    +0.000 C 
ENDBRANCH  21  24
ENDBRANCH  17  18
ENDBRANCH   4  17
BRANCH   5  26
ATOM     26  S   UNL     1      39.172   4.935  17.006  0.00  0.00    +0.000 S 
BRANCH  26  27
ATOM     27  C   UNL     1      38.875   6.229  18.192  0.00  0.00    +0.000 A 
ATOM     28  C   UNL     1      37.907   7.198  18.054  0.00  0.00    +0.000 A 
ATOM     29  C   UNL     1      37.773   8.165  19.054  0.00  0.00    +0.000 A 
ATOM     30  C   UNL     1      38.590   8.157  20.163  0.00  0.00    +0.000 A 
ATOM     31  C   UNL     1      39.559   7.180  20.293  0.00  0.00    +0.000 A 
ATOM     32  C   UNL     1      39.687   6.242  19.318  0.00  0.00    +0.000 A 
ENDBRANCH  26  27
ENDBRANCH   5  26
TORSDOF 8
ENDMDL
MODEL 4
REMARK VINA RESULT:      -7.7      4.003      8.843
REMARK  Name = 
REMARK  8 active torsions:
REMARK  status: ('A' for Active; 'I' for Inactive)
REMARK    1  A    between atoms: C_2  and  O_3
REMARK    2  A    between atoms: O_3  and  C_4
REMARK    3  A    between atoms: C_7  and  N_8
REMARK    4  A    between atoms: C_11  and  N_12
REMARK    5  A    between atoms: N_12  and  C_13
REMARK    6  A    between atoms: C_16  and  O_17
REMARK    7  A    between atoms: C_21  and  S_22
REMARK    8  A    between atoms: S_22  and  C_23
REMARK                            x       y       z     vdW  Elec       q    Type
REMARK                         _______ _______ _______ _____ _____    ______ ____
ROOT
ATOM      1  N   UNL     1      38.117   3.756  15.924  0.00  0.00    +0.000 N 
ATOM      2  C   UNL     1      38.736   3.326  14.718  0.00  0.00    +0.000 C 
ATOM      3  O   UNL     1      39.694   3.926  14.180  0.00  0.00    +0.000 OA
ATOM      4  C   UNL     1      38.052   2.097  14.266  0.00  0.00    +0.000 C 
ATOM      5  C   UNL     1      37.092   1.797  15.122  0.00  0.00    +0.000 C 
ATOM      6  C   UNL     1      37.093   2.803  16.173  0.00  0.00    +0.000 C 
ATOM      7  O   UNL     1      36.324   2.874  17.184  0.00  0.00    +0.000 OA
ENDROOT
BRANCH   1  11
ATOM      8  C   UNL     1      39.069   7.032  18.405  0.00  0.00    +0.000 A 
ATOM      9  C   UNL     1      39.203   5.739  18.860  0.00  0.00    +0.000 A 
ATOM     10  C   UNL     1      38.877   4.686  18.015  0.00  0.00    +0.000 A 
ATOM     11  C   UNL     1      38.424   4.881  16.730  0.00  0.00    +0.000 A 
ATOM     12  C   UNL     1      38.297   6.182  16.294  0.00  0.00    +0.000 A 
ATOM     13  C   UNL     1      38.618   7.257  17.129  0.00  0.00    +0.000 A 
BRANCH   8  14
ATOM     14  O   UNL     1      39.403   8.066  19.278  0.00  0.00    +0.000 OA
BRANCH  14  16
ATOM     15  C   UNL     1      37.707   9.276  20.526  0.00  0.00    +0.000 C 
ATOM     16  C   UNL     1      38.773   8.218  20.537  0.00  0.00    +0.000 C 
ENDBRANCH  14  16
ENDBRANCH   8  14
ENDBRANCH   1  11
BRANCH   4  17
ATOM     17  N   UNL     1      38.372   1.354  13.100  0.00  0.00    +0.000 NA
BRANCH  17  18
ATOM     18  C   UNL     1      39.174   0.186  13.119  0.00  0.00    +0.000 A 
ATOM     19  C   UNL     1      40.203   0.110  14.029  0.00  0.00    +0.000 A 
ATOM     20  C   UNL     1      41.050  -0.999  14.126  0.00  0.00    +0.000 A 
ATOM     21  C   UNL     1      40.858  -2.070  13.281  0.00  0.00    +0.000 A 
ATOM     22  C   UNL     1      39.827  -1.991  12.368  0.00  0.00    +0.000 A 
ATOM     23  C   UNL     1      38.982  -0.884  12.273  0.00  0.00    +0.000 A 
BRANCH  21  24
ATOM     24  O   UNL     1      41.682  -3.198  13.343  0.00  0.00    +0.000 OA
ATOM     25  C   UNL     1      42.923  -3.219  12.673  0.00  0.00    +0.000 C 
ENDBRANCH  21  24
ENDBRANCH  17  18
ENDBRANCH   4  17
BRANCH   5  26
ATOM     26  S   UNL     1      35.963   0.422  15.059  0.00  0.00    +0.000 S 
BRANCH  26  27
ATOM     27  C   UNL     1      36.824  -1.112  15.333  0.00  0.00    +0.000 A 
ATOM     28  C   UNL     1      36.607  -2.261  14.607  0.00  0.00    +0.000 A 
ATOM     29  C   UNL     1      37.346  -3.405  14.920  0.00  0.00    +0.000 A 
ATOM     30  C   UNL     1      38.278  -3.394  15.933  0.00  0.00    +0.000 A 
ATOM     31  C   UNL     1      38.489  -2.235  16.656  0.00  0.00    +0.000 A 
ATOM     32  C   UNL     1      37.768  -1.124  16.351  0.00  0.00    +0.000 A 
ENDBRANCH  26  27
ENDBRANCH   5  26
TORSDOF 8
ENDMDL
MODEL 5
REMARK VINA RESULT:      -7.6      2.604      3.383
REMARK  Name = 
REMARK  8 active torsions:
REMARK  status: ('A' for Active; 'I' for Inactive)
REMARK    1  A    between atoms: C_2  and  O_3
REMARK    2  A    between atoms: O_3  and  C_4
REMARK    3  A    between atoms: C_7  and  N_8
REMARK    4  A    between atoms: C_11  and  N_12
REMARK    5  A    between atoms: N_12  and  C_13
REMARK    6  A    between atoms: C_16  and  O_17
REMARK    7  A    between atoms: C_21  and  S_22
REMARK    8  A    between atoms: S_22  and  C_23
REMARK                            x       y       z     vdW  Elec       q    Type
REMARK                         _______ _______ _______ _____ _____    ______ ____
ROOT
ATOM      1  N   UNL     1      36.665   3.567  15.342  0.00  0.00    +0.000 N 
ATOM      2  C   UNL     1      35.952   4.617  14.699  0.00  0.00    +0.000 C 
ATOM      3  O   UNL     1      34.796   4.485  14.237  0.00  0.00    +0.000 OA
ATOM      4  C   UNL     1      36.811   5.817  14.695  0.00  0.00    +0.000 C 
ATOM      5  C   UNL     1      37.958   5.531  15.284  0.00  0.00    +0.000 C 
ATOM      6  C   UNL     1      37.914   4.139  15.705  0.00  0.00    +0.000 C 
ATOM      7  O   UNL     1      38.818   3.478  16.308  0.00  0.00    +0.000 OA
ENDROOT
BRANCH   1  11
ATOM      8  C   UNL     1      35.373  -0.366  16.153  0.00  0.00    +0.000 A 
ATOM      9  C   UNL     1      34.930   0.694  16.913  0.00  0.00    +0.000 A 
ATOM     10  C   UNL     1      35.379   1.974  16.617  0.00  0.00    +0.000 A 
ATOM     11  C   UNL     1      36.255   2.232  15.588  0.00  0.00    +0.000 A 
ATOM     12  C   UNL     1      36.686   1.159  14.840  0.00  0.00    +0.000 A 
ATOM     13  C   UNL     1      36.247  -0.139  15.120  0.00  0.00    +0.000 A 
BRANCH   8  14
ATOM     14  O   UNL     1      34.904  -1.638  16.476  0.00  0.00    +0.000 OA
BRANCH  14  16
ATOM     15  C   UNL     1      36.619  -2.430  18.002  0.00  0.00    +0.000 C 
ATOM     16  C   UNL     1      35.781  -2.705  16.786  0.00  0.00    +0.000 C 
ENDBRANCH  14  16
ENDBRANCH   8  14
ENDBRANCH   1  11
BRANCH   4  17
ATOM     17  N   UNL     1      36.466   7.079  14.146  0.00  0.00    +0.000 NA
BRANCH  17  18
ATOM     18  C   UNL     1      35.733   8.062  14.857  0.00  0.00    +0.000 A 
ATOM     19  C   UNL     1      34.365   8.091  14.717  0.00  0.00    +0.000 A 
ATOM     20  C   UNL     1      33.554   9.020  15.376  0.00  0.00    +0.000 A 
ATOM     21  C   UNL     1      34.134   9.954  16.206  0.00  0.00    +0.000 A 
ATOM     22  C   UNL     1      35.507   9.923  16.344  0.00  0.00    +0.000 A 
ATOM     23  C   UNL     1      36.316   8.995  15.687  0.00  0.00    +0.000 A 
BRANCH  21  24
ATOM     24  O   UNL     1      33.362  10.901  16.884  0.00  0.00    +0.000 OA
ATOM     25  C   UNL     1      32.608  10.535  18.019  0.00  0.00    +0.000 C 
ENDBRANCH  21  24
ENDBRANCH  17  18
ENDBRANCH   4  17
BRANCH   5  26
ATOM     26  S   UNL     1      39.349   6.609  15.550  0.00  0.00    +0.000 S 
BRANCH  26  27
ATOM     27  C   UNL     1      39.884   6.540  17.246  0.00  0.00    +0.000 A 
ATOM     28  C   UNL     1      39.031   6.522  18.327  0.00  0.00    +0.000 A 
ATOM     29  C   UNL     1      39.574   6.468  19.614  0.00  0.00    +0.000 A 
ATOM     30  C   UNL     1      40.936   6.434  19.809  0.00  0.00    +0.000 A 
ATOM     31  C   UNL     1      41.785   6.452  18.717  0.00  0.00    +0.000 A 
ATOM     32  C   UNL     1      41.254   6.505  17.467  0.00  0.00    +0.000 A 
ENDBRANCH  26  27
ENDBRANCH   5  26
TORSDOF 8
ENDMDL
MODEL 6
REMARK VINA RESULT:      -7.3      2.358      8.629
REMARK  Name = 
REMARK  8 active torsions:
REMARK  status: ('A' for Active; 'I' for Inactive)
REMARK    1  A    between atoms: C_2  and  O_3
REMARK    2  A    between atoms: O_3  and  C_4
REMARK    3  A    between atoms: C_7  and  N_8
REMARK    4  A    between atoms: C_11  and  N_12
REMARK    5  A    between atoms: N_12  and  C_13
REMARK    6  A    between atoms: C_16  and  O_17
REMARK    7  A    between atoms: C_21  and  S_22
REMARK    8  A    between atoms: S_22  and  C_23
REMARK                            x       y       z     vdW  Elec       q    Type
REMARK                         _______ _______ _______ _____ _____    ______ ____
ROOT
ATOM      1  N   UNL     1      38.670   5.092  16.609  0.00  0.00    +0.000 N 
ATOM      2  C   UNL     1      37.748   4.024  16.791  0.00  0.00    +0.000 C 
ATOM      3  O   UNL     1      37.575   3.438  17.884  0.00  0.00    +0.000 OA
ATOM      4  C   UNL     1      37.080   3.772  15.498  0.00  0.00    +0.000 C 
ATOM      5  C   UNL     1      37.553   4.613  14.596  0.00  0.00    +0.000 C 
ATOM      6  C   UNL     1      38.547   5.456  15.242  0.00  0.00    +0.000 C 
ATOM      7  O   UNL     1      39.233   6.391  14.719  0.00  0.00    +0.000 OA
ENDROOT
BRANCH   1  11
ATOM      8  C   UNL     1      41.168   6.862  19.511  0.00  0.00    +0.000 A 
ATOM      9  C   UNL     1      39.853   6.569  19.795  0.00  0.00    +0.000 A 
ATOM     10  C   UNL     1      39.061   5.988  18.813  0.00  0.00    +0.000 A 
ATOM     11  C   UNL     1      39.538   5.690  17.558  0.00  0.00    +0.000 A 
ATOM     12  C   UNL     1      40.856   5.990  17.294  0.00  0.00    +0.000 A 
ATOM     13  C   UNL     1      41.672   6.576  18.267  0.00  0.00    +0.000 A 
BRANCH   8  14
ATOM     14  O   UNL     1      41.937   7.445  20.517  0.00  0.00    +0.000 OA
BRANCH  14  16
ATOM     15  C   UNL     1      43.426   5.785  21.478  0.00  0.00    +0.000 C 
ATOM     16  C   UNL     1      43.288   7.083  20.735  0.00  0.00    +0.000 C 
ENDBRANCH  14  16
ENDBRANCH   8  14
ENDBRANCH   1  11
BRANCH   4  17
ATOM     17  N   UNL     1      36.089   2.785  15.258  0.00  0.00    +0.000 NA
BRANCH  17  18
ATOM     18  C   UNL     1      36.120   1.495  15.842  0.00  0.00    +0.000 A 
ATOM     19  C   UNL     1      37.124   0.630  15.472  0.00  0.00    +0.000 A 
ATOM     20  C   UNL     1      37.241  -0.664  15.992  0.00  0.00    +0.000 A 
ATOM     21  C   UNL     1      36.320  -1.106  16.915  0.00  0.00    +0.000 A 
ATOM     22  C   UNL     1      35.313  -0.237  17.283  0.00  0.00    +0.000 A 
ATOM     23  C   UNL     1      35.197   1.053  16.765  0.00  0.00    +0.000 A 
BRANCH  21  24
ATOM     24  O   UNL     1      36.398  -2.391  17.459  0.00  0.00    +0.000 OA
ATOM     25  C   UNL     1      37.547  -2.803  18.166  0.00  0.00    +0.000 C 
ENDBRANCH  21  24
ENDBRANCH  17  18
ENDBRANCH   4  17
BRANCH   5  26
ATOM     26  S   UNL     1      37.096   4.745  12.880  0.00  0.00    +0.000 S 
BRANCH  26  27
ATOM     27  C   UNL     1      35.649   5.763  12.690  0.00  0.00    +0.000 A 
ATOM     28  C   UNL     1      35.258   6.339  11.502  0.00  0.00    +0.000 A 
ATOM     29  C   UNL     1      34.101   7.121  11.481  0.00  0.00    +0.000 A 
ATOM     30  C   UNL     1      33.357   7.320  12.622  0.00  0.00    +0.000 A 
ATOM     31  C   UNL     1      33.757   6.738  13.810  0.00  0.00    +0.000 A 
ATOM     32  C   UNL     1      34.883   5.978  13.828  0.00  0.00    +0.000 A 
ENDBRANCH  26  27
ENDBRANCH   5  26
TORSDOF 8
ENDMDL
MODEL 7
REMARK VINA RESULT:      -7.2      3.482      8.782
REMARK  Name = 
REMARK  8 active torsions:
REMARK  status: ('A' for Active; 'I' for Inactive)
REMARK    1  A    between atoms: C_2  and  O_3
REMARK    2  A    between atoms: O_3  and  C_4
REMARK    3  A    between atoms: C_7  and  N_8
REMARK    4  A    between atoms: C_11  and  N_12
REMARK    5  A    between atoms: N_12  and  C_13
REMARK    6  A    between atoms: C_16  and  O_17
REMARK    7  A    between atoms: C_21  and  S_22
REMARK    8  A    between atoms: S_22  and  C_23
REMARK                            x       y       z     vdW  Elec       q    Type
REMARK                         _______ _______ _______ _____ _____    ______ ____
ROOT
ATOM      1  N   UNL     1      36.305   2.239  14.814  0.00  0.00    +0.000 N 
ATOM      2  C   UNL     1      36.942   1.292  13.964  0.00  0.00    +0.000 C 
ATOM      3  O   UNL     1      37.609   1.608  12.953  0.00  0.00    +0.000 OA
ATOM      4  C   UNL     1      36.666  -0.058  14.497  0.00  0.00    +0.000 C 
ATOM      5  C   UNL     1      35.921   0.050  15.583  0.00  0.00    +0.000 C 
ATOM      6  C   UNL     1      35.670   1.463  15.820  0.00  0.00    +0.000 C 
ATOM      7  O   UNL     1      34.996   1.986  16.763  0.00  0.00    +0.000 OA
ENDROOT
BRANCH   1  11
ATOM      8  C   UNL     1      36.140   6.440  14.473  0.00  0.00    +0.000 A 
ATOM      9  C   UNL     1      35.113   5.652  14.001  0.00  0.00    +0.000 A 
ATOM     10  C   UNL     1      35.204   4.272  14.130  0.00  0.00    +0.000 A 
ATOM     11  C   UNL     1      36.286   3.653  14.713  0.00  0.00    +0.000 A 
ATOM     12  C   UNL     1      37.302   4.459  15.178  0.00  0.00    +0.000 A 
ATOM     13  C   UNL     1      37.231   5.851  15.059  0.00  0.00    +0.000 A 
BRANCH   8  14
ATOM     14  O   UNL     1      36.018   7.822  14.328  0.00  0.00    +0.000 OA
BRANCH  14  16
ATOM     15  C   UNL     1      34.038   8.880  15.252  0.00  0.00    +0.000 C 
ATOM     16  C   UNL     1      34.780   8.438  14.025  0.00  0.00    +0.000 C 
ENDBRANCH  14  16
ENDBRANCH   8  14
ENDBRANCH   1  11
BRANCH   4  17
ATOM     17  N   UNL     1      37.126  -1.277  13.937  0.00  0.00    +0.000 NA
BRANCH  17  18
ATOM     18  C   UNL     1      38.498  -1.613  13.823  0.00  0.00    +0.000 A 
ATOM     19  C   UNL     1      39.328  -1.352  14.889  0.00  0.00    +0.000 A 
ATOM     20  C   UNL     1      40.696  -1.646  14.874  0.00  0.00    +0.000 A 
ATOM     21  C   UNL     1      41.251  -2.222  13.753  0.00  0.00    +0.000 A 
ATOM     22  C   UNL     1      40.416  -2.481  12.686  0.00  0.00    +0.000 A 
ATOM     23  C   UNL     1      39.052  -2.189  12.700  0.00  0.00    +0.000 A 
BRANCH  21  24
ATOM     24  O   UNL     1      42.613  -2.532  13.696  0.00  0.00    +0.000 OA
ATOM     25  C   UNL     1      43.553  -1.774  14.425  0.00  0.00    +0.000 C 
ENDBRANCH  21  24
ENDBRANCH  17  18
ENDBRANCH   4  17
BRANCH   5  26
ATOM     26  S   UNL     1      35.303  -1.260  16.616  0.00  0.00    +0.000 S 
BRANCH  26  27
ATOM     27  C   UNL     1      36.644  -2.216  17.291  0.00  0.00    +0.000 A 
ATOM     28  C   UNL     1      37.465  -1.787  18.309  0.00  0.00    +0.000 A 
ATOM     29  C   UNL     1      38.488  -2.630  18.752  0.00  0.00    +0.000 A 
ATOM     30  C   UNL     1      38.679  -3.871  18.188  0.00  0.00    +0.000 A 
ATOM     31  C   UNL     1      37.849  -4.294  17.167  0.00  0.00    +0.000 A 
ATOM     32  C   UNL     1      36.856  -3.472  16.737  0.00  0.00    +0.000 A 
ENDBRANCH  26  27
ENDBRANCH   5  26
TORSDOF 8
ENDMDL
MODEL 8
REMARK VINA RESULT:      -7.2      2.048      6.655
REMARK  Name = 
REMARK  8 active torsions:
REMARK  status: ('A' for Active; 'I' for Inactive)
REMARK    1  A    between atoms: C_2  and  O_3
REMARK    2  A    between atoms: O_3  and  C_4
REMARK    3  A    between atoms: C_7  and  N_8
REMARK    4  A    between atoms: C_11  and  N_12
REMARK    5  A    between atoms: N_12  and  C_13
REMARK    6  A    between atoms: C_16  and  O_17
REMARK    7  A    between atoms: C_21  and  S_22
REMARK    8  A    between atoms: S_22  and  C_23
REMARK                            x       y       z     vdW  Elec       q    Type
REMARK                         _______ _______ _______ _____ _____    ______ ____
ROOT
ATOM      1  N   UNL     1      37.099   3.065  15.713  0.00  0.00    +0.000 N 
ATOM      2  C   UNL     1      37.538   3.870  16.800  0.00  0.00    +0.000 C 
ATOM      3  O   UNL     1      37.699   3.434  17.963  0.00  0.00    +0.000 OA
ATOM      4  C   UNL     1      37.751   5.242  16.297  0.00  0.00    +0.000 C 
ATOM      5  C   UNL     1      37.466   5.279  15.007  0.00  0.00    +0.000 C 
ATOM      6  C   UNL     1      37.054   3.944  14.598  0.00  0.00    +0.000 C 
ATOM      7  O   UNL     1      36.699   3.561  13.439  0.00  0.00    +0.000 OA
ENDROOT
BRANCH   1  11
ATOM      8  C   UNL     1      36.223  -1.061  15.638  0.00  0.00    +0.000 A 
ATOM      9  C   UNL     1      37.404  -0.580  15.117  0.00  0.00    +0.000 A 
ATOM     10  C   UNL     1      37.656   0.785  15.158  0.00  0.00    +0.000 A 
ATOM     11  C   UNL     1      36.769   1.686  15.702  0.00  0.00    +0.000 A 
ATOM     12  C   UNL     1      35.595   1.185  16.218  0.00  0.00    +0.000 A 
ATOM     13  C   UNL     1      35.319  -0.186  16.187  0.00  0.00    +0.000 A 
BRANCH   8  14
ATOM     14  O   UNL     1      36.000  -2.436  15.581  0.00  0.00    +0.000 OA
BRANCH  14  16
ATOM     15  C   UNL     1      37.394  -3.953  16.866  0.00  0.00    +0.000 C 
ATOM     16  C   UNL     1      36.071  -3.255  16.733  0.00  0.00    +0.000 C 
ENDBRANCH  14  16
ENDBRANCH   8  14
ENDBRANCH   1  11
BRANCH   4  17
ATOM     17  N   UNL     1      38.191   6.347  17.069  0.00  0.00    +0.000 NA
BRANCH  17  18
ATOM     18  C   UNL     1      39.432   6.372  17.753  0.00  0.00    +0.000 A 
ATOM     19  C   UNL     1      39.425   6.339  19.128  0.00  0.00    +0.000 A 
ATOM     20  C   UNL     1      40.596   6.359  19.894  0.00  0.00    +0.000 A 
ATOM     21  C   UNL     1      41.817   6.414  19.258  0.00  0.00    +0.000 A 
ATOM     22  C   UNL     1      41.821   6.449  17.879  0.00  0.00    +0.000 A 
ATOM     23  C   UNL     1      40.653   6.428  17.116  0.00  0.00    +0.000 A 
BRANCH  21  24
ATOM     24  O   UNL     1      43.011   6.438  19.984  0.00  0.00    +0.000 OA
ATOM     25  C   UNL     1      44.177   7.008  19.431  0.00  0.00    +0.000 C 
ENDBRANCH  21  24
ENDBRANCH  17  18
ENDBRANCH   4  17
BRANCH   5  26
ATOM     26  S   UNL     1      37.550   6.677  13.910  0.00  0.00    +0.000 S 
BRANCH  26  27
ATOM     27  C   UNL     1      36.043   6.836  12.976  0.00  0.00    +0.000 A 
ATOM     28  C   UNL     1      35.982   6.838  11.600  0.00  0.00    +0.000 A 
ATOM     29  C   UNL     1      34.736   6.972  10.981  0.00  0.00    +0.000 A 
ATOM     30  C   UNL     1      33.584   7.101  11.724  0.00  0.00    +0.000 A 
ATOM     31  C   UNL     1      33.656   7.097  13.105  0.00  0.00    +0.000 A 
ATOM     32  C   UNL     1      34.869   6.967  13.704  0.00  0.00    +0.000 A 
ENDBRANCH  26  27
ENDBRANCH   5  26
TORSDOF 8
ENDMDL
MODEL 9
REMARK VINA RESULT:      -7.2     25.237     27.974
REMARK  Name = 
REMARK  8 active torsions:
REMARK  status: ('A' for Active; 'I' for Inactive)
REMARK    1  A    between atoms: C_2  and  O_3
REMARK    2  A    between atoms: O_3  and  C_4
REMARK    3  A    between atoms: C_7  and  N_8
REMARK    4  A    between atoms: C_11  and  N_12
REMARK    5  A    between atoms: N_12  and  C_13
REMARK    6  A    between atoms: C_16  and  O_17
REMARK    7  A    between atoms: C_21  and  S_22
REMARK    8  A    between atoms: S_22  and  C_23
REMARK                            x       y       z     vdW  Elec       q    Type
REMARK                         _______ _______ _______ _____ _____    ______ ____
ROOT
ATOM      1  N   UNL     1      26.618  14.077  39.844  0.00  0.00    +0.000 N 
ATOM      2  C   UNL     1      27.821  14.766  39.522  0.00  0.00    +0.000 C 
ATOM      3  O   UNL     1      28.929  14.500  40.039  0.00  0.00    +0.000 OA
ATOM      4  C   UNL     1      27.501  15.794  38.511  0.00  0.00    +0.000 C 
ATOM      5  C   UNL     1      26.211  15.744  38.235  0.00  0.00    +0.000 C 
ATOM      6  C   UNL     1      25.618  14.688  39.042  0.00  0.00    +0.000 C 
ATOM      7  O   UNL     1      24.400  14.321  39.070  0.00  0.00    +0.000 OA
ENDROOT
BRANCH   1  11
ATOM      8  C   UNL     1      25.957  10.971  42.620  0.00  0.00    +0.000 A 
ATOM      9  C   UNL     1      25.422  12.224  42.822  0.00  0.00    +0.000 A 
ATOM     10  C   UNL     1      25.663  13.222  41.886  0.00  0.00    +0.000 A 
ATOM     11  C   UNL     1      26.420  13.011  40.757  0.00  0.00    +0.000 A 
ATOM     12  C   UNL     1      26.946  11.751  40.574  0.00  0.00    +0.000 A 
ATOM     13  C   UNL     1      26.717  10.731  41.503  0.00  0.00    +0.000 A 
BRANCH   8  14
ATOM     14  O   UNL     1      25.697   9.992  43.578  0.00  0.00    +0.000 OA
BRANCH  14  16
ATOM     15  C   UNL     1      23.748   8.588  43.935  0.00  0.00    +0.000 C 
ATOM     16  C   UNL     1      25.070   8.766  43.246  0.00  0.00    +0.000 C 
ENDBRANCH  14  16
ENDBRANCH   8  14
ENDBRANCH   1  11
BRANCH   4  17
ATOM     17  N   UNL     1      28.429  16.695  37.927  0.00  0.00    +0.000 NA
BRANCH  17  18
ATOM     18  C   UNL     1      29.294  16.338  36.863  0.00  0.00    +0.000 A 
ATOM     19  C   UNL     1      30.530  15.817  37.167  0.00  0.00    +0.000 A 
ATOM     20  C   UNL     1      31.454  15.435  36.189  0.00  0.00    +0.000 A 
ATOM     21  C   UNL     1      31.128  15.579  34.859  0.00  0.00    +0.000 A 
ATOM     22  C   UNL     1      29.888  16.103  34.556  0.00  0.00    +0.000 A 
ATOM     23  C   UNL     1      28.966  16.484  35.532  0.00  0.00    +0.000 A 
BRANCH  21  24
ATOM     24  O   UNL     1      32.022  15.210  33.849  0.00  0.00    +0.000 OA
ATOM     25  C   UNL     1      33.117  14.368  34.132  0.00  0.00    +0.000 C 
ENDBRANCH  21  24
ENDBRANCH  17  18
ENDBRANCH   4  17
BRANCH   5  26
ATOM     26  S   UNL     1      25.299  16.757  37.091  0.00  0.00    +0.000 S 
BRANCH  26  27
ATOM     27  C   UNL     1      25.425  16.109  35.438  0.00  0.00    +0.000 A 
ATOM     28  C   UNL     1      25.863  14.839  35.135  0.00  0.00    +0.000 A 
ATOM     29  C   UNL     1      25.921  14.447  33.795  0.00  0.00    +0.000 A 
ATOM     30  C   UNL     1      25.549  15.307  32.787  0.00  0.00    +0.000 A 
ATOM     31  C   UNL     1      25.110  16.580  33.100  0.00  0.00    +0.000 A 
ATOM     32  C   UNL     1      25.056  16.959  34.404  0.00  0.00    +0.000 A 
ENDBRANCH  26  27
ENDBRANCH   5  26
TORSDOF 8
ENDMDL
MODEL 10
REMARK VINA RESULT:      -7.1     24.095     26.909
REMARK  Name = 
REMARK  8 active torsions:
REMARK  status: ('A' for Active; 'I' for Inactive)
REMARK    1  A    between atoms: C_2  and  O_3
REMARK    2  A    between atoms: O_3  and  C_4
REMARK    3  A    between atoms: C_7  and  N_8
REMARK    4  A    between atoms: C_11  and  N_12
REMARK    5  A    between atoms: N_12  and  C_13
REMARK    6  A    between atoms: C_16  and  O_17
REMARK    7  A    between atoms: C_21  and  S_22
REMARK    8  A    between atoms: S_22  and  C_23
REMARK                            x       y       z     vdW  Elec       q    Type
REMARK                         _______ _______ _______ _____ _____    ______ ____
ROOT
ATOM      1  N   UNL     1      15.662  -0.103  26.857  0.00  0.00    +0.000 N 
ATOM      2  C   UNL     1      15.576   0.244  28.234  0.00  0.00    +0.000 C 
ATOM      3  O   UNL     1      16.576   0.458  28.956  0.00  0.00    +0.000 OA
ATOM      4  C   UNL     1      14.148   0.296  28.604  0.00  0.00    +0.000 C 
ATOM      5  C   UNL     1      13.415   0.004  27.545  0.00  0.00    +0.000 C 
ATOM      6  C   UNL     1      14.315  -0.252  26.431  0.00  0.00    +0.000 C 
ATOM      7  O   UNL     1      14.007  -0.565  25.237  0.00  0.00    +0.000 OA
ENDROOT
BRANCH   1  11
ATOM      8  C   UNL     1      19.110  -0.489  24.457  0.00  0.00    +0.000 A 
ATOM      9  C   UNL     1      18.596   0.752  24.761  0.00  0.00    +0.000 A 
ATOM     10  C   UNL     1      17.458   0.839  25.553  0.00  0.00    +0.000 A 
ATOM     11  C   UNL     1      16.816  -0.271  26.051  0.00  0.00    +0.000 A 
ATOM     12  C   UNL     1      17.345  -1.503  25.736  0.00  0.00    +0.000 A 
ATOM     13  C   UNL     1      18.490  -1.615  24.940  0.00  0.00    +0.000 A 
BRANCH   8  14
ATOM     14  O   UNL     1      20.252  -0.543  23.660  0.00  0.00    +0.000 OA
BRANCH  14  16
ATOM     15  C   UNL     1      20.639  -0.922  21.294  0.00  0.00    +0.000 C 
ATOM     16  C   UNL     1      20.419  -1.522  22.652  0.00  0.00    +0.000 C 
ENDBRANCH  14  16
ENDBRANCH   8  14
ENDBRANCH   1  11
BRANCH   4  17
ATOM     17  N   UNL     1      13.638   0.608  29.891  0.00  0.00    +0.000 NA
BRANCH  17  18
ATOM     18  C   UNL     1      13.803  -0.236  31.018  0.00  0.00    +0.000 A 
ATOM     19  C   UNL     1      14.759   0.093  31.951  0.00  0.00    +0.000 A 
ATOM     20  C   UNL     1      14.998  -0.674  33.096  0.00  0.00    +0.000 A 
ATOM     21  C   UNL     1      14.252  -1.811  33.314  0.00  0.00    +0.000 A 
ATOM     22  C   UNL     1      13.294  -2.140  32.376  0.00  0.00    +0.000 A 
ATOM     23  C   UNL     1      13.056  -1.374  31.234  0.00  0.00    +0.000 A 
BRANCH  21  24
ATOM     24  O   UNL     1      14.458  -2.608  34.444  0.00  0.00    +0.000 OA
ATOM     25  C   UNL     1      15.389  -2.226  35.432  0.00  0.00    +0.000 C 
ENDBRANCH  21  24
ENDBRANCH  17  18
ENDBRANCH   4  17
BRANCH   5  26
ATOM     26  S   UNL     1      11.641  -0.078  27.433  0.00  0.00    +0.000 S 
BRANCH  26  27
ATOM     27  C   UNL     1      10.938   1.557  27.376  0.00  0.00    +0.000 A 
ATOM     28  C   UNL     1       9.717   1.893  27.916  0.00  0.00    +0.000 A 
ATOM     29  C   UNL     1       9.271   3.213  27.805  0.00  0.00    +0.000 A 
ATOM     30  C   UNL     1      10.032   4.168  27.170  0.00  0.00    +0.000 A 
ATOM     31  C   UNL     1      11.257   3.821  26.632  0.00  0.00    +0.000 A 
ATOM     32  C   UNL     1      11.687   2.537  26.740  0.00  0.00    +0.000 A 
ENDBRANCH  26  27
ENDBRANCH   5  26
TORSDOF 8
ENDMDL
