MODEL 1
REMARK VINA RESULT:      -6.2      0.000      0.000
REMARK  Name = 
REMARK  2 active torsions:
REMARK  status: ('A' for Active; 'I' for Inactive)
REMARK    1  A    between atoms: C_2  and  C_3
REMARK    2  A    between atoms: C_3  and  N_4
REMARK                            x       y       z     vdW  Elec       q    Type
REMARK                         _______ _______ _______ _____ _____    ______ ____
ROOT
ATOM      1  N   UNL     1      18.815   8.094  41.105  0.00  0.00    +0.000 N 
ATOM      2  C   UNL     1      19.511   8.054  42.402  0.00  0.00    +0.000 C 
ATOM      3  C   UNL     1      19.747   8.212  40.025  0.00  0.00    +0.000 C 
ATOM      4  C   UNL     1      19.489   9.414  39.186  0.00  0.00    +0.000 C 
ATOM      5  N   UNL     1      18.093   9.539  38.851  0.00  0.00    +0.000 N 
ATOM      6  C   UNL     1      17.665   9.924  37.542  0.00  0.00    +0.000 A 
ATOM      7  N   UNL     1      18.144   9.480  36.377  0.00  0.00    +0.000 NA
ATOM      8  C   UNL     1      17.453  10.107  35.395  0.00  0.00    +0.000 A 
ATOM      9  C   UNL     1      17.492  10.063  34.021  0.00  0.00    +0.000 A 
ATOM     10  C   UNL     1      16.647  10.832  33.253  0.00  0.00    +0.000 A 
ATOM     11  C   UNL     1      15.745  11.665  33.859  0.00  0.00    +0.000 A 
ATOM     12  O   UNL     1      14.861  12.471  33.170  0.00  0.00    +0.000 OA
ATOM     13  C   UNL     1      15.681  11.732  35.237  0.00  0.00    +0.000 A 
ATOM     14  C   UNL     1      16.539  10.948  36.006  0.00  0.00    +0.000 A 
ATOM     15  O   UNL     1      16.720  10.792  37.285  0.00  0.00    +0.000 OA
ATOM     16  C   UNL     1      17.121   9.252  39.894  0.00  0.00    +0.000 C 
ATOM     17  C   UNL     1      17.882   9.177  41.196  0.00  0.00    +0.000 C 
ENDROOT
BRANCH   1  18
ATOM     18  C   UNL     1      18.082   6.857  40.891  0.00  0.00    +0.000 C 
BRANCH  18  20
ATOM     19  C   UNL     1      19.133   4.665  40.824  0.00  0.00    +0.000 C 
ATOM     20  C   UNL     1      18.983   5.861  40.283  0.00  0.00    +0.000 C 
ENDBRANCH  18  20
ENDBRANCH   1  18
TORSDOF 2
ENDMDL
MODEL 2
REMARK VINA RESULT:      -5.6      2.333      3.658
REMARK  Name = 
REMARK  2 active torsions:
REMARK  status: ('A' for Active; 'I' for Inactive)
REMARK    1  A    between atoms: C_2  and  C_3
REMARK    2  A    between atoms: C_3  and  N_4
REMARK                            x       y       z     vdW  Elec       q    Type
REMARK                         _______ _______ _______ _____ _____    ______ ____
ROOT
ATOM      1  N   UNL     1      20.322  10.119  39.468  0.00  0.00    +0.000 N 
ATOM      2  C   UNL     1      20.917   9.373  40.590  0.00  0.00    +0.000 C 
ATOM      3  C   UNL     1      18.913  10.291  39.655  0.00  0.00    +0.000 C 
ATOM      4  C   UNL     1      18.123   9.729  38.526  0.00  0.00    +0.000 C 
ATOM      5  N   UNL     1      18.659  10.129  37.250  0.00  0.00    +0.000 N 
ATOM      6  C   UNL     1      17.811  10.522  36.167  0.00  0.00    +0.000 A 
ATOM      7  N   UNL     1      16.744  11.323  36.232  0.00  0.00    +0.000 NA
ATOM      8  C   UNL     1      16.242  11.423  34.977  0.00  0.00    +0.000 A 
ATOM      9  C   UNL     1      15.175  12.093  34.426  0.00  0.00    +0.000 A 
ATOM     10  C   UNL     1      14.893  12.012  33.081  0.00  0.00    +0.000 A 
ATOM     11  C   UNL     1      15.685  11.249  32.264  0.00  0.00    +0.000 A 
ATOM     12  O   UNL     1      15.477  11.110  30.906  0.00  0.00    +0.000 OA
ATOM     13  C   UNL     1      16.764  10.564  32.787  0.00  0.00    +0.000 A 
ATOM     14  C   UNL     1      17.042  10.654  34.150  0.00  0.00    +0.000 A 
ATOM     15  O   UNL     1      17.956  10.143  34.923  0.00  0.00    +0.000 OA
ATOM     16  C   UNL     1      20.105  10.129  37.096  0.00  0.00    +0.000 C 
ATOM     17  C   UNL     1      20.674   9.393  38.286  0.00  0.00    +0.000 C 
ENDROOT
BRANCH   1  18
ATOM     18  C   UNL     1      20.898  11.452  39.392  0.00  0.00    +0.000 C 
BRANCH  18  20
ATOM     19  C   UNL     1      21.426  13.229  40.967  0.00  0.00    +0.000 C 
ATOM     20  C   UNL     1      21.124  11.959  40.757  0.00  0.00    +0.000 C 
ENDBRANCH  18  20
ENDBRANCH   1  18
TORSDOF 2
ENDMDL
MODEL 3
REMARK VINA RESULT:      -5.6      3.756      6.922
REMARK  Name = 
REMARK  2 active torsions:
REMARK  status: ('A' for Active; 'I' for Inactive)
REMARK    1  A    between atoms: C_2  and  C_3
REMARK    2  A    between atoms: C_3  and  N_4
REMARK                            x       y       z     vdW  Elec       q    Type
REMARK                         _______ _______ _______ _____ _____    ______ ____
ROOT
ATOM      1  N   UNL     1      16.163  11.436  36.547  0.00  0.00    +0.000 N 
ATOM      2  C   UNL     1      14.737  11.433  36.913  0.00  0.00    +0.000 C 
ATOM      3  C   UNL     1      16.679  10.101  36.482  0.00  0.00    +0.000 C 
ATOM      4  C   UNL     1      17.837   9.900  37.394  0.00  0.00    +0.000 C 
ATOM      5  N   UNL     1      18.796  10.970  37.282  0.00  0.00    +0.000 N 
ATOM      6  C   UNL     1      20.205  10.720  37.271  0.00  0.00    +0.000 A 
ATOM      7  N   UNL     1      20.845   9.762  36.597  0.00  0.00    +0.000 NA
ATOM      8  C   UNL     1      22.165   9.891  36.875  0.00  0.00    +0.000 A 
ATOM      9  C   UNL     1      23.295   9.211  36.485  0.00  0.00    +0.000 A 
ATOM     10  C   UNL     1      24.544   9.573  36.938  0.00  0.00    +0.000 A 
ATOM     11  C   UNL     1      24.676  10.630  37.798  0.00  0.00    +0.000 A 
ATOM     12  O   UNL     1      25.887  11.062  38.303  0.00  0.00    +0.000 OA
ATOM     13  C   UNL     1      23.561  11.333  38.209  0.00  0.00    +0.000 A 
ATOM     14  C   UNL     1      22.301  10.961  37.743  0.00  0.00    +0.000 A 
ATOM     15  O   UNL     1      21.095  11.408  37.939  0.00  0.00    +0.000 OA
ATOM     16  C   UNL     1      18.284  12.326  37.170  0.00  0.00    +0.000 C 
ATOM     17  C   UNL     1      16.814  12.269  37.512  0.00  0.00    +0.000 C 
ENDROOT
BRANCH   1  18
ATOM     18  C   UNL     1      16.340  12.016  35.226  0.00  0.00    +0.000 C 
BRANCH  18  20
ATOM     19  C   UNL     1      16.056  11.191  32.956  0.00  0.00    +0.000 C 
ATOM     20  C   UNL     1      16.343  10.938  34.221  0.00  0.00    +0.000 C 
ENDBRANCH  18  20
ENDBRANCH   1  18
TORSDOF 2
ENDMDL
MODEL 4
REMARK VINA RESULT:      -5.6     19.318     21.493
REMARK  Name = 
REMARK  2 active torsions:
REMARK  status: ('A' for Active; 'I' for Inactive)
REMARK    1  A    between atoms: C_2  and  C_3
REMARK    2  A    between atoms: C_3  and  N_4
REMARK                            x       y       z     vdW  Elec       q    Type
REMARK                         _______ _______ _______ _____ _____    ______ ____
ROOT
ATOM      1  N   UNL     1      28.557  23.038  30.005  0.00  0.00    +0.000 N 
ATOM      2  C   UNL     1      28.820  22.328  31.268  0.00  0.00    +0.000 C 
ATOM      3  C   UNL     1      27.638  22.307  29.186  0.00  0.00    +0.000 C 
ATOM      4  C   UNL     1      28.205  21.990  27.847  0.00  0.00    +0.000 C 
ATOM      5  N   UNL     1      28.830  23.141  27.247  0.00  0.00    +0.000 N 
ATOM      6  C   UNL     1      28.671  23.446  25.859  0.00  0.00    +0.000 A 
ATOM      7  N   UNL     1      27.539  23.402  25.152  0.00  0.00    +0.000 NA
ATOM      8  C   UNL     1      27.846  23.766  23.883  0.00  0.00    +0.000 A 
ATOM      9  C   UNL     1      27.115  23.908  22.726  0.00  0.00    +0.000 A 
ATOM     10  C   UNL     1      27.705  24.305  21.548  0.00  0.00    +0.000 A 
ATOM     11  C   UNL     1      29.049  24.566  21.513  0.00  0.00    +0.000 A 
ATOM     12  O   UNL     1      29.724  24.968  20.378  0.00  0.00    +0.000 OA
ATOM     13  C   UNL     1      29.811  24.433  22.658  0.00  0.00    +0.000 A 
ATOM     14  C   UNL     1      29.204  24.032  23.847  0.00  0.00    +0.000 A 
ATOM     15  O   UNL     1      29.634  23.820  25.057  0.00  0.00    +0.000 OA
ATOM     16  C   UNL     1      29.631  23.998  28.107  0.00  0.00    +0.000 C 
ATOM     17  C   UNL     1      29.838  23.251  29.402  0.00  0.00    +0.000 C 
ENDROOT
BRANCH   1  18
ATOM     18  C   UNL     1      27.943  24.328  30.274  0.00  0.00    +0.000 C 
BRANCH  18  20
ATOM     19  C   UNL     1      25.688  25.143  30.681  0.00  0.00    +0.000 C 
ATOM     20  C   UNL     1      26.527  24.123  30.627  0.00  0.00    +0.000 C 
ENDBRANCH  18  20
ENDBRANCH   1  18
TORSDOF 2
ENDMDL
MODEL 5
REMARK VINA RESULT:      -5.5     11.249     12.392
REMARK  Name = 
REMARK  2 active torsions:
REMARK  status: ('A' for Active; 'I' for Inactive)
REMARK    1  A    between atoms: C_2  and  C_3
REMARK    2  A    between atoms: C_3  and  N_4
REMARK                            x       y       z     vdW  Elec       q    Type
REMARK                         _______ _______ _______ _____ _____    ______ ____
ROOT
ATOM      1  N   UNL     1      23.011  21.403  39.339  0.00  0.00    +0.000 N 
ATOM      2  C   UNL     1      24.047  21.968  40.220  0.00  0.00    +0.000 C 
ATOM      3  C   UNL     1      23.392  21.512  37.963  0.00  0.00    +0.000 C 
ATOM      4  C   UNL     1      22.392  22.268  37.160  0.00  0.00    +0.000 C 
ATOM      5  N   UNL     1      21.048  21.820  37.425  0.00  0.00    +0.000 N 
ATOM      6  C   UNL     1      20.091  21.650  36.376  0.00  0.00    +0.000 A 
ATOM      7  N   UNL     1      20.295  21.079  35.186  0.00  0.00    +0.000 NA
ATOM      8  C   UNL     1      19.122  21.133  34.510  0.00  0.00    +0.000 A 
ATOM      9  C   UNL     1      18.718  20.716  33.263  0.00  0.00    +0.000 A 
ATOM     10  C   UNL     1      17.427  20.906  32.825  0.00  0.00    +0.000 A 
ATOM     11  C   UNL     1      16.517  21.526  33.638  0.00  0.00    +0.000 A 
ATOM     12  O   UNL     1      15.203  21.760  33.282  0.00  0.00    +0.000 OA
ATOM     13  C   UNL     1      16.891  21.958  34.896  0.00  0.00    +0.000 A 
ATOM     14  C   UNL     1      18.200  21.758  35.331  0.00  0.00    +0.000 A 
ATOM     15  O   UNL     1      18.844  22.042  36.427  0.00  0.00    +0.000 OA
ATOM     16  C   UNL     1      20.693  21.535  38.806  0.00  0.00    +0.000 C 
ATOM     17  C   UNL     1      21.800  22.091  39.669  0.00  0.00    +0.000 C 
ENDROOT
BRANCH   1  18
ATOM     18  C   UNL     1      22.838  19.986  39.613  0.00  0.00    +0.000 C 
BRANCH  18  20
ATOM     19  C   UNL     1      23.812  17.900  38.829  0.00  0.00    +0.000 C 
ATOM     20  C   UNL     1      23.690  19.209  38.695  0.00  0.00    +0.000 C 
ENDBRANCH  18  20
ENDBRANCH   1  18
TORSDOF 2
ENDMDL
MODEL 6
REMARK VINA RESULT:      -5.4     25.297     28.597
REMARK  Name = 
REMARK  2 active torsions:
REMARK  status: ('A' for Active; 'I' for Inactive)
REMARK    1  A    between atoms: C_2  and  C_3
REMARK    2  A    between atoms: C_3  and  N_4
REMARK                            x       y       z     vdW  Elec       q    Type
REMARK                         _______ _______ _______ _____ _____    ______ ____
ROOT
ATOM      1  N   UNL     1      31.410  29.187  17.577  0.00  0.00    +0.000 N 
ATOM      2  C   UNL     1      31.559  29.985  16.349  0.00  0.00    +0.000 C 
ATOM      3  C   UNL     1      31.213  27.802  17.269  0.00  0.00    +0.000 C 
ATOM      4  C   UNL     1      29.946  27.272  17.842  0.00  0.00    +0.000 C 
ATOM      5  N   UNL     1      29.784  27.657  19.222  0.00  0.00    +0.000 N 
ATOM      6  C   UNL     1      29.293  26.742  20.205  0.00  0.00    +0.000 A 
ATOM      7  N   UNL     1      29.646  25.464  20.361  0.00  0.00    +0.000 NA
ATOM      8  C   UNL     1      28.937  24.977  21.408  0.00  0.00    +0.000 A 
ATOM      9  C   UNL     1      28.871  23.753  22.032  0.00  0.00    +0.000 A 
ATOM     10  C   UNL     1      28.038  23.537  23.105  0.00  0.00    +0.000 A 
ATOM     11  C   UNL     1      27.250  24.556  23.571  0.00  0.00    +0.000 A 
ATOM     12  O   UNL     1      26.384  24.430  24.640  0.00  0.00    +0.000 OA
ATOM     13  C   UNL     1      27.292  25.797  22.967  0.00  0.00    +0.000 A 
ATOM     14  C   UNL     1      28.141  26.006  21.881  0.00  0.00    +0.000 A 
ATOM     15  O   UNL     1      28.401  27.029  21.119  0.00  0.00    +0.000 OA
ATOM     16  C   UNL     1      30.147  29.016  19.590  0.00  0.00    +0.000 C 
ATOM     17  C   UNL     1      30.332  29.785  18.304  0.00  0.00    +0.000 C 
ENDROOT
BRANCH   1  18
ATOM     18  C   UNL     1      32.621  29.268  18.377  0.00  0.00    +0.000 C 
BRANCH  18  20
ATOM     19  C   UNL     1      34.983  28.852  17.974  0.00  0.00    +0.000 C 
ATOM     20  C   UNL     1      33.724  28.612  17.653  0.00  0.00    +0.000 C 
ENDBRANCH  18  20
ENDBRANCH   1  18
TORSDOF 2
ENDMDL
MODEL 7
REMARK VINA RESULT:      -5.4     20.771     22.236
REMARK  Name = 
REMARK  2 active torsions:
REMARK  status: ('A' for Active; 'I' for Inactive)
REMARK    1  A    between atoms: C_2  and  C_3
REMARK    2  A    between atoms: C_3  and  N_4
REMARK                            x       y       z     vdW  Elec       q    Type
REMARK                         _______ _______ _______ _____ _____    ______ ____
ROOT
ATOM      1  N   UNL     1      12.557 -10.520  26.468  0.00  0.00    +0.000 N 
ATOM      2  C   UNL     1      11.293 -11.118  26.007  0.00  0.00    +0.000 C 
ATOM      3  C   UNL     1      12.582  -9.111  26.214  0.00  0.00    +0.000 C 
ATOM      4  C   UNL     1      13.741  -8.711  25.371  0.00  0.00    +0.000 C 
ATOM      5  N   UNL     1      14.969  -9.305  25.838  0.00  0.00    +0.000 N 
ATOM      6  C   UNL     1      16.191  -8.564  25.889  0.00  0.00    +0.000 A 
ATOM      7  N   UNL     1      16.356  -7.314  26.329  0.00  0.00    +0.000 NA
ATOM      8  C   UNL     1      17.670  -7.013  26.197  0.00  0.00    +0.000 A 
ATOM      9  C   UNL     1      18.429  -5.900  26.476  0.00  0.00    +0.000 A 
ATOM     10  C   UNL     1      19.783  -5.874  26.233  0.00  0.00    +0.000 A 
ATOM     11  C   UNL     1      20.401  -6.973  25.699  0.00  0.00    +0.000 A 
ATOM     12  O   UNL     1      21.752  -7.036  25.421  0.00  0.00    +0.000 OA
ATOM     13  C   UNL     1      19.667  -8.107  25.407  0.00  0.00    +0.000 A 
ATOM     14  C   UNL     1      18.296  -8.124  25.659  0.00  0.00    +0.000 A 
ATOM     15  O   UNL     1      17.357  -9.011  25.498  0.00  0.00    +0.000 OA
ATOM     16  C   UNL     1      14.925 -10.693  26.268  0.00  0.00    +0.000 C 
ATOM     17  C   UNL     1      13.599 -11.252  25.813  0.00  0.00    +0.000 C 
ENDROOT
BRANCH   1  18
ATOM     18  C   UNL     1      12.695 -10.687  27.906  0.00  0.00    +0.000 C 
BRANCH  18  20
ATOM     19  C   UNL     1      11.249 -10.429  29.844  0.00  0.00    +0.000 C 
ATOM     20  C   UNL     1      11.487 -10.168  28.570  0.00  0.00    +0.000 C 
ENDBRANCH  18  20
ENDBRANCH   1  18
TORSDOF 2
ENDMDL
MODEL 8
REMARK VINA RESULT:      -5.4     23.861     26.561
REMARK  Name = 
REMARK  2 active torsions:
REMARK  status: ('A' for Active; 'I' for Inactive)
REMARK    1  A    between atoms: C_2  and  C_3
REMARK    2  A    between atoms: C_3  and  N_4
REMARK                            x       y       z     vdW  Elec       q    Type
REMARK                         _______ _______ _______ _____ _____    ______ ____
ROOT
ATOM      1  N   UNL     1      27.668  24.070  23.673  0.00  0.00    +0.000 N 
ATOM      2  C   UNL     1      26.649  23.165  24.228  0.00  0.00    +0.000 C 
ATOM      3  C   UNL     1      27.136  25.385  23.477  0.00  0.00    +0.000 C 
ATOM      4  C   UNL     1      27.255  25.837  22.064  0.00  0.00    +0.000 C 
ATOM      5  N   UNL     1      28.573  25.588  21.536  0.00  0.00    +0.000 N 
ATOM      6  C   UNL     1      29.248  26.547  20.717  0.00  0.00    +0.000 A 
ATOM      7  N   UNL     1      29.324  27.864  20.918  0.00  0.00    +0.000 NA
ATOM      8  C   UNL     1      30.057  28.383  19.903  0.00  0.00    +0.000 A 
ATOM      9  C   UNL     1      30.468  29.653  19.573  0.00  0.00    +0.000 A 
ATOM     10  C   UNL     1      31.227  29.894  18.451  0.00  0.00    +0.000 A 
ATOM     11  C   UNL     1      31.585  28.854  17.635  0.00  0.00    +0.000 A 
ATOM     12  O   UNL     1      32.342  29.002  16.490  0.00  0.00    +0.000 OA
ATOM     13  C   UNL     1      31.188  27.567  17.938  0.00  0.00    +0.000 A 
ATOM     14  C   UNL     1      30.422  27.333  19.079  0.00  0.00    +0.000 A 
ATOM     15  O   UNL     1      29.905  26.267  19.620  0.00  0.00    +0.000 OA
ATOM     16  C   UNL     1      29.206  24.323  21.871  0.00  0.00    +0.000 C 
ATOM     17  C   UNL     1      28.137  23.443  22.474  0.00  0.00    +0.000 C 
ENDROOT
BRANCH   1  18
ATOM     18  C   UNL     1      28.779  24.204  24.601  0.00  0.00    +0.000 C 
BRANCH  18  20
ATOM     19  C   UNL     1      30.269  22.437  25.357  0.00  0.00    +0.000 C 
ATOM     20  C   UNL     1      29.037  22.899  25.236  0.00  0.00    +0.000 C 
ENDBRANCH  18  20
ENDBRANCH   1  18
TORSDOF 2
ENDMDL
MODEL 9
REMARK VINA RESULT:      -5.3      4.988      6.621
REMARK  Name = 
REMARK  2 active torsions:
REMARK  status: ('A' for Active; 'I' for Inactive)
REMARK    1  A    between atoms: C_2  and  C_3
REMARK    2  A    between atoms: C_3  and  N_4
REMARK                            x       y       z     vdW  Elec       q    Type
REMARK                         _______ _______ _______ _____ _____    ______ ____
ROOT
ATOM      1  N   UNL     1      25.814  10.138  37.924  0.00  0.00    +0.000 N 
ATOM      2  C   UNL     1      27.173   9.630  37.671  0.00  0.00    +0.000 C 
ATOM      3  C   UNL     1      25.128   9.317  38.875  0.00  0.00    +0.000 C 
ATOM      4  C   UNL     1      23.854   8.771  38.333  0.00  0.00    +0.000 C 
ATOM      5  N   UNL     1      23.074   9.790  37.677  0.00  0.00    +0.000 N 
ATOM      6  C   UNL     1      21.655   9.874  37.842  0.00  0.00    +0.000 A 
ATOM      7  N   UNL     1      20.971   9.755  38.982  0.00  0.00    +0.000 NA
ATOM      8  C   UNL     1      19.658   9.902  38.678  0.00  0.00    +0.000 A 
ATOM      9  C   UNL     1      18.498   9.881  39.416  0.00  0.00    +0.000 A 
ATOM     10  C   UNL     1      17.268  10.065  38.826  0.00  0.00    +0.000 A 
ATOM     11  C   UNL     1      17.185  10.272  37.475  0.00  0.00    +0.000 A 
ATOM     12  O   UNL     1      15.996  10.464  36.800  0.00  0.00    +0.000 OA
ATOM     13  C   UNL     1      18.331  10.298  36.706  0.00  0.00    +0.000 A 
ATOM     14  C   UNL     1      19.572  10.113  37.312  0.00  0.00    +0.000 A 
ATOM     15  O   UNL     1      20.798  10.083  36.876  0.00  0.00    +0.000 OA
ATOM     16  C   UNL     1      23.781  10.746  36.841  0.00  0.00    +0.000 C 
ATOM     17  C   UNL     1      25.178  10.209  36.643  0.00  0.00    +0.000 C 
ENDROOT
BRANCH   1  18
ATOM     18  C   UNL     1      25.876  11.474  38.494  0.00  0.00    +0.000 C 
BRANCH  18  20
ATOM     19  C   UNL     1      27.624  12.976  39.271  0.00  0.00    +0.000 C 
ATOM     20  C   UNL     1      27.262  11.758  38.908  0.00  0.00    +0.000 C 
ENDBRANCH  18  20
ENDBRANCH   1  18
TORSDOF 2
ENDMDL
MODEL 10
REMARK VINA RESULT:      -5.3     20.178     22.602
REMARK  Name = 
REMARK  2 active torsions:
REMARK  status: ('A' for Active; 'I' for Inactive)
REMARK    1  A    between atoms: C_2  and  C_3
REMARK    2  A    between atoms: C_3  and  N_4
REMARK                            x       y       z     vdW  Elec       q    Type
REMARK                         _______ _______ _______ _____ _____    ______ ____
ROOT
ATOM      1  N   UNL     1      28.609  24.360  24.016  0.00  0.00    +0.000 N 
ATOM      2  C   UNL     1      28.382  25.250  22.865  0.00  0.00    +0.000 C 
ATOM      3  C   UNL     1      28.360  25.042  25.250  0.00  0.00    +0.000 C 
ATOM      4  C   UNL     1      29.545  25.029  26.150  0.00  0.00    +0.000 C 
ATOM      5  N   UNL     1      30.127  23.713  26.245  0.00  0.00    +0.000 N 
ATOM      6  C   UNL     1      30.584  23.181  27.492  0.00  0.00    +0.000 A 
ATOM      7  N   UNL     1      29.960  23.244  28.670  0.00  0.00    +0.000 NA
ATOM      8  C   UNL     1      30.748  22.614  29.575  0.00  0.00    +0.000 A 
ATOM      9  C   UNL     1      30.641  22.360  30.922  0.00  0.00    +0.000 A 
ATOM     10  C   UNL     1      31.622  21.677  31.605  0.00  0.00    +0.000 A 
ATOM     11  C   UNL     1      32.735  21.238  30.939  0.00  0.00    +0.000 A 
ATOM     12  O   UNL     1      33.767  20.548  31.541  0.00  0.00    +0.000 OA
ATOM     13  C   UNL     1      32.873  21.478  29.585  0.00  0.00    +0.000 A 
ATOM     14  C   UNL     1      31.872  22.168  28.903  0.00  0.00    +0.000 A 
ATOM     15  O   UNL     1      31.712  22.541  27.666  0.00  0.00    +0.000 OA
ATOM     16  C   UNL     1      30.228  22.931  25.024  0.00  0.00    +0.000 C 
ATOM     17  C   UNL     1      29.947  23.871  23.876  0.00  0.00    +0.000 C 
ENDROOT
BRANCH   1  18
ATOM     18  C   UNL     1      27.689  23.235  23.968  0.00  0.00    +0.000 C 
BRANCH  18  20
ATOM     19  C   UNL     1      25.314  23.102  23.460  0.00  0.00    +0.000 C 
ATOM     20  C   UNL     1      26.500  23.617  23.186  0.00  0.00    +0.000 C 
ENDBRANCH  18  20
ENDBRANCH   1  18
TORSDOF 2
ENDMDL
