MODEL 1
REMARK VINA RESULT:      -8.5      0.000      0.000
REMARK  Name = 
REMARK  8 active torsions:
REMARK  status: ('A' for Active; 'I' for Inactive)
REMARK    1  A    between atoms: C_2  and  O_3
REMARK    2  A    between atoms: O_3  and  C_4
REMARK    3  A    between atoms: C_9  and  N_10
REMARK    4  A    between atoms: N_10  and  C_11
REMARK    5  A    between atoms: C_12  and  S_13
REMARK    6  A    between atoms: S_13  and  C_14
REMARK    7  A    between atoms: N_23  and  C_24
REMARK    8  A    between atoms: C_27  and  C_28
REMARK                            x       y       z     vdW  Elec       q    Type
REMARK                         _______ _______ _______ _____ _____    ______ ____
ROOT
ATOM      1  C   UNL     1      36.267   4.395  14.665  0.00  0.00    +0.000 C 
ATOM      2  C   UNL     1      37.560   4.148  14.923  0.00  0.00    +0.000 C 
ATOM      3  C   UNL     1      37.673   2.754  15.200  0.00  0.00    +0.000 C 
ATOM      4  O   UNL     1      38.699   2.112  15.488  0.00  0.00    +0.000 OA
ATOM      5  N   UNL     1      36.391   2.103  15.111  0.00  0.00    +0.000 N 
ATOM      6  C   UNL     1      35.507   3.155  14.771  0.00  0.00    +0.000 C 
ATOM      7  O   UNL     1      34.270   3.011  14.594  0.00  0.00    +0.000 OA
ENDROOT
BRANCH   5   8
ATOM      8  C   UNL     1      36.146   0.719  15.328  0.00  0.00    +0.000 A 
ATOM      9  C   UNL     1      36.617  -0.288  14.516  0.00  0.00    +0.000 A 
ATOM     10  C   UNL     1      36.313  -1.607  14.837  0.00  0.00    +0.000 A 
ATOM     11  C   UNL     1      35.549  -1.939  15.947  0.00  0.00    +0.000 A 
ATOM     12  C   UNL     1      35.081  -0.930  16.755  0.00  0.00    +0.000 A 
ATOM     13  C   UNL     1      35.390   0.356  16.425  0.00  0.00    +0.000 A 
BRANCH  11  14
ATOM     14  C   UNL     1      35.243  -3.345  16.263  0.00  0.00    +0.000 C 
ATOM     15  C   UNL     1      34.317  -3.902  15.190  0.00  0.00    +0.000 C 
ENDBRANCH  11  14
ENDBRANCH   5   8
BRANCH   1  16
ATOM     16  N   UNL     1      35.742   5.680  14.340  0.00  0.00    +0.000 NA
BRANCH  16  22
ATOM     17  C   UNL     1      34.260   6.933  12.946  0.00  0.00    +0.000 A 
ATOM     18  C   UNL     1      33.855   7.362  11.714  0.00  0.00    +0.000 A 
ATOM     19  C   UNL     1      34.523   6.974  10.581  0.00  0.00    +0.000 A 
ATOM     20  C   UNL     1      35.622   6.138  10.695  0.00  0.00    +0.000 A 
ATOM     21  C   UNL     1      36.024   5.711  11.938  0.00  0.00    +0.000 A 
ATOM     22  C   UNL     1      35.351   6.102  13.061  0.00  0.00    +0.000 A 
BRANCH  17  23
ATOM     23  O   UNL     1      33.574   7.332  14.106  0.00  0.00    +0.000 OA
BRANCH  23  25
ATOM     24  C   UNL     1      33.271   8.728  16.063  0.00  0.00    +0.000 C 
ATOM     25  C   UNL     1      33.755   8.612  14.630  0.00  0.00    +0.000 C 
ENDBRANCH  23  25
ENDBRANCH  17  23
ENDBRANCH  16  22
ENDBRANCH   1  16
BRANCH   2  26
ATOM     26  S   UNL     1      38.782   5.396  14.891  0.00  0.00    +0.000 S 
BRANCH  26  27
ATOM     27  C   UNL     1      39.606   5.722  16.383  0.00  0.00    +0.000 A 
ATOM     28  C   UNL     1      38.864   5.486  17.554  0.00  0.00    +0.000 A 
ATOM     29  C   UNL     1      39.391   5.701  18.802  0.00  0.00    +0.000 A 
ATOM     30  C   UNL     1      40.676   6.158  18.945  0.00  0.00    +0.000 A 
ATOM     31  C   UNL     1      41.320   6.417  20.261  0.00  0.00    +0.000 C 
ATOM     32  C   UNL     1      41.446   6.405  17.829  0.00  0.00    +0.000 A 
ATOM     33  C   UNL     1      40.873   6.174  16.600  0.00  0.00    +0.000 A 
ENDBRANCH  26  27
ENDBRANCH   2  26
TORSDOF 8
ENDMDL
MODEL 2
REMARK VINA RESULT:      -8.2      1.911      6.985
REMARK  Name = 
REMARK  8 active torsions:
REMARK  status: ('A' for Active; 'I' for Inactive)
REMARK    1  A    between atoms: C_2  and  O_3
REMARK    2  A    between atoms: O_3  and  C_4
REMARK    3  A    between atoms: C_9  and  N_10
REMARK    4  A    between atoms: N_10  and  C_11
REMARK    5  A    between atoms: C_12  and  S_13
REMARK    6  A    between atoms: S_13  and  C_14
REMARK    7  A    between atoms: N_23  and  C_24
REMARK    8  A    between atoms: C_27  and  C_28
REMARK                            x       y       z     vdW  Elec       q    Type
REMARK                         _______ _______ _______ _____ _____    ______ ____
ROOT
ATOM      1  C   UNL     1      36.795   3.634  16.094  0.00  0.00    +0.000 C 
ATOM      2  C   UNL     1      37.623   4.685  16.180  0.00  0.00    +0.000 C 
ATOM      3  C   UNL     1      37.319   5.549  15.088  0.00  0.00    +0.000 C 
ATOM      4  O   UNL     1      37.853   6.635  14.798  0.00  0.00    +0.000 OA
ATOM      5  N   UNL     1      36.251   5.011  14.284  0.00  0.00    +0.000 N 
ATOM      6  C   UNL     1      35.927   3.796  14.933  0.00  0.00    +0.000 C 
ATOM      7  O   UNL     1      35.030   3.003  14.546  0.00  0.00    +0.000 OA
ENDROOT
BRANCH   5   8
ATOM      8  C   UNL     1      35.701   5.616  13.121  0.00  0.00    +0.000 A 
ATOM      9  C   UNL     1      34.612   6.460  13.128  0.00  0.00    +0.000 A 
ATOM     10  C   UNL     1      34.170   6.994  11.922  0.00  0.00    +0.000 A 
ATOM     11  C   UNL     1      34.789   6.704  10.714  0.00  0.00    +0.000 A 
ATOM     12  C   UNL     1      35.875   5.861  10.712  0.00  0.00    +0.000 A 
ATOM     13  C   UNL     1      36.295   5.348  11.904  0.00  0.00    +0.000 A 
BRANCH  11  14
ATOM     14  C   UNL     1      34.299   7.285   9.453  0.00  0.00    +0.000 C 
ATOM     15  C   UNL     1      34.785   8.723   9.349  0.00  0.00    +0.000 C 
ENDBRANCH  11  14
ENDBRANCH   5   8
BRANCH   1  16
ATOM     16  N   UNL     1      36.784   2.540  17.008  0.00  0.00    +0.000 NA
BRANCH  16  22
ATOM     17  C   UNL     1      37.025   0.418  15.937  0.00  0.00    +0.000 A 
ATOM     18  C   UNL     1      36.567  -0.838  15.656  0.00  0.00    +0.000 A 
ATOM     19  C   UNL     1      35.373  -1.280  16.167  0.00  0.00    +0.000 A 
ATOM     20  C   UNL     1      34.628  -0.437  16.976  0.00  0.00    +0.000 A 
ATOM     21  C   UNL     1      35.096   0.824  17.253  0.00  0.00    +0.000 A 
ATOM     22  C   UNL     1      36.286   1.257  16.739  0.00  0.00    +0.000 A 
BRANCH  17  23
ATOM     23  O   UNL     1      38.248   0.869  15.413  0.00  0.00    +0.000 OA
BRANCH  23  25
ATOM     24  C   UNL     1      40.367   0.662  14.256  0.00  0.00    +0.000 C 
ATOM     25  C   UNL     1      39.077   0.001  14.703  0.00  0.00    +0.000 C 
ENDBRANCH  23  25
ENDBRANCH  17  23
ENDBRANCH  16  22
ENDBRANCH   1  16
BRANCH   2  26
ATOM     26  S   UNL     1      38.813   4.845  17.449  0.00  0.00    +0.000 S 
BRANCH  26  27
ATOM     27  C   UNL     1      38.708   6.263  18.444  0.00  0.00    +0.000 A 
ATOM     28  C   UNL     1      39.636   6.338  19.498  0.00  0.00    +0.000 A 
ATOM     29  C   UNL     1      39.665   7.403  20.363  0.00  0.00    +0.000 A 
ATOM     30  C   UNL     1      38.779   8.440  20.221  0.00  0.00    +0.000 A 
ATOM     31  C   UNL     1      38.746   9.628  21.116  0.00  0.00    +0.000 C 
ATOM     32  C   UNL     1      37.849   8.414  19.204  0.00  0.00    +0.000 A 
ATOM     33  C   UNL     1      37.859   7.326  18.363  0.00  0.00    +0.000 A 
ENDBRANCH  26  27
ENDBRANCH   2  26
TORSDOF 8
ENDMDL
MODEL 3
REMARK VINA RESULT:      -8.0      2.325      6.053
REMARK  Name = 
REMARK  8 active torsions:
REMARK  status: ('A' for Active; 'I' for Inactive)
REMARK    1  A    between atoms: C_2  and  O_3
REMARK    2  A    between atoms: O_3  and  C_4
REMARK    3  A    between atoms: C_9  and  N_10
REMARK    4  A    between atoms: N_10  and  C_11
REMARK    5  A    between atoms: C_12  and  S_13
REMARK    6  A    between atoms: S_13  and  C_14
REMARK    7  A    between atoms: N_23  and  C_24
REMARK    8  A    between atoms: C_27  and  C_28
REMARK                            x       y       z     vdW  Elec       q    Type
REMARK                         _______ _______ _______ _____ _____    ______ ____
ROOT
ATOM      1  C   UNL     1      37.985   5.636  16.266  0.00  0.00    +0.000 C 
ATOM      2  C   UNL     1      37.290   5.741  15.124  0.00  0.00    +0.000 C 
ATOM      3  C   UNL     1      36.627   4.495  14.921  0.00  0.00    +0.000 C 
ATOM      4  O   UNL     1      35.879   4.169  13.981  0.00  0.00    +0.000 OA
ATOM      5  N   UNL     1      36.925   3.570  15.985  0.00  0.00    +0.000 N 
ATOM      6  C   UNL     1      37.788   4.306  16.832  0.00  0.00    +0.000 C 
ATOM      7  O   UNL     1      38.288   3.859  17.896  0.00  0.00    +0.000 OA
ENDROOT
BRANCH   5   8
ATOM      8  C   UNL     1      36.432   2.242  16.093  0.00  0.00    +0.000 A 
ATOM      9  C   UNL     1      35.322   1.885  16.828  0.00  0.00    +0.000 A 
ATOM     10  C   UNL     1      34.935   0.549  16.852  0.00  0.00    +0.000 A 
ATOM     11  C   UNL     1      35.630  -0.434  16.162  0.00  0.00    +0.000 A 
ATOM     12  C   UNL     1      36.737  -0.073  15.431  0.00  0.00    +0.000 A 
ATOM     13  C   UNL     1      37.100   1.241  15.418  0.00  0.00    +0.000 A 
BRANCH  11  14
ATOM     14  C   UNL     1      35.196  -1.841  16.206  0.00  0.00    +0.000 C 
ATOM     15  C   UNL     1      34.039  -1.971  17.187  0.00  0.00    +0.000 C 
ENDBRANCH  11  14
ENDBRANCH   5   8
BRANCH   1  16
ATOM     16  N   UNL     1      38.787   6.677  16.819  0.00  0.00    +0.000 NA
BRANCH  16  22
ATOM     17  C   UNL     1      39.477   6.954  19.090  0.00  0.00    +0.000 A 
ATOM     18  C   UNL     1      39.322   7.514  20.326  0.00  0.00    +0.000 A 
ATOM     19  C   UNL     1      38.300   8.394  20.575  0.00  0.00    +0.000 A 
ATOM     20  C   UNL     1      37.418   8.713  19.555  0.00  0.00    +0.000 A 
ATOM     21  C   UNL     1      37.580   8.146  18.315  0.00  0.00    +0.000 A 
ATOM     22  C   UNL     1      38.601   7.269  18.076  0.00  0.00    +0.000 A 
BRANCH  17  23
ATOM     23  O   UNL     1      40.525   6.053  18.837  0.00  0.00    +0.000 OA
BRANCH  23  25
ATOM     24  C   UNL     1      42.376   6.547  17.352  0.00  0.00    +0.000 C 
ATOM     25  C   UNL     1      41.844   6.502  18.772  0.00  0.00    +0.000 C 
ENDBRANCH  23  25
ENDBRANCH  17  23
ENDBRANCH  16  22
ENDBRANCH   1  16
BRANCH   2  26
ATOM     26  S   UNL     1      37.279   7.195  14.157  0.00  0.00    +0.000 S 
BRANCH  26  27
ATOM     27  C   UNL     1      36.334   8.524  14.753  0.00  0.00    +0.000 A 
ATOM     28  C   UNL     1      34.948   8.298  14.832  0.00  0.00    +0.000 A 
ATOM     29  C   UNL     1      34.082   9.261  15.285  0.00  0.00    +0.000 A 
ATOM     30  C   UNL     1      34.551  10.488  15.679  0.00  0.00    +0.000 A 
ATOM     31  C   UNL     1      33.678  11.585  16.180  0.00  0.00    +0.000 C 
ATOM     32  C   UNL     1      35.900  10.760  15.620  0.00  0.00    +0.000 A 
ATOM     33  C   UNL     1      36.728   9.763  15.160  0.00  0.00    +0.000 A 
ENDBRANCH  26  27
ENDBRANCH   2  26
TORSDOF 8
ENDMDL
MODEL 4
REMARK VINA RESULT:      -8.0      1.488      6.509
REMARK  Name = 
REMARK  8 active torsions:
REMARK  status: ('A' for Active; 'I' for Inactive)
REMARK    1  A    between atoms: C_2  and  O_3
REMARK    2  A    between atoms: O_3  and  C_4
REMARK    3  A    between atoms: C_9  and  N_10
REMARK    4  A    between atoms: N_10  and  C_11
REMARK    5  A    between atoms: C_12  and  S_13
REMARK    6  A    between atoms: S_13  and  C_14
REMARK    7  A    between atoms: N_23  and  C_24
REMARK    8  A    between atoms: C_27  and  C_28
REMARK                            x       y       z     vdW  Elec       q    Type
REMARK                         _______ _______ _______ _____ _____    ______ ____
ROOT
ATOM      1  C   UNL     1      36.426   5.039  14.677  0.00  0.00    +0.000 C 
ATOM      2  C   UNL     1      36.934   3.799  14.729  0.00  0.00    +0.000 C 
ATOM      3  C   UNL     1      38.144   3.873  15.480  0.00  0.00    +0.000 C 
ATOM      4  O   UNL     1      38.927   2.949  15.764  0.00  0.00    +0.000 OA
ATOM      5  N   UNL     1      38.402   5.222  15.914  0.00  0.00    +0.000 N 
ATOM      6  C   UNL     1      37.305   5.953  15.398  0.00  0.00    +0.000 C 
ATOM      7  O   UNL     1      37.141   7.190  15.554  0.00  0.00    +0.000 OA
ENDROOT
BRANCH   5   8
ATOM      8  C   UNL     1      39.521   5.649  16.680  0.00  0.00    +0.000 A 
ATOM      9  C   UNL     1      40.723   6.049  16.139  0.00  0.00    +0.000 A 
ATOM     10  C   UNL     1      41.744   6.451  16.996  0.00  0.00    +0.000 A 
ATOM     11  C   UNL     1      41.590   6.459  18.375  0.00  0.00    +0.000 A 
ATOM     12  C   UNL     1      40.388   6.058  18.910  0.00  0.00    +0.000 A 
ATOM     13  C   UNL     1      39.400   5.670  18.055  0.00  0.00    +0.000 A 
BRANCH  11  14
ATOM     14  C   UNL     1      42.688   6.889  19.257  0.00  0.00    +0.000 C 
ATOM     15  C   UNL     1      42.453   6.325  20.651  0.00  0.00    +0.000 C 
ENDBRANCH  11  14
ENDBRANCH   5   8
BRANCH   1  16
ATOM     16  N   UNL     1      35.213   5.385  14.012  0.00  0.00    +0.000 NA
BRANCH  16  22
ATOM     17  C   UNL     1      34.303   7.232  12.799  0.00  0.00    +0.000 A 
ATOM     18  C   UNL     1      34.188   7.970  11.656  0.00  0.00    +0.000 A 
ATOM     19  C   UNL     1      34.877   7.621  10.522  0.00  0.00    +0.000 A 
ATOM     20  C   UNL     1      35.697   6.505  10.545  0.00  0.00    +0.000 A 
ATOM     21  C   UNL     1      35.807   5.767  11.698  0.00  0.00    +0.000 A 
ATOM     22  C   UNL     1      35.117   6.122  12.823  0.00  0.00    +0.000 A 
BRANCH  17  23
ATOM     23  O   UNL     1      33.597   7.591  13.959  0.00  0.00    +0.000 OA
BRANCH  23  25
ATOM     24  C   UNL     1      33.293   8.769  16.055  0.00  0.00    +0.000 C 
ATOM     25  C   UNL     1      33.980   8.706  14.704  0.00  0.00    +0.000 C 
ENDBRANCH  23  25
ENDBRANCH  17  23
ENDBRANCH  16  22
ENDBRANCH   1  16
BRANCH   2  26
ATOM     26  S   UNL     1      36.156   2.429  13.976  0.00  0.00    +0.000 S 
BRANCH  26  27
ATOM     27  C   UNL     1      35.918   1.023  14.965  0.00  0.00    +0.000 A 
ATOM     28  C   UNL     1      36.519  -0.159  14.498  0.00  0.00    +0.000 A 
ATOM     29  C   UNL     1      36.412  -1.345  15.181  0.00  0.00    +0.000 A 
ATOM     30  C   UNL     1      35.706  -1.410  16.354  0.00  0.00    +0.000 A 
ATOM     31  C   UNL     1      35.542  -2.656  17.152  0.00  0.00    +0.000 C 
ATOM     32  C   UNL     1      35.097  -0.280  16.854  0.00  0.00    +0.000 A 
ATOM     33  C   UNL     1      35.233   0.884  16.135  0.00  0.00    +0.000 A 
ENDBRANCH  26  27
ENDBRANCH   2  26
TORSDOF 8
ENDMDL
MODEL 5
REMARK VINA RESULT:      -7.9      1.708      3.010
REMARK  Name = 
REMARK  8 active torsions:
REMARK  status: ('A' for Active; 'I' for Inactive)
REMARK    1  A    between atoms: C_2  and  O_3
REMARK    2  A    between atoms: O_3  and  C_4
REMARK    3  A    between atoms: C_9  and  N_10
REMARK    4  A    between atoms: N_10  and  C_11
REMARK    5  A    between atoms: C_12  and  S_13
REMARK    6  A    between atoms: S_13  and  C_14
REMARK    7  A    between atoms: N_23  and  C_24
REMARK    8  A    between atoms: C_27  and  C_28
REMARK                            x       y       z     vdW  Elec       q    Type
REMARK                         _______ _______ _______ _____ _____    ______ ____
ROOT
ATOM      1  C   UNL     1      37.108   6.027  14.821  0.00  0.00    +0.000 C 
ATOM      2  C   UNL     1      38.064   5.815  15.736  0.00  0.00    +0.000 C 
ATOM      3  C   UNL     1      37.882   4.492  16.235  0.00  0.00    +0.000 C 
ATOM      4  O   UNL     1      38.554   3.899  17.098  0.00  0.00    +0.000 OA
ATOM      5  N   UNL     1      36.759   3.850  15.601  0.00  0.00    +0.000 N 
ATOM      6  C   UNL     1      36.276   4.835  14.705  0.00  0.00    +0.000 C 
ATOM      7  O   UNL     1      35.287   4.677  13.944  0.00  0.00    +0.000 OA
ENDROOT
BRANCH   5   8
ATOM      8  C   UNL     1      36.299   2.531  15.863  0.00  0.00    +0.000 A 
ATOM      9  C   UNL     1      35.229   2.232  16.678  0.00  0.00    +0.000 A 
ATOM     10  C   UNL     1      34.872   0.898  16.853  0.00  0.00    +0.000 A 
ATOM     11  C   UNL     1      35.558  -0.137  16.234  0.00  0.00    +0.000 A 
ATOM     12  C   UNL     1      36.624   0.167  15.422  0.00  0.00    +0.000 A 
ATOM     13  C   UNL     1      36.959   1.478  15.262  0.00  0.00    +0.000 A 
BRANCH  11  14
ATOM     14  C   UNL     1      35.156  -1.540  16.437  0.00  0.00    +0.000 C 
ATOM     15  C   UNL     1      33.967  -1.580  17.387  0.00  0.00    +0.000 C 
ENDBRANCH  11  14
ENDBRANCH   5   8
BRANCH   1  16
ATOM     16  N   UNL     1      36.949   7.240  14.087  0.00  0.00    +0.000 NA
BRANCH  16  22
ATOM     17  C   UNL     1      35.202   8.705  13.375  0.00  0.00    +0.000 A 
ATOM     18  C   UNL     1      34.294   9.693  13.629  0.00  0.00    +0.000 A 
ATOM     19  C   UNL     1      34.191  10.248  14.879  0.00  0.00    +0.000 A 
ATOM     20  C   UNL     1      35.021   9.796  15.891  0.00  0.00    +0.000 A 
ATOM     21  C   UNL     1      35.932   8.802  15.629  0.00  0.00    +0.000 A 
ATOM     22  C   UNL     1      36.028   8.255  14.380  0.00  0.00    +0.000 A 
BRANCH  17  23
ATOM     23  O   UNL     1      35.305   8.138  12.094  0.00  0.00    +0.000 OA
BRANCH  23  25
ATOM     24  C   UNL     1      33.676   7.327  10.494  0.00  0.00    +0.000 C 
ATOM     25  C   UNL     1      34.422   8.510  11.082  0.00  0.00    +0.000 C 
ENDBRANCH  23  25
ENDBRANCH  17  23
ENDBRANCH  16  22
ENDBRANCH   1  16
BRANCH   2  26
ATOM     26  S   UNL     1      39.257   7.022  16.150  0.00  0.00    +0.000 S 
BRANCH  26  27
ATOM     27  C   UNL     1      40.152   6.768  17.615  0.00  0.00    +0.000 A 
ATOM     28  C   UNL     1      41.552   6.773  17.483  0.00  0.00    +0.000 A 
ATOM     29  C   UNL     1      42.382   6.584  18.559  0.00  0.00    +0.000 A 
ATOM     30  C   UNL     1      41.862   6.384  19.812  0.00  0.00    +0.000 A 
ATOM     31  C   UNL     1      42.693   6.171  21.028  0.00  0.00    +0.000 C 
ATOM     32  C   UNL     1      40.496   6.370  19.995  0.00  0.00    +0.000 A 
ATOM     33  C   UNL     1      39.706   6.563  18.886  0.00  0.00    +0.000 A 
ENDBRANCH  26  27
ENDBRANCH   2  26
TORSDOF 8
ENDMDL
MODEL 6
REMARK VINA RESULT:      -7.9      3.535      8.349
REMARK  Name = 
REMARK  8 active torsions:
REMARK  status: ('A' for Active; 'I' for Inactive)
REMARK    1  A    between atoms: C_2  and  O_3
REMARK    2  A    between atoms: O_3  and  C_4
REMARK    3  A    between atoms: C_9  and  N_10
REMARK    4  A    between atoms: N_10  and  C_11
REMARK    5  A    between atoms: C_12  and  S_13
REMARK    6  A    between atoms: S_13  and  C_14
REMARK    7  A    between atoms: N_23  and  C_24
REMARK    8  A    between atoms: C_27  and  C_28
REMARK                            x       y       z     vdW  Elec       q    Type
REMARK                         _______ _______ _______ _____ _____    ______ ____
ROOT
ATOM      1  C   UNL     1      37.672   2.223  15.188  0.00  0.00    +0.000 C 
ATOM      2  C   UNL     1      38.558   2.813  14.372  0.00  0.00    +0.000 C 
ATOM      3  C   UNL     1      38.976   4.018  15.008  0.00  0.00    +0.000 C 
ATOM      4  O   UNL     1      39.790   4.862  14.592  0.00  0.00    +0.000 OA
ATOM      5  N   UNL     1      38.318   4.188  16.279  0.00  0.00    +0.000 N 
ATOM      6  C   UNL     1      37.493   3.042  16.381  0.00  0.00    +0.000 C 
ATOM      7  O   UNL     1      36.738   2.797  17.358  0.00  0.00    +0.000 OA
ENDROOT
BRANCH   5   8
ATOM      8  C   UNL     1      38.503   5.279  17.171  0.00  0.00    +0.000 A 
ATOM      9  C   UNL     1      38.027   6.552  16.946  0.00  0.00    +0.000 A 
ATOM     10  C   UNL     1      38.269   7.537  17.900  0.00  0.00    +0.000 A 
ATOM     11  C   UNL     1      38.975   7.277  19.067  0.00  0.00    +0.000 A 
ATOM     12  C   UNL     1      39.448   6.005  19.286  0.00  0.00    +0.000 A 
ATOM     13  C   UNL     1      39.200   5.054  18.341  0.00  0.00    +0.000 A 
BRANCH  11  14
ATOM     14  C   UNL     1      39.215   8.339  20.058  0.00  0.00    +0.000 C 
ATOM     15  C   UNL     1      37.879   8.934  20.480  0.00  0.00    +0.000 C 
ENDBRANCH  11  14
ENDBRANCH   5   8
BRANCH   1  16
ATOM     16  N   UNL     1      37.018   0.987  14.908  0.00  0.00    +0.000 NA
BRANCH  16  22
ATOM     17  C   UNL     1      37.343  -0.801  16.459  0.00  0.00    +0.000 A 
ATOM     18  C   UNL     1      36.864  -1.672  17.396  0.00  0.00    +0.000 A 
ATOM     19  C   UNL     1      35.541  -1.657  17.757  0.00  0.00    +0.000 A 
ATOM     20  C   UNL     1      34.686  -0.744  17.161  0.00  0.00    +0.000 A 
ATOM     21  C   UNL     1      35.176   0.129  16.220  0.00  0.00    +0.000 A 
ATOM     22  C   UNL     1      36.495   0.106  15.866  0.00  0.00    +0.000 A 
BRANCH  17  23
ATOM     23  O   UNL     1      38.699  -0.818  16.091  0.00  0.00    +0.000 OA
BRANCH  23  25
ATOM     24  C   UNL     1      38.747  -2.698  14.562  0.00  0.00    +0.000 C 
ATOM     25  C   UNL     1      39.334  -2.021  15.787  0.00  0.00    +0.000 C 
ENDBRANCH  23  25
ENDBRANCH  17  23
ENDBRANCH  16  22
ENDBRANCH   1  16
BRANCH   2  26
ATOM     26  S   UNL     1      39.031   2.124  12.838  0.00  0.00    +0.000 S 
BRANCH  26  27
ATOM     27  C   UNL     1      40.128   0.780  12.889  0.00  0.00    +0.000 A 
ATOM     28  C   UNL     1      41.063   0.796  13.940  0.00  0.00    +0.000 A 
ATOM     29  C   UNL     1      41.989  -0.203  14.099  0.00  0.00    +0.000 A 
ATOM     30  C   UNL     1      42.029  -1.261  13.228  0.00  0.00    +0.000 A 
ATOM     31  C   UNL     1      43.003  -2.382  13.333  0.00  0.00    +0.000 C 
ATOM     32  C   UNL     1      41.135  -1.324  12.182  0.00  0.00    +0.000 A 
ATOM     33  C   UNL     1      40.226  -0.299  12.063  0.00  0.00    +0.000 A 
ENDBRANCH  26  27
ENDBRANCH   2  26
TORSDOF 8
ENDMDL
MODEL 7
REMARK VINA RESULT:      -7.9      3.564      8.492
REMARK  Name = 
REMARK  8 active torsions:
REMARK  status: ('A' for Active; 'I' for Inactive)
REMARK    1  A    between atoms: C_2  and  O_3
REMARK    2  A    between atoms: O_3  and  C_4
REMARK    3  A    between atoms: C_9  and  N_10
REMARK    4  A    between atoms: N_10  and  C_11
REMARK    5  A    between atoms: C_12  and  S_13
REMARK    6  A    between atoms: S_13  and  C_14
REMARK    7  A    between atoms: N_23  and  C_24
REMARK    8  A    between atoms: C_27  and  C_28
REMARK                            x       y       z     vdW  Elec       q    Type
REMARK                         _______ _______ _______ _____ _____    ______ ____
ROOT
ATOM      1  C   UNL     1      38.502   2.471  14.453  0.00  0.00    +0.000 C 
ATOM      2  C   UNL     1      37.379   2.155  15.113  0.00  0.00    +0.000 C 
ATOM      3  C   UNL     1      37.211   3.126  16.143  0.00  0.00    +0.000 C 
ATOM      4  O   UNL     1      36.297   3.200  16.985  0.00  0.00    +0.000 OA
ATOM      5  N   UNL     1      38.280   4.091  16.125  0.00  0.00    +0.000 N 
ATOM      6  C   UNL     1      39.093   3.665  15.047  0.00  0.00    +0.000 C 
ATOM      7  O   UNL     1      40.149   4.244  14.683  0.00  0.00    +0.000 OA
ENDROOT
BRANCH   5   8
ATOM      8  C   UNL     1      38.422   5.191  17.014  0.00  0.00    +0.000 A 
ATOM      9  C   UNL     1      37.955   6.461  16.755  0.00  0.00    +0.000 A 
ATOM     10  C   UNL     1      38.151   7.455  17.709  0.00  0.00    +0.000 A 
ATOM     11  C   UNL     1      38.803   7.208  18.910  0.00  0.00    +0.000 A 
ATOM     12  C   UNL     1      39.267   5.940  19.162  0.00  0.00    +0.000 A 
ATOM     13  C   UNL     1      39.065   4.978  18.217  0.00  0.00    +0.000 A 
BRANCH  11  14
ATOM     14  C   UNL     1      38.995   8.280  19.901  0.00  0.00    +0.000 C 
ATOM     15  C   UNL     1      37.637   8.852  20.281  0.00  0.00    +0.000 C 
ENDBRANCH  11  14
ENDBRANCH   5   8
BRANCH   1  16
ATOM     16  N   UNL     1      39.019   1.738  13.344  0.00  0.00    +0.000 NA
BRANCH  16  22
ATOM     17  C   UNL     1      39.363  -0.387  12.306  0.00  0.00    +0.000 A 
ATOM     18  C   UNL     1      39.854  -1.661  12.327  0.00  0.00    +0.000 A 
ATOM     19  C   UNL     1      40.521  -2.138  13.426  0.00  0.00    +0.000 A 
ATOM     20  C   UNL     1      40.695  -1.312  14.525  0.00  0.00    +0.000 A 
ATOM     21  C   UNL     1      40.199  -0.032  14.496  0.00  0.00    +0.000 A 
ATOM     22  C   UNL     1      39.534   0.435  13.397  0.00  0.00    +0.000 A 
BRANCH  17  23
ATOM     23  O   UNL     1      38.680   0.101  11.179  0.00  0.00    +0.000 OA
BRANCH  23  25
ATOM     24  C   UNL     1      38.560   1.248   9.048  0.00  0.00    +0.000 C 
ATOM     25  C   UNL     1      39.372   0.396  10.005  0.00  0.00    +0.000 C 
ENDBRANCH  23  25
ENDBRANCH  17  23
ENDBRANCH  16  22
ENDBRANCH   1  16
BRANCH   2  26
ATOM     26  S   UNL     1      36.391   0.779  14.686  0.00  0.00    +0.000 S 
BRANCH  26  27
ATOM     27  C   UNL     1      36.840  -0.750  15.373  0.00  0.00    +0.000 A 
ATOM     28  C   UNL     1      36.737  -1.858  14.514  0.00  0.00    +0.000 A 
ATOM     29  C   UNL     1      37.060  -3.126  14.925  0.00  0.00    +0.000 A 
ATOM     30  C   UNL     1      37.500  -3.352  16.204  0.00  0.00    +0.000 A 
ATOM     31  C   UNL     1      37.868  -4.696  16.727  0.00  0.00    +0.000 C 
ATOM     32  C   UNL     1      37.619  -2.300  17.086  0.00  0.00    +0.000 A 
ATOM     33  C   UNL     1      37.283  -1.048  16.627  0.00  0.00    +0.000 A 
ENDBRANCH  26  27
ENDBRANCH   2  26
TORSDOF 8
ENDMDL
MODEL 8
REMARK VINA RESULT:      -7.9      2.314      5.997
REMARK  Name = 
REMARK  8 active torsions:
REMARK  status: ('A' for Active; 'I' for Inactive)
REMARK    1  A    between atoms: C_2  and  O_3
REMARK    2  A    between atoms: O_3  and  C_4
REMARK    3  A    between atoms: C_9  and  N_10
REMARK    4  A    between atoms: N_10  and  C_11
REMARK    5  A    between atoms: C_12  and  S_13
REMARK    6  A    between atoms: S_13  and  C_14
REMARK    7  A    between atoms: N_23  and  C_24
REMARK    8  A    between atoms: C_27  and  C_28
REMARK                            x       y       z     vdW  Elec       q    Type
REMARK                         _______ _______ _______ _____ _____    ______ ____
ROOT
ATOM      1  C   UNL     1      38.099   5.815  16.472  0.00  0.00    +0.000 C 
ATOM      2  C   UNL     1      37.462   5.962  15.301  0.00  0.00    +0.000 C 
ATOM      3  C   UNL     1      36.872   4.704  14.985  0.00  0.00    +0.000 C 
ATOM      4  O   UNL     1      36.192   4.406  13.985  0.00  0.00    +0.000 OA
ATOM      5  N   UNL     1      37.156   3.727  16.005  0.00  0.00    +0.000 N 
ATOM      6  C   UNL     1      37.936   4.445  16.943  0.00  0.00    +0.000 C 
ATOM      7  O   UNL     1      38.398   3.953  18.005  0.00  0.00    +0.000 OA
ENDROOT
BRANCH   5   8
ATOM      8  C   UNL     1      36.722   2.373  16.003  0.00  0.00    +0.000 A 
ATOM      9  C   UNL     1      37.393   1.345  15.379  0.00  0.00    +0.000 A 
ATOM     10  C   UNL     1      36.868   0.059  15.453  0.00  0.00    +0.000 A 
ATOM     11  C   UNL     1      35.692  -0.221  16.135  0.00  0.00    +0.000 A 
ATOM     12  C   UNL     1      35.025   0.809  16.756  0.00  0.00    +0.000 A 
ATOM     13  C   UNL     1      35.555   2.062  16.673  0.00  0.00    +0.000 A 
BRANCH  11  14
ATOM     14  C   UNL     1      35.160  -1.593  16.197  0.00  0.00    +0.000 C 
ATOM     15  C   UNL     1      34.163  -1.685  17.342  0.00  0.00    +0.000 C 
ENDBRANCH  11  14
ENDBRANCH   5   8
BRANCH   1  16
ATOM     16  N   UNL     1      38.819   6.854  17.133  0.00  0.00    +0.000 NA
BRANCH  16  22
ATOM     17  C   UNL     1      40.288   6.732  19.013  0.00  0.00    +0.000 A 
ATOM     18  C   UNL     1      41.541   6.627  19.546  0.00  0.00    +0.000 A 
ATOM     19  C   UNL     1      42.643   6.532  18.735  0.00  0.00    +0.000 A 
ATOM     20  C   UNL     1      42.474   6.544  17.359  0.00  0.00    +0.000 A 
ATOM     21  C   UNL     1      41.210   6.650  16.832  0.00  0.00    +0.000 A 
ATOM     22  C   UNL     1      40.119   6.745  17.648  0.00  0.00    +0.000 A 
BRANCH  17  23
ATOM     23  O   UNL     1      39.160   6.829  19.847  0.00  0.00    +0.000 OA
BRANCH  23  25
ATOM     24  C   UNL     1      37.730   8.753  20.199  0.00  0.00    +0.000 C 
ATOM     25  C   UNL     1      38.953   7.965  20.628  0.00  0.00    +0.000 C 
ENDBRANCH  23  25
ENDBRANCH  17  23
ENDBRANCH  16  22
ENDBRANCH   1  16
BRANCH   2  26
ATOM     26  S   UNL     1      37.434   7.474  14.427  0.00  0.00    +0.000 S 
BRANCH  26  27
ATOM     27  C   UNL     1      36.245   8.639  14.917  0.00  0.00    +0.000 A 
ATOM     28  C   UNL     1      36.522   9.328  16.111  0.00  0.00    +0.000 A 
ATOM     29  C   UNL     1      35.669  10.276  16.615  0.00  0.00    +0.000 A 
ATOM     30  C   UNL     1      34.505  10.585  15.959  0.00  0.00    +0.000 A 
ATOM     31  C   UNL     1      33.528  11.599  16.440  0.00  0.00    +0.000 C 
ATOM     32  C   UNL     1      34.186   9.938  14.785  0.00  0.00    +0.000 A 
ATOM     33  C   UNL     1      35.073   8.995  14.320  0.00  0.00    +0.000 A 
ENDBRANCH  26  27
ENDBRANCH   2  26
TORSDOF 8
ENDMDL
MODEL 9
REMARK VINA RESULT:      -7.8      1.654      2.566
REMARK  Name = 
REMARK  8 active torsions:
REMARK  status: ('A' for Active; 'I' for Inactive)
REMARK    1  A    between atoms: C_2  and  O_3
REMARK    2  A    between atoms: O_3  and  C_4
REMARK    3  A    between atoms: C_9  and  N_10
REMARK    4  A    between atoms: N_10  and  C_11
REMARK    5  A    between atoms: C_12  and  S_13
REMARK    6  A    between atoms: S_13  and  C_14
REMARK    7  A    between atoms: N_23  and  C_24
REMARK    8  A    between atoms: C_27  and  C_28
REMARK                            x       y       z     vdW  Elec       q    Type
REMARK                         _______ _______ _______ _____ _____    ______ ____
ROOT
ATOM      1  C   UNL     1      37.093   4.815  14.489  0.00  0.00    +0.000 C 
ATOM      2  C   UNL     1      37.550   5.000  15.737  0.00  0.00    +0.000 C 
ATOM      3  C   UNL     1      37.403   3.760  16.424  0.00  0.00    +0.000 C 
ATOM      4  O   UNL     1      37.704   3.496  17.603  0.00  0.00    +0.000 OA
ATOM      5  N   UNL     1      36.827   2.756  15.565  0.00  0.00    +0.000 N 
ATOM      6  C   UNL     1      36.635   3.439  14.340  0.00  0.00    +0.000 C 
ATOM      7  O   UNL     1      36.146   2.916  13.305  0.00  0.00    +0.000 OA
ENDROOT
BRANCH   5   8
ATOM      8  C   UNL     1      36.543   1.412  15.931  0.00  0.00    +0.000 A 
ATOM      9  C   UNL     1      37.338   0.336  15.603  0.00  0.00    +0.000 A 
ATOM     10  C   UNL     1      36.956  -0.933  16.024  0.00  0.00    +0.000 A 
ATOM     11  C   UNL     1      35.801  -1.150  16.762  0.00  0.00    +0.000 A 
ATOM     12  C   UNL     1      35.011  -0.073  17.087  0.00  0.00    +0.000 A 
ATOM     13  C   UNL     1      35.402   1.164  16.667  0.00  0.00    +0.000 A 
BRANCH  11  14
ATOM     14  C   UNL     1      35.422  -2.506  17.195  0.00  0.00    +0.000 C 
ATOM     15  C   UNL     1      35.866  -3.505  16.136  0.00  0.00    +0.000 C 
ENDBRANCH  11  14
ENDBRANCH   5   8
BRANCH   1  16
ATOM     16  N   UNL     1      37.070   5.826  13.483  0.00  0.00    +0.000 NA
BRANCH  16  22
ATOM     17  C   UNL     1      35.983   6.496  11.463  0.00  0.00    +0.000 A 
ATOM     18  C   UNL     1      34.884   6.951  10.792  0.00  0.00    +0.000 A 
ATOM     19  C   UNL     1      33.713   7.211  11.458  0.00  0.00    +0.000 A 
ATOM     20  C   UNL     1      33.652   7.007  12.827  0.00  0.00    +0.000 A 
ATOM     21  C   UNL     1      34.762   6.549  13.494  0.00  0.00    +0.000 A 
ATOM     22  C   UNL     1      35.924   6.294  12.823  0.00  0.00    +0.000 A 
BRANCH  17  23
ATOM     23  O   UNL     1      37.181   6.230  10.780  0.00  0.00    +0.000 OA
BRANCH  23  25
ATOM     24  C   UNL     1      37.090   3.912  10.077  0.00  0.00    +0.000 C 
ATOM     25  C   UNL     1      37.193   5.373   9.679  0.00  0.00    +0.000 C 
ENDBRANCH  23  25
ENDBRANCH  17  23
ENDBRANCH  16  22
ENDBRANCH   1  16
BRANCH   2  26
ATOM     26  S   UNL     1      38.185   6.529  16.291  0.00  0.00    +0.000 S 
BRANCH  26  27
ATOM     27  C   UNL     1      39.479   6.466  17.446  0.00  0.00    +0.000 A 
ATOM     28  C   UNL     1      39.090   6.470  18.798  0.00  0.00    +0.000 A 
ATOM     29  C   UNL     1      40.009   6.423  19.816  0.00  0.00    +0.000 A 
ATOM     30  C   UNL     1      41.351   6.369  19.540  0.00  0.00    +0.000 A 
ATOM     31  C   UNL     1      42.409   6.318  20.586  0.00  0.00    +0.000 C 
ATOM     32  C   UNL     1      41.784   6.363  18.232  0.00  0.00    +0.000 A 
ATOM     33  C   UNL     1      40.826   6.411  17.247  0.00  0.00    +0.000 A 
ENDBRANCH  26  27
ENDBRANCH   2  26
TORSDOF 8
ENDMDL
MODEL 10
REMARK VINA RESULT:      -7.7     24.537     26.745
REMARK  Name = 
REMARK  8 active torsions:
REMARK  status: ('A' for Active; 'I' for Inactive)
REMARK    1  A    between atoms: C_2  and  O_3
REMARK    2  A    between atoms: O_3  and  C_4
REMARK    3  A    between atoms: C_9  and  N_10
REMARK    4  A    between atoms: N_10  and  C_11
REMARK    5  A    between atoms: C_12  and  S_13
REMARK    6  A    between atoms: S_13  and  C_14
REMARK    7  A    between atoms: N_23  and  C_24
REMARK    8  A    between atoms: C_27  and  C_28
REMARK                            x       y       z     vdW  Elec       q    Type
REMARK                         _______ _______ _______ _____ _____    ______ ____
ROOT
ATOM      1  C   UNL     1      12.712  -0.164  27.644  0.00  0.00    +0.000 C 
ATOM      2  C   UNL     1      13.411   0.142  28.747  0.00  0.00    +0.000 C 
ATOM      3  C   UNL     1      14.788   0.163  28.379  0.00  0.00    +0.000 C 
ATOM      4  O   UNL     1      15.771   0.402  29.103  0.00  0.00    +0.000 OA
ATOM      5  N   UNL     1      14.955  -0.145  26.981  0.00  0.00    +0.000 N 
ATOM      6  C   UNL     1      13.630  -0.350  26.526  0.00  0.00    +0.000 C 
ATOM      7  O   UNL     1      13.325  -0.643  25.341  0.00  0.00    +0.000 OA
ENDROOT
BRANCH   5   8
ATOM      8  C   UNL     1      16.194  -0.210  26.287  0.00  0.00    +0.000 A 
ATOM      9  C   UNL     1      16.802  -1.383  25.897  0.00  0.00    +0.000 A 
ATOM     10  C   UNL     1      18.014  -1.316  25.218  0.00  0.00    +0.000 A 
ATOM     11  C   UNL     1      18.629  -0.108  24.921  0.00  0.00    +0.000 A 
ATOM     12  C   UNL     1      18.018   1.060  25.312  0.00  0.00    +0.000 A 
ATOM     13  C   UNL     1      16.830   0.974  25.976  0.00  0.00    +0.000 A 
BRANCH  11  14
ATOM     14  C   UNL     1      19.912  -0.068  24.200  0.00  0.00    +0.000 C 
ATOM     15  C   UNL     1      20.040   1.273  23.491  0.00  0.00    +0.000 C 
ENDBRANCH  11  14
ENDBRANCH   5   8
BRANCH   1  16
ATOM     16  N   UNL     1      11.292  -0.282  27.597  0.00  0.00    +0.000 NA
BRANCH  16  22
ATOM     17  C   UNL     1      10.096   1.663  26.894  0.00  0.00    +0.000 A 
ATOM     18  C   UNL     1       9.278   2.309  26.011  0.00  0.00    +0.000 A 
ATOM     19  C   UNL     1       8.801   1.666  24.898  0.00  0.00    +0.000 A 
ATOM     20  C   UNL     1       9.157   0.346  24.672  0.00  0.00    +0.000 A 
ATOM     21  C   UNL     1       9.980  -0.296  25.565  0.00  0.00    +0.000 A 
ATOM     22  C   UNL     1      10.450   0.352  26.672  0.00  0.00    +0.000 A 
BRANCH  17  23
ATOM     23  O   UNL     1      10.585   2.324  28.034  0.00  0.00    +0.000 OA
BRANCH  23  25
ATOM     24  C   UNL     1      12.488   3.504  27.110  0.00  0.00    +0.000 C 
ATOM     25  C   UNL     1      11.207   3.566  27.920  0.00  0.00    +0.000 C 
ENDBRANCH  23  25
ENDBRANCH  17  23
ENDBRANCH  16  22
ENDBRANCH   1  16
BRANCH   2  26
ATOM     26  S   UNL     1      12.651   0.438  30.292  0.00  0.00    +0.000 S 
BRANCH  26  27
ATOM     27  C   UNL     1      13.571   0.033  31.706  0.00  0.00    +0.000 A 
ATOM     28  C   UNL     1      13.490  -1.308  32.123  0.00  0.00    +0.000 A 
ATOM     29  C   UNL     1      14.166  -1.766  33.225  0.00  0.00    +0.000 A 
ATOM     30  C   UNL     1      14.952  -0.918  33.962  0.00  0.00    +0.000 A 
ATOM     31  C   UNL     1      15.715  -1.336  35.170  0.00  0.00    +0.000 C 
ATOM     32  C   UNL     1      15.065   0.406  33.596  0.00  0.00    +0.000 A 
ATOM     33  C   UNL     1      14.368   0.818  32.484  0.00  0.00    +0.000 A 
ENDBRANCH  26  27
ENDBRANCH   2  26
TORSDOF 8
ENDMDL
