MODEL 1
REMARK VINA RESULT:      -5.8      0.000      0.000
REMARK  Name = 
REMARK  6 active torsions:
REMARK  status: ('A' for Active; 'I' for Inactive)
REMARK    1  A    between atoms: N_2  and  C_3
REMARK    2  A    between atoms: C_3  and  N_5
REMARK    3  A    between atoms: N_5  and  C_6
REMARK    4  A    between atoms: C_9  and  O_10
REMARK    5  A    between atoms: O_10  and  C_11
REMARK    6  A    between atoms: C_16  and  O_17
REMARK                            x       y       z     vdW  Elec       q    Type
REMARK                         _______ _______ _______ _____ _____    ______ ____
ROOT
ATOM      1  C   UNL     1      16.556  10.840  33.253  0.00  0.00    +0.000 A 
ATOM      2  C   UNL     1      15.809  11.624  34.107  0.00  0.00    +0.000 A 
ATOM      3  C   UNL     1      16.049  11.672  35.464  0.00  0.00    +0.000 A 
ATOM      4  C   UNL     1      17.067  10.925  36.052  0.00  0.00    +0.000 A 
ATOM      5  C   UNL     1      17.811  10.142  35.194  0.00  0.00    +0.000 A 
ATOM      6  C   UNL     1      17.565  10.098  33.830  0.00  0.00    +0.000 A 
ENDROOT
BRANCH   1   7
ATOM      7  N   UNL     1      16.287  10.810  31.858  0.00  0.00    +0.000 NA
BRANCH   7   8
ATOM      8  C   UNL     1      15.795  11.886  31.118  0.00  0.00    +0.000 C 
ATOM      9  S   UNL     1      14.249  11.942  30.670  0.00  0.00    +0.000 S 
BRANCH   8  11
ATOM     10  C   UNL     1      16.173  14.218  30.241  0.00  0.00    +0.000 C 
ATOM     11  N   UNL     1      16.649  12.957  30.741  0.00  0.00    +0.000 NA
ENDBRANCH   8  11
ENDBRANCH   7   8
ENDBRANCH   1   7
BRANCH   4  12
ATOM     12  O   UNL     1      17.304  10.977  37.417  0.00  0.00    +0.000 OA
BRANCH  12  13
ATOM     13  C   UNL     1      18.495  11.495  37.872  0.00  0.00    +0.000 A 
ATOM     14  C   UNL     1      18.785  12.831  37.736  0.00  0.00    +0.000 A 
ATOM     15  C   UNL     1      19.969  13.380  38.180  0.00  0.00    +0.000 A 
ATOM     16  C   UNL     1      20.866  12.518  38.778  0.00  0.00    +0.000 A 
ATOM     17  C   UNL     1      20.600  11.198  38.922  0.00  0.00    +0.000 A 
ATOM     18  C   UNL     1      19.408  10.670  38.471  0.00  0.00    +0.000 A 
BRANCH  18  19
ATOM     19  O   UNL     1      19.186   9.292  38.646  0.00  0.00    +0.000 OA
ATOM     20  C   UNL     1      19.661   8.613  39.768  0.00  0.00    +0.000 C 
ENDBRANCH  18  19
ENDBRANCH  12  13
ENDBRANCH   4  12
TORSDOF 6
ENDMDL
MODEL 2
REMARK VINA RESULT:      -5.7     17.674     19.918
REMARK  Name = 
REMARK  6 active torsions:
REMARK  status: ('A' for Active; 'I' for Inactive)
REMARK    1  A    between atoms: N_2  and  C_3
REMARK    2  A    between atoms: C_3  and  N_5
REMARK    3  A    between atoms: N_5  and  C_6
REMARK    4  A    between atoms: C_9  and  O_10
REMARK    5  A    between atoms: O_10  and  C_11
REMARK    6  A    between atoms: C_16  and  O_17
REMARK                            x       y       z     vdW  Elec       q    Type
REMARK                         _______ _______ _______ _____ _____    ______ ____
ROOT
ATOM      1  C   UNL     1      28.806  24.043  22.245  0.00  0.00    +0.000 A 
ATOM      2  C   UNL     1      27.444  23.828  22.209  0.00  0.00    +0.000 A 
ATOM      3  C   UNL     1      26.741  23.363  23.300  0.00  0.00    +0.000 A 
ATOM      4  C   UNL     1      27.372  23.083  24.509  0.00  0.00    +0.000 A 
ATOM      5  C   UNL     1      28.734  23.299  24.541  0.00  0.00    +0.000 A 
ATOM      6  C   UNL     1      29.436  23.767  23.440  0.00  0.00    +0.000 A 
ENDROOT
BRANCH   1   7
ATOM      7  N   UNL     1      29.505  24.523  21.105  0.00  0.00    +0.000 NA
BRANCH   7   8
ATOM      8  C   UNL     1      29.558  25.859  20.706  0.00  0.00    +0.000 C 
ATOM      9  S   UNL     1      29.080  27.036  21.698  0.00  0.00    +0.000 S 
BRANCH   8  11
ATOM     10  C   UNL     1      30.167  27.569  18.958  0.00  0.00    +0.000 C 
ATOM     11  N   UNL     1      30.034  26.212  19.415  0.00  0.00    +0.000 NA
ENDBRANCH   8  11
ENDBRANCH   7   8
ENDBRANCH   1   7
BRANCH   4  12
ATOM     12  O   UNL     1      26.661  22.616  25.604  0.00  0.00    +0.000 OA
BRANCH  12  13
ATOM     13  C   UNL     1      26.164  23.518  26.516  0.00  0.00    +0.000 A 
ATOM     14  C   UNL     1      25.239  24.465  26.145  0.00  0.00    +0.000 A 
ATOM     15  C   UNL     1      24.723  25.383  27.034  0.00  0.00    +0.000 A 
ATOM     16  C   UNL     1      25.181  25.312  28.335  0.00  0.00    +0.000 A 
ATOM     17  C   UNL     1      26.091  24.387  28.721  0.00  0.00    +0.000 A 
ATOM     18  C   UNL     1      26.594  23.477  27.815  0.00  0.00    +0.000 A 
BRANCH  18  19
ATOM     19  O   UNL     1      27.538  22.540  28.272  0.00  0.00    +0.000 OA
ATOM     20  C   UNL     1      28.108  22.637  29.541  0.00  0.00    +0.000 C 
ENDBRANCH  18  19
ENDBRANCH  12  13
ENDBRANCH   4  12
TORSDOF 6
ENDMDL
MODEL 3
REMARK VINA RESULT:      -5.3     17.197     18.933
REMARK  Name = 
REMARK  6 active torsions:
REMARK  status: ('A' for Active; 'I' for Inactive)
REMARK    1  A    between atoms: N_2  and  C_3
REMARK    2  A    between atoms: C_3  and  N_5
REMARK    3  A    between atoms: N_5  and  C_6
REMARK    4  A    between atoms: C_9  and  O_10
REMARK    5  A    between atoms: O_10  and  C_11
REMARK    6  A    between atoms: C_16  and  O_17
REMARK                            x       y       z     vdW  Elec       q    Type
REMARK                         _______ _______ _______ _____ _____    ______ ____
ROOT
ATOM      1  C   UNL     1      24.514  25.773  26.495  0.00  0.00    +0.000 A 
ATOM      2  C   UNL     1      24.873  25.483  25.195  0.00  0.00    +0.000 A 
ATOM      3  C   UNL     1      25.682  24.414  24.874  0.00  0.00    +0.000 A 
ATOM      4  C   UNL     1      26.185  23.560  25.852  0.00  0.00    +0.000 A 
ATOM      5  C   UNL     1      25.824  23.853  27.150  0.00  0.00    +0.000 A 
ATOM      6  C   UNL     1      25.010  24.930  27.468  0.00  0.00    +0.000 A 
ENDROOT
BRANCH   1   7
ATOM      7  N   UNL     1      23.679  26.882  26.797  0.00  0.00    +0.000 NA
BRANCH   7   8
ATOM      8  C   UNL     1      22.302  26.807  27.011  0.00  0.00    +0.000 C 
ATOM      9  S   UNL     1      21.267  26.952  25.785  0.00  0.00    +0.000 S 
BRANCH   8  11
ATOM     10  C   UNL     1      20.424  26.209  28.582  0.00  0.00    +0.000 C 
ATOM     11  N   UNL     1      21.781  26.603  28.317  0.00  0.00    +0.000 NA
ENDBRANCH   8  11
ENDBRANCH   7   8
ENDBRANCH   1   7
BRANCH   4  12
ATOM     12  O   UNL     1      26.998  22.485  25.523  0.00  0.00    +0.000 OA
BRANCH  12  13
ATOM     13  C   UNL     1      28.361  22.669  25.461  0.00  0.00    +0.000 A 
ATOM     14  C   UNL     1      29.134  22.625  26.596  0.00  0.00    +0.000 A 
ATOM     15  C   UNL     1      30.500  22.806  26.567  0.00  0.00    +0.000 A 
ATOM     16  C   UNL     1      31.069  23.036  25.330  0.00  0.00    +0.000 A 
ATOM     17  C   UNL     1      30.325  23.083  24.201  0.00  0.00    +0.000 A 
ATOM     18  C   UNL     1      28.959  22.899  24.252  0.00  0.00    +0.000 A 
BRANCH  18  19
ATOM     19  O   UNL     1      28.237  22.959  23.046  0.00  0.00    +0.000 OA
ATOM     20  C   UNL     1      28.537  23.900  22.062  0.00  0.00    +0.000 C 
ENDBRANCH  18  19
ENDBRANCH  12  13
ENDBRANCH   4  12
TORSDOF 6
ENDMDL
MODEL 4
REMARK VINA RESULT:      -5.3     16.829     18.862
REMARK  Name = 
REMARK  6 active torsions:
REMARK  status: ('A' for Active; 'I' for Inactive)
REMARK    1  A    between atoms: N_2  and  C_3
REMARK    2  A    between atoms: C_3  and  N_5
REMARK    3  A    between atoms: N_5  and  C_6
REMARK    4  A    between atoms: C_9  and  O_10
REMARK    5  A    between atoms: O_10  and  C_11
REMARK    6  A    between atoms: C_16  and  O_17
REMARK                            x       y       z     vdW  Elec       q    Type
REMARK                         _______ _______ _______ _____ _____    ______ ____
ROOT
ATOM      1  C   UNL     1      26.287  23.859  29.642  0.00  0.00    +0.000 A 
ATOM      2  C   UNL     1      25.756  24.306  28.450  0.00  0.00    +0.000 A 
ATOM      3  C   UNL     1      26.164  23.813  27.229  0.00  0.00    +0.000 A 
ATOM      4  C   UNL     1      27.142  22.827  27.131  0.00  0.00    +0.000 A 
ATOM      5  C   UNL     1      27.671  22.383  28.324  0.00  0.00    +0.000 A 
ATOM      6  C   UNL     1      27.257  22.883  29.550  0.00  0.00    +0.000 A 
ENDROOT
BRANCH   1   7
ATOM      7  N   UNL     1      25.848  24.386  30.886  0.00  0.00    +0.000 NA
BRANCH   7   8
ATOM      8  C   UNL     1      25.454  25.708  31.098  0.00  0.00    +0.000 C 
ATOM      9  S   UNL     1      26.544  26.893  31.160  0.00  0.00    +0.000 S 
BRANCH   8  11
ATOM     10  C   UNL     1      23.313  26.765  30.292  0.00  0.00    +0.000 C 
ATOM     11  N   UNL     1      24.083  26.038  31.265  0.00  0.00    +0.000 NA
ENDBRANCH   8  11
ENDBRANCH   7   8
ENDBRANCH   1   7
BRANCH   4  12
ATOM     12  O   UNL     1      27.549  22.333  25.900  0.00  0.00    +0.000 OA
BRANCH  12  13
ATOM     13  C   UNL     1      28.692  22.834  25.320  0.00  0.00    +0.000 A 
ATOM     14  C   UNL     1      29.934  22.381  25.695  0.00  0.00    +0.000 A 
ATOM     15  C   UNL     1      31.097  22.863  25.134  0.00  0.00    +0.000 A 
ATOM     16  C   UNL     1      30.961  23.836  24.164  0.00  0.00    +0.000 A 
ATOM     17  C   UNL     1      29.747  24.297  23.781  0.00  0.00    +0.000 A 
ATOM     18  C   UNL     1      28.596  23.800  24.355  0.00  0.00    +0.000 A 
BRANCH  18  19
ATOM     19  O   UNL     1      27.362  24.316  23.918  0.00  0.00    +0.000 OA
ATOM     20  C   UNL     1      26.733  23.833  22.771  0.00  0.00    +0.000 C 
ENDBRANCH  18  19
ENDBRANCH  12  13
ENDBRANCH   4  12
TORSDOF 6
ENDMDL
MODEL 5
REMARK VINA RESULT:      -5.2      3.223      4.674
REMARK  Name = 
REMARK  6 active torsions:
REMARK  status: ('A' for Active; 'I' for Inactive)
REMARK    1  A    between atoms: N_2  and  C_3
REMARK    2  A    between atoms: C_3  and  N_5
REMARK    3  A    between atoms: N_5  and  C_6
REMARK    4  A    between atoms: C_9  and  O_10
REMARK    5  A    between atoms: O_10  and  C_11
REMARK    6  A    between atoms: C_16  and  O_17
REMARK                            x       y       z     vdW  Elec       q    Type
REMARK                         _______ _______ _______ _____ _____    ______ ____
ROOT
ATOM      1  C   UNL     1      17.576  10.784  36.905  0.00  0.00    +0.000 A 
ATOM      2  C   UNL     1      18.155  11.871  37.525  0.00  0.00    +0.000 A 
ATOM      3  C   UNL     1      19.426  11.826  38.060  0.00  0.00    +0.000 A 
ATOM      4  C   UNL     1      20.200  10.671  38.002  0.00  0.00    +0.000 A 
ATOM      5  C   UNL     1      19.617   9.586  37.381  0.00  0.00    +0.000 A 
ATOM      6  C   UNL     1      18.339   9.637  36.846  0.00  0.00    +0.000 A 
ENDROOT
BRANCH   1   7
ATOM      7  N   UNL     1      16.264  10.860  36.363  0.00  0.00    +0.000 NA
BRANCH   7   8
ATOM      8  C   UNL     1      15.920  11.553  35.202  0.00  0.00    +0.000 C 
ATOM      9  S   UNL     1      16.734  11.321  33.831  0.00  0.00    +0.000 S 
BRANCH   8  11
ATOM     10  C   UNL     1      13.849  12.545  36.239  0.00  0.00    +0.000 C 
ATOM     11  N   UNL     1      14.844  12.480  35.204  0.00  0.00    +0.000 NA
ENDBRANCH   8  11
ENDBRANCH   7   8
ENDBRANCH   1   7
BRANCH   4  12
ATOM     12  O   UNL     1      21.478  10.630  38.540  0.00  0.00    +0.000 OA
BRANCH  12  13
ATOM     13  C   UNL     1      22.562  10.591  37.694  0.00  0.00    +0.000 A 
ATOM     14  C   UNL     1      22.810   9.488  36.912  0.00  0.00    +0.000 A 
ATOM     15  C   UNL     1      23.888   9.417  36.056  0.00  0.00    +0.000 A 
ATOM     16  C   UNL     1      24.721  10.517  36.014  0.00  0.00    +0.000 A 
ATOM     17  C   UNL     1      24.494  11.612  36.776  0.00  0.00    +0.000 A 
ATOM     18  C   UNL     1      23.410  11.663  37.627  0.00  0.00    +0.000 A 
BRANCH  18  19
ATOM     19  O   UNL     1      23.224  12.826  38.395  0.00  0.00    +0.000 OA
ATOM     20  C   UNL     1      24.121  13.190  39.399  0.00  0.00    +0.000 C 
ENDBRANCH  18  19
ENDBRANCH  12  13
ENDBRANCH   4  12
TORSDOF 6
ENDMDL
MODEL 6
REMARK VINA RESULT:      -5.2     19.264     21.852
REMARK  Name = 
REMARK  6 active torsions:
REMARK  status: ('A' for Active; 'I' for Inactive)
REMARK    1  A    between atoms: N_2  and  C_3
REMARK    2  A    between atoms: C_3  and  N_5
REMARK    3  A    between atoms: N_5  and  C_6
REMARK    4  A    between atoms: C_9  and  O_10
REMARK    5  A    between atoms: O_10  and  C_11
REMARK    6  A    between atoms: C_16  and  O_17
REMARK                            x       y       z     vdW  Elec       q    Type
REMARK                         _______ _______ _______ _____ _____    ______ ____
ROOT
ATOM      1  C   UNL     1      28.945  26.914  21.376  0.00  0.00    +0.000 A 
ATOM      2  C   UNL     1      29.388  25.720  20.846  0.00  0.00    +0.000 A 
ATOM      3  C   UNL     1      29.111  24.504  21.434  0.00  0.00    +0.000 A 
ATOM      4  C   UNL     1      28.362  24.413  22.604  0.00  0.00    +0.000 A 
ATOM      5  C   UNL     1      27.921  25.609  23.131  0.00  0.00    +0.000 A 
ATOM      6  C   UNL     1      28.202  26.830  22.535  0.00  0.00    +0.000 A 
ENDROOT
BRANCH   1   7
ATOM      7  N   UNL     1      29.245  28.153  20.748  0.00  0.00    +0.000 NA
BRANCH   7   8
ATOM      8  C   UNL     1      28.870  28.501  19.450  0.00  0.00    +0.000 C 
ATOM      9  S   UNL     1      27.333  28.833  19.096  0.00  0.00    +0.000 S 
BRANCH   8  11
ATOM     10  C   UNL     1      30.204  27.449  17.588  0.00  0.00    +0.000 C 
ATOM     11  N   UNL     1      29.835  28.570  18.410  0.00  0.00    +0.000 NA
ENDBRANCH   8  11
ENDBRANCH   7   8
ENDBRANCH   1   7
BRANCH   4  12
ATOM     12  O   UNL     1      28.085  23.188  23.191  0.00  0.00    +0.000 OA
BRANCH  12  13
ATOM     13  C   UNL     1      28.644  22.887  24.412  0.00  0.00    +0.000 A 
ATOM     14  C   UNL     1      30.006  22.779  24.561  0.00  0.00    +0.000 A 
ATOM     15  C   UNL     1      30.596  22.478  25.769  0.00  0.00    +0.000 A 
ATOM     16  C   UNL     1      29.749  22.287  26.843  0.00  0.00    +0.000 A 
ATOM     17  C   UNL     1      28.405  22.389  26.717  0.00  0.00    +0.000 A 
ATOM     18  C   UNL     1      27.835  22.691  25.498  0.00  0.00    +0.000 A 
BRANCH  18  19
ATOM     19  O   UNL     1      26.433  22.783  25.427  0.00  0.00    +0.000 OA
ATOM     20  C   UNL     1      25.756  23.935  25.824  0.00  0.00    +0.000 C 
ENDBRANCH  18  19
ENDBRANCH  12  13
ENDBRANCH   4  12
TORSDOF 6
ENDMDL
MODEL 7
REMARK VINA RESULT:      -5.1      8.750     11.486
REMARK  Name = 
REMARK  6 active torsions:
REMARK  status: ('A' for Active; 'I' for Inactive)
REMARK    1  A    between atoms: N_2  and  C_3
REMARK    2  A    between atoms: C_3  and  N_5
REMARK    3  A    between atoms: N_5  and  C_6
REMARK    4  A    between atoms: C_9  and  O_10
REMARK    5  A    between atoms: O_10  and  C_11
REMARK    6  A    between atoms: C_16  and  O_17
REMARK                            x       y       z     vdW  Elec       q    Type
REMARK                         _______ _______ _______ _____ _____    ______ ____
ROOT
ATOM      1  C   UNL     1      20.473  19.511  38.477  0.00  0.00    +0.000 A 
ATOM      2  C   UNL     1      21.368  20.194  37.680  0.00  0.00    +0.000 A 
ATOM      3  C   UNL     1      20.960  21.050  36.678  0.00  0.00    +0.000 A 
ATOM      4  C   UNL     1      19.612  21.273  36.413  0.00  0.00    +0.000 A 
ATOM      5  C   UNL     1      18.720  20.587  37.211  0.00  0.00    +0.000 A 
ATOM      6  C   UNL     1      19.135  19.728  38.218  0.00  0.00    +0.000 A 
ENDROOT
BRANCH   1   7
ATOM      7  N   UNL     1      20.921  18.636  39.502  0.00  0.00    +0.000 NA
BRANCH   7   8
ATOM      8  C   UNL     1      20.693  17.260  39.532  0.00  0.00    +0.000 C 
ATOM      9  S   UNL     1      19.409  16.651  40.291  0.00  0.00    +0.000 S 
BRANCH   8  11
ATOM     10  C   UNL     1      22.926  16.718  38.496  0.00  0.00    +0.000 C 
ATOM     11  N   UNL     1      21.590  16.363  38.892  0.00  0.00    +0.000 NA
ENDBRANCH   8  11
ENDBRANCH   7   8
ENDBRANCH   1   7
BRANCH   4  12
ATOM     12  O   UNL     1      19.207  22.134  35.404  0.00  0.00    +0.000 OA
BRANCH  12  13
ATOM     13  C   UNL     1      18.122  21.797  34.628  0.00  0.00    +0.000 A 
ATOM     14  C   UNL     1      18.214  20.817  33.669  0.00  0.00    +0.000 A 
ATOM     15  C   UNL     1      17.146  20.457  32.876  0.00  0.00    +0.000 A 
ATOM     16  C   UNL     1      15.960  21.132  33.088  0.00  0.00    +0.000 A 
ATOM     17  C   UNL     1      15.849  22.100  34.027  0.00  0.00    +0.000 A 
ATOM     18  C   UNL     1      16.930  22.445  34.810  0.00  0.00    +0.000 A 
BRANCH  18  19
ATOM     19  O   UNL     1      16.757  23.459  35.770  0.00  0.00    +0.000 OA
ATOM     20  C   UNL     1      16.054  23.232  36.953  0.00  0.00    +0.000 C 
ENDBRANCH  18  19
ENDBRANCH  12  13
ENDBRANCH   4  12
TORSDOF 6
ENDMDL
MODEL 8
REMARK VINA RESULT:      -5.1     17.261     19.319
REMARK  Name = 
REMARK  6 active torsions:
REMARK  status: ('A' for Active; 'I' for Inactive)
REMARK    1  A    between atoms: N_2  and  C_3
REMARK    2  A    between atoms: C_3  and  N_5
REMARK    3  A    between atoms: N_5  and  C_6
REMARK    4  A    between atoms: C_9  and  O_10
REMARK    5  A    between atoms: O_10  and  C_11
REMARK    6  A    between atoms: C_16  and  O_17
REMARK                            x       y       z     vdW  Elec       q    Type
REMARK                         _______ _______ _______ _____ _____    ______ ____
ROOT
ATOM      1  C   UNL     1      30.614  22.669  29.148  0.00  0.00    +0.000 A 
ATOM      2  C   UNL     1      29.276  22.873  29.414  0.00  0.00    +0.000 A 
ATOM      3  C   UNL     1      28.298  22.691  28.458  0.00  0.00    +0.000 A 
ATOM      4  C   UNL     1      28.610  22.288  27.163  0.00  0.00    +0.000 A 
ATOM      5  C   UNL     1      29.949  22.085  26.901  0.00  0.00    +0.000 A 
ATOM      6  C   UNL     1      30.928  22.270  27.865  0.00  0.00    +0.000 A 
ENDROOT
BRANCH   1   7
ATOM      7  N   UNL     1      31.601  22.863  30.152  0.00  0.00    +0.000 NA
BRANCH   7   8
ATOM      8  C   UNL     1      32.195  21.842  30.894  0.00  0.00    +0.000 C 
ATOM      9  S   UNL     1      33.781  21.575  30.810  0.00  0.00    +0.000 S 
BRANCH   8  11
ATOM     10  C   UNL     1      30.963  21.408  33.050  0.00  0.00    +0.000 C 
ATOM     11  N   UNL     1      31.412  21.013  31.742  0.00  0.00    +0.000 NA
ENDBRANCH   8  11
ENDBRANCH   7   8
ENDBRANCH   1   7
BRANCH   4  12
ATOM     12  O   UNL     1      27.622  22.106  26.206  0.00  0.00    +0.000 OA
BRANCH  12  13
ATOM     13  C   UNL     1      27.365  23.116  25.307  0.00  0.00    +0.000 A 
ATOM     14  C   UNL     1      28.107  23.246  24.157  0.00  0.00    +0.000 A 
ATOM     15  C   UNL     1      27.875  24.247  23.238  0.00  0.00    +0.000 A 
ATOM     16  C   UNL     1      26.850  25.126  23.523  0.00  0.00    +0.000 A 
ATOM     17  C   UNL     1      26.108  25.015  24.650  0.00  0.00    +0.000 A 
ATOM     18  C   UNL     1      26.356  24.006  25.557  0.00  0.00    +0.000 A 
BRANCH  18  19
ATOM     19  O   UNL     1      25.554  23.939  26.710  0.00  0.00    +0.000 OA
ATOM     20  C   UNL     1      24.782  25.024  27.127  0.00  0.00    +0.000 C 
ENDBRANCH  18  19
ENDBRANCH  12  13
ENDBRANCH   4  12
TORSDOF 6
ENDMDL
MODEL 9
REMARK VINA RESULT:      -5.1      3.035      4.953
REMARK  Name = 
REMARK  6 active torsions:
REMARK  status: ('A' for Active; 'I' for Inactive)
REMARK    1  A    between atoms: N_2  and  C_3
REMARK    2  A    between atoms: C_3  and  N_5
REMARK    3  A    between atoms: N_5  and  C_6
REMARK    4  A    between atoms: C_9  and  O_10
REMARK    5  A    between atoms: O_10  and  C_11
REMARK    6  A    between atoms: C_16  and  O_17
REMARK                            x       y       z     vdW  Elec       q    Type
REMARK                         _______ _______ _______ _____ _____    ______ ____
ROOT
ATOM      1  C   UNL     1      17.521  11.630  37.176  0.00  0.00    +0.000 A 
ATOM      2  C   UNL     1      16.721  10.687  37.787  0.00  0.00    +0.000 A 
ATOM      3  C   UNL     1      17.154   9.934  38.858  0.00  0.00    +0.000 A 
ATOM      4  C   UNL     1      18.434  10.085  39.386  0.00  0.00    +0.000 A 
ATOM      5  C   UNL     1      19.231  11.028  38.771  0.00  0.00    +0.000 A 
ATOM      6  C   UNL     1      18.790  11.783  37.694  0.00  0.00    +0.000 A 
ENDROOT
BRANCH   1   7
ATOM      7  N   UNL     1      17.048  12.392  36.074  0.00  0.00    +0.000 NA
BRANCH   7   8
ATOM      8  C   UNL     1      16.171  11.920  35.096  0.00  0.00    +0.000 C 
ATOM      9  S   UNL     1      16.648  10.820  34.021  0.00  0.00    +0.000 S 
BRANCH   8  11
ATOM     10  C   UNL     1      13.947  12.452  36.157  0.00  0.00    +0.000 C 
ATOM     11  N   UNL     1      14.836  12.401  35.028  0.00  0.00    +0.000 NA
ENDBRANCH   8  11
ENDBRANCH   7   8
ENDBRANCH   1   7
BRANCH   4  12
ATOM     12  O   UNL     1      18.865   9.325  40.463  0.00  0.00    +0.000 OA
BRANCH  12  13
ATOM     13  C   UNL     1      17.932   8.759  41.301  0.00  0.00    +0.000 A 
ATOM     14  C   UNL     1      17.335   9.495  42.297  0.00  0.00    +0.000 A 
ATOM     15  C   UNL     1      16.399   8.958  43.153  0.00  0.00    +0.000 A 
ATOM     16  C   UNL     1      16.079   7.628  42.967  0.00  0.00    +0.000 A 
ATOM     17  C   UNL     1      16.655   6.885  41.993  0.00  0.00    +0.000 A 
ATOM     18  C   UNL     1      17.590   7.443  41.146  0.00  0.00    +0.000 A 
BRANCH  18  19
ATOM     19  O   UNL     1      18.157   6.624  40.153  0.00  0.00    +0.000 OA
ATOM     20  C   UNL     1      19.088   5.635  40.466  0.00  0.00    +0.000 C 
ENDBRANCH  18  19
ENDBRANCH  12  13
ENDBRANCH   4  12
TORSDOF 6
ENDMDL
MODEL 10
REMARK VINA RESULT:      -5.0     17.331     18.549
REMARK  Name = 
REMARK  6 active torsions:
REMARK  status: ('A' for Active; 'I' for Inactive)
REMARK    1  A    between atoms: N_2  and  C_3
REMARK    2  A    between atoms: C_3  and  N_5
REMARK    3  A    between atoms: N_5  and  C_6
REMARK    4  A    between atoms: C_9  and  O_10
REMARK    5  A    between atoms: O_10  and  C_11
REMARK    6  A    between atoms: C_16  and  O_17
REMARK                            x       y       z     vdW  Elec       q    Type
REMARK                         _______ _______ _______ _____ _____    ______ ____
ROOT
ATOM      1  C   UNL     1      24.504  25.840  26.606  0.00  0.00    +0.000 A 
ATOM      2  C   UNL     1      24.996  24.957  27.545  0.00  0.00    +0.000 A 
ATOM      3  C   UNL     1      25.782  23.877  27.202  0.00  0.00    +0.000 A 
ATOM      4  C   UNL     1      26.124  23.615  25.878  0.00  0.00    +0.000 A 
ATOM      5  C   UNL     1      25.629  24.499  24.942  0.00  0.00    +0.000 A 
ATOM      6  C   UNL     1      24.840  25.584  25.293  0.00  0.00    +0.000 A 
ENDROOT
BRANCH   1   7
ATOM      7  N   UNL     1      23.697  26.945  26.988  0.00  0.00    +0.000 NA
BRANCH   7   8
ATOM      8  C   UNL     1      22.408  26.847  27.514  0.00  0.00    +0.000 C 
ATOM      9  S   UNL     1      22.110  27.243  29.047  0.00  0.00    +0.000 S 
BRANCH   8  11
ATOM     10  C   UNL     1      20.825  27.116  25.572  0.00  0.00    +0.000 C 
ATOM     11  N   UNL     1      21.329  26.394  26.709  0.00  0.00    +0.000 NA
ENDBRANCH   8  11
ENDBRANCH   7   8
ENDBRANCH   1   7
BRANCH   4  12
ATOM     12  O   UNL     1      26.914  22.527  25.538  0.00  0.00    +0.000 OA
BRANCH  12  13
ATOM     13  C   UNL     1      28.264  22.713  25.344  0.00  0.00    +0.000 A 
ATOM     14  C   UNL     1      28.754  23.131  24.130  0.00  0.00    +0.000 A 
ATOM     15  C   UNL     1      30.100  23.324  23.903  0.00  0.00    +0.000 A 
ATOM     16  C   UNL     1      30.949  23.078  24.963  0.00  0.00    +0.000 A 
ATOM     17  C   UNL     1      30.487  22.666  26.167  0.00  0.00    +0.000 A 
ATOM     18  C   UNL     1      29.136  22.478  26.372  0.00  0.00    +0.000 A 
BRANCH  18  19
ATOM     19  O   UNL     1      28.712  22.048  27.643  0.00  0.00    +0.000 OA
ATOM     20  C   UNL     1      28.935  22.816  28.785  0.00  0.00    +0.000 C 
ENDBRANCH  18  19
ENDBRANCH  12  13
ENDBRANCH   4  12
TORSDOF 6
ENDMDL
