MODEL 1
REMARK VINA RESULT:      -8.0      0.000      0.000
REMARK  Name = 
REMARK  3 active torsions:
REMARK  status: ('A' for Active; 'I' for Inactive)
REMARK    1  A    between atoms: C_4  and  C_5
REMARK    2  A    between atoms: N_7  and  C_8
REMARK    3  A    between atoms: C_18  and  N_19
REMARK                            x       y       z     vdW  Elec       q    Type
REMARK                         _______ _______ _______ _____ _____    ______ ____
ROOT
ATOM      1  C   UNL     1      16.522  11.831  36.136  0.00  0.00    +0.000 C 
ATOM      2  O   UNL     1      16.986  12.988  35.990  0.00  0.00    +0.000 OA
ATOM      3  N   UNL     1      15.406  11.469  35.336  0.00  0.00    +0.000 NA
ENDROOT
BRANCH   3   4
ATOM      4  C   UNL     1      14.823  12.371  34.401  0.00  0.00    +0.000 A 
ATOM      5  C   UNL     1      14.057  13.415  34.904  0.00  0.00    +0.000 A 
ATOM      6  C   UNL     1      13.488  14.293  34.013  0.00  0.00    +0.000 A 
ATOM      7  C   UNL     1      13.673  14.139  32.667  0.00  0.00    +0.000 A 
ATOM      8  C   UNL     1      14.438  13.101  32.123  0.00  0.00    +0.000 A 
ATOM      9  C   UNL     1      14.643  12.931  30.666  0.00  0.00    +0.000 C 
ATOM     10  C   UNL     1      14.990  12.244  33.052  0.00  0.00    +0.000 A 
ATOM     11  C   UNL     1      15.814  11.115  32.569  0.00  0.00    +0.000 C 
ENDBRANCH   3   4
BRANCH   1  15
ATOM     12  C   UNL     1      16.602   9.474  40.547  0.00  0.00    +0.000 C 
ATOM     13  C   UNL     1      17.168   9.758  39.180  0.00  0.00    +0.000 A 
ATOM     14  C   UNL     1      16.568  10.655  38.327  0.00  0.00    +0.000 A 
ATOM     15  C   UNL     1      17.104  10.897  37.084  0.00  0.00    +0.000 A 
ATOM     16  C   UNL     1      18.232  10.221  36.746  0.00  0.00    +0.000 A 
ATOM     17  C   UNL     1      18.865   9.317  37.566  0.00  0.00    +0.000 A 
ATOM     18  C   UNL     1      18.304   9.084  38.828  0.00  0.00    +0.000 A 
BRANCH  18  19
ATOM     19  N   UNL     1      18.976   8.150  39.645  0.00  0.00    +0.000 N 
ATOM     20  O   UNL     1      18.663   6.957  39.635  0.00  0.00    +0.000 OA
ATOM     21  O   UNL     1      20.000   8.622  40.458  0.00  0.00    +0.000 OA
ENDBRANCH  18  19
ENDBRANCH   1  15
TORSDOF 3
ENDMDL
MODEL 2
REMARK VINA RESULT:      -7.5      1.660      2.738
REMARK  Name = 
REMARK  3 active torsions:
REMARK  status: ('A' for Active; 'I' for Inactive)
REMARK    1  A    between atoms: C_4  and  C_5
REMARK    2  A    between atoms: N_7  and  C_8
REMARK    3  A    between atoms: C_18  and  N_19
REMARK                            x       y       z     vdW  Elec       q    Type
REMARK                         _______ _______ _______ _____ _____    ______ ____
ROOT
ATOM      1  C   UNL     1      16.259  11.500  35.969  0.00  0.00    +0.000 C 
ATOM      2  O   UNL     1      17.169  12.271  35.579  0.00  0.00    +0.000 OA
ATOM      3  N   UNL     1      15.208  11.216  35.058  0.00  0.00    +0.000 NA
ENDROOT
BRANCH   3   4
ATOM      4  C   UNL     1      15.171  11.777  33.750  0.00  0.00    +0.000 A 
ATOM      5  C   UNL     1      15.849  11.104  32.740  0.00  0.00    +0.000 A 
ATOM      6  C   UNL     1      15.823  11.634  31.473  0.00  0.00    +0.000 A 
ATOM      7  C   UNL     1      15.147  12.795  31.216  0.00  0.00    +0.000 A 
ATOM      8  C   UNL     1      14.452  13.500  32.206  0.00  0.00    +0.000 A 
ATOM      9  C   UNL     1      13.717  14.756  31.932  0.00  0.00    +0.000 C 
ATOM     10  C   UNL     1      14.505  12.933  33.462  0.00  0.00    +0.000 A 
ATOM     11  C   UNL     1      13.801  13.611  34.572  0.00  0.00    +0.000 C 
ENDBRANCH   3   4
BRANCH   1  15
ATOM     12  C   UNL     1      18.541   9.086  39.707  0.00  0.00    +0.000 C 
ATOM     13  C   UNL     1      17.344   9.769  39.100  0.00  0.00    +0.000 A 
ATOM     14  C   UNL     1      17.387  10.301  37.832  0.00  0.00    +0.000 A 
ATOM     15  C   UNL     1      16.281  10.919  37.299  0.00  0.00    +0.000 A 
ATOM     16  C   UNL     1      15.164  10.977  38.071  0.00  0.00    +0.000 A 
ATOM     17  C   UNL     1      15.076  10.459  39.341  0.00  0.00    +0.000 A 
ATOM     18  C   UNL     1      16.213   9.833  39.866  0.00  0.00    +0.000 A 
BRANCH  18  19
ATOM     19  N   UNL     1      16.091   9.313  41.173  0.00  0.00    +0.000 N 
ATOM     20  O   UNL     1      16.390   9.993  42.157  0.00  0.00    +0.000 OA
ATOM     21  O   UNL     1      15.623   8.011  41.308  0.00  0.00    +0.000 OA
ENDBRANCH  18  19
ENDBRANCH   1  15
TORSDOF 3
ENDMDL
MODEL 3
REMARK VINA RESULT:      -7.5      0.983      1.738
REMARK  Name = 
REMARK  3 active torsions:
REMARK  status: ('A' for Active; 'I' for Inactive)
REMARK    1  A    between atoms: C_4  and  C_5
REMARK    2  A    between atoms: N_7  and  C_8
REMARK    3  A    between atoms: C_18  and  N_19
REMARK                            x       y       z     vdW  Elec       q    Type
REMARK                         _______ _______ _______ _____ _____    ______ ____
ROOT
ATOM      1  C   UNL     1      16.223  12.012  36.264  0.00  0.00    +0.000 C 
ATOM      2  O   UNL     1      16.936  12.964  35.862  0.00  0.00    +0.000 OA
ATOM      3  N   UNL     1      15.001  11.778  35.581  0.00  0.00    +0.000 NA
ENDROOT
BRANCH   3   4
ATOM      4  C   UNL     1      14.584  12.582  34.483  0.00  0.00    +0.000 A 
ATOM      5  C   UNL     1      13.812  13.704  34.760  0.00  0.00    +0.000 A 
ATOM      6  C   UNL     1      13.403  14.489  33.709  0.00  0.00    +0.000 A 
ATOM      7  C   UNL     1      13.747  14.170  32.425  0.00  0.00    +0.000 A 
ATOM      8  C   UNL     1      14.522  13.049  32.106  0.00  0.00    +0.000 A 
ATOM      9  C   UNL     1      14.899  12.701  30.716  0.00  0.00    +0.000 C 
ATOM     10  C   UNL     1      14.911  12.290  33.190  0.00  0.00    +0.000 A 
ATOM     11  C   UNL     1      15.733  11.085  32.948  0.00  0.00    +0.000 C 
ENDBRANCH   3   4
BRANCH   1  15
ATOM     12  C   UNL     1      19.626   9.360  38.793  0.00  0.00    +0.000 C 
ATOM     13  C   UNL     1      18.236   9.909  38.610  0.00  0.00    +0.000 A 
ATOM     14  C   UNL     1      17.910  10.692  37.527  0.00  0.00    +0.000 A 
ATOM     15  C   UNL     1      16.633  11.181  37.382  0.00  0.00    +0.000 A 
ATOM     16  C   UNL     1      15.727  10.859  38.341  0.00  0.00    +0.000 A 
ATOM     17  C   UNL     1      16.008  10.081  39.438  0.00  0.00    +0.000 A 
ATOM     18  C   UNL     1      17.313   9.592  39.568  0.00  0.00    +0.000 A 
BRANCH  18  19
ATOM     19  N   UNL     1      17.570   8.797  40.706  0.00  0.00    +0.000 N 
ATOM     20  O   UNL     1      17.931   9.308  41.769  0.00  0.00    +0.000 OA
ATOM     21  O   UNL     1      17.402   7.422  40.584  0.00  0.00    +0.000 OA
ENDBRANCH  18  19
ENDBRANCH   1  15
TORSDOF 3
ENDMDL
MODEL 4
REMARK VINA RESULT:      -7.4      2.604      7.684
REMARK  Name = 
REMARK  3 active torsions:
REMARK  status: ('A' for Active; 'I' for Inactive)
REMARK    1  A    between atoms: C_4  and  C_5
REMARK    2  A    between atoms: N_7  and  C_8
REMARK    3  A    between atoms: C_18  and  N_19
REMARK                            x       y       z     vdW  Elec       q    Type
REMARK                         _______ _______ _______ _____ _____    ______ ____
ROOT
ATOM      1  C   UNL     1      16.701  10.407  35.634  0.00  0.00    +0.000 C 
ATOM      2  O   UNL     1      17.082   9.211  35.670  0.00  0.00    +0.000 OA
ATOM      3  N   UNL     1      16.745  11.143  36.847  0.00  0.00    +0.000 NA
ENDROOT
BRANCH   3   4
ATOM      4  C   UNL     1      17.199  10.564  38.066  0.00  0.00    +0.000 A 
ATOM      5  C   UNL     1      18.563  10.338  38.205  0.00  0.00    +0.000 A 
ATOM      6  C   UNL     1      19.015   9.778  39.375  0.00  0.00    +0.000 A 
ATOM      7  C   UNL     1      18.141   9.452  40.375  0.00  0.00    +0.000 A 
ATOM      8  C   UNL     1      16.761   9.664  40.273  0.00  0.00    +0.000 A 
ATOM      9  C   UNL     1      15.811   9.314  41.354  0.00  0.00    +0.000 C 
ATOM     10  C   UNL     1      16.352  10.227  39.082  0.00  0.00    +0.000 A 
ATOM     11  C   UNL     1      14.909  10.487  38.884  0.00  0.00    +0.000 C 
ENDBRANCH   3   4
BRANCH   1  15
ATOM     12  C   UNL     1      13.889  13.669  33.093  0.00  0.00    +0.000 C 
ATOM     13  C   UNL     1      14.906  12.561  33.161  0.00  0.00    +0.000 A 
ATOM     14  C   UNL     1      15.306  12.026  34.364  0.00  0.00    +0.000 A 
ATOM     15  C   UNL     1      16.236  11.014  34.400  0.00  0.00    +0.000 A 
ATOM     16  C   UNL     1      16.731  10.577  33.213  0.00  0.00    +0.000 A 
ATOM     17  C   UNL     1      16.360  11.080  31.990  0.00  0.00    +0.000 A 
ATOM     18  C   UNL     1      15.412  12.110  31.973  0.00  0.00    +0.000 A 
BRANCH  18  19
ATOM     19  N   UNL     1      15.053  12.607  30.701  0.00  0.00    +0.000 N 
ATOM     20  O   UNL     1      14.182  12.053  30.027  0.00  0.00    +0.000 OA
ATOM     21  O   UNL     1      15.715  13.738  30.240  0.00  0.00    +0.000 OA
ENDBRANCH  18  19
ENDBRANCH   1  15
TORSDOF 3
ENDMDL
MODEL 5
REMARK VINA RESULT:      -7.0      2.443      7.575
REMARK  Name = 
REMARK  3 active torsions:
REMARK  status: ('A' for Active; 'I' for Inactive)
REMARK    1  A    between atoms: C_4  and  C_5
REMARK    2  A    between atoms: N_7  and  C_8
REMARK    3  A    between atoms: C_18  and  N_19
REMARK                            x       y       z     vdW  Elec       q    Type
REMARK                         _______ _______ _______ _____ _____    ______ ____
ROOT
ATOM      1  C   UNL     1      16.591  11.507  36.335  0.00  0.00    +0.000 C 
ATOM      2  O   UNL     1      16.661  12.458  37.152  0.00  0.00    +0.000 OA
ATOM      3  N   UNL     1      16.949  10.216  36.803  0.00  0.00    +0.000 NA
ENDROOT
BRANCH   3   4
ATOM      4  C   UNL     1      17.374   9.989  38.143  0.00  0.00    +0.000 A 
ATOM      5  C   UNL     1      16.396   9.933  39.129  0.00  0.00    +0.000 A 
ATOM      6  C   UNL     1      16.792   9.716  40.427  0.00  0.00    +0.000 A 
ATOM      7  C   UNL     1      18.115   9.561  40.736  0.00  0.00    +0.000 A 
ATOM      8  C   UNL     1      19.128   9.612  39.771  0.00  0.00    +0.000 A 
ATOM      9  C   UNL     1      20.562   9.443  40.101  0.00  0.00    +0.000 C 
ATOM     10  C   UNL     1      18.687   9.832  38.483  0.00  0.00    +0.000 A 
ATOM     11  C   UNL     1      19.687   9.902  37.397  0.00  0.00    +0.000 C 
ENDBRANCH   3   4
BRANCH   1  15
ATOM     12  C   UNL     1      13.718  13.725  32.894  0.00  0.00    +0.000 C 
ATOM     13  C   UNL     1      14.802  12.761  33.301  0.00  0.00    +0.000 A 
ATOM     14  C   UNL     1      15.166  12.606  34.619  0.00  0.00    +0.000 A 
ATOM     15  C   UNL     1      16.159  11.720  34.965  0.00  0.00    +0.000 A 
ATOM     16  C   UNL     1      16.750  11.018  33.963  0.00  0.00    +0.000 A 
ATOM     17  C   UNL     1      16.418  11.141  32.635  0.00  0.00    +0.000 A 
ATOM     18  C   UNL     1      15.405  12.049  32.302  0.00  0.00    +0.000 A 
BRANCH  18  19
ATOM     19  N   UNL     1      15.088  12.152  30.931  0.00  0.00    +0.000 N 
ATOM     20  O   UNL     1      14.352  11.327  30.385  0.00  0.00    +0.000 OA
ATOM     21  O   UNL     1      15.634  13.215  30.221  0.00  0.00    +0.000 OA
ENDBRANCH  18  19
ENDBRANCH   1  15
TORSDOF 3
ENDMDL
MODEL 6
REMARK VINA RESULT:      -6.7     21.913     23.699
REMARK  Name = 
REMARK  3 active torsions:
REMARK  status: ('A' for Active; 'I' for Inactive)
REMARK    1  A    between atoms: C_4  and  C_5
REMARK    2  A    between atoms: N_7  and  C_8
REMARK    3  A    between atoms: C_18  and  N_19
REMARK                            x       y       z     vdW  Elec       q    Type
REMARK                         _______ _______ _______ _____ _____    ______ ____
ROOT
ATOM      1  C   UNL     1      22.364  -8.030  24.694  0.00  0.00    +0.000 C 
ATOM      2  O   UNL     1      23.115  -8.763  25.382  0.00  0.00    +0.000 OA
ATOM      3  N   UNL     1      22.877  -7.538  23.465  0.00  0.00    +0.000 NA
ENDROOT
BRANCH   3   4
ATOM      4  C   UNL     1      24.191  -7.853  23.017  0.00  0.00    +0.000 A 
ATOM      5  C   UNL     1      25.236  -7.054  23.466  0.00  0.00    +0.000 A 
ATOM      6  C   UNL     1      26.509  -7.346  23.040  0.00  0.00    +0.000 A 
ATOM      7  C   UNL     1      26.738  -8.396  22.195  0.00  0.00    +0.000 A 
ATOM      8  C   UNL     1      25.713  -9.223  21.721  0.00  0.00    +0.000 A 
ATOM      9  C   UNL     1      25.956 -10.363  20.807  0.00  0.00    +0.000 C 
ATOM     10  C   UNL     1      24.452  -8.894  22.173  0.00  0.00    +0.000 A 
ATOM     11  C   UNL     1      23.306  -9.713  21.723  0.00  0.00    +0.000 C 
ENDBRANCH   3   4
BRANCH   1  15
ATOM     12  C   UNL     1      18.943  -4.830  26.446  0.00  0.00    +0.000 C 
ATOM     13  C   UNL     1      19.367  -6.195  25.972  0.00  0.00    +0.000 A 
ATOM     14  C   UNL     1      20.658  -6.444  25.565  0.00  0.00    +0.000 A 
ATOM     15  C   UNL     1      21.021  -7.699  25.136  0.00  0.00    +0.000 A 
ATOM     16  C   UNL     1      20.062  -8.662  25.134  0.00  0.00    +0.000 A 
ATOM     17  C   UNL     1      18.763  -8.458  25.531  0.00  0.00    +0.000 A 
ATOM     18  C   UNL     1      18.412  -7.173  25.965  0.00  0.00    +0.000 A 
BRANCH  18  19
ATOM     19  N   UNL     1      17.070  -6.996  26.365  0.00  0.00    +0.000 N 
ATOM     20  O   UNL     1      16.794  -6.447  27.435  0.00  0.00    +0.000 OA
ATOM     21  O   UNL     1      16.075  -7.459  25.512  0.00  0.00    +0.000 OA
ENDBRANCH  18  19
ENDBRANCH   1  15
TORSDOF 3
ENDMDL
MODEL 7
REMARK VINA RESULT:      -6.5     19.159     21.474
REMARK  Name = 
REMARK  3 active torsions:
REMARK  status: ('A' for Active; 'I' for Inactive)
REMARK    1  A    between atoms: C_4  and  C_5
REMARK    2  A    between atoms: N_7  and  C_8
REMARK    3  A    between atoms: C_18  and  N_19
REMARK                            x       y       z     vdW  Elec       q    Type
REMARK                         _______ _______ _______ _____ _____    ______ ____
ROOT
ATOM      1  C   UNL     1      32.810  -1.044  35.086  0.00  0.00    +0.000 C 
ATOM      2  O   UNL     1      31.853  -0.608  35.770  0.00  0.00    +0.000 OA
ATOM      3  N   UNL     1      33.912  -0.173  34.876  0.00  0.00    +0.000 NA
ENDROOT
BRANCH   3   4
ATOM      4  C   UNL     1      33.945   1.145  35.412  0.00  0.00    +0.000 A 
ATOM      5  C   UNL     1      34.124   1.280  36.783  0.00  0.00    +0.000 A 
ATOM      6  C   UNL     1      34.157   2.547  37.314  0.00  0.00    +0.000 A 
ATOM      7  C   UNL     1      34.016   3.644  36.511  0.00  0.00    +0.000 A 
ATOM      8  C   UNL     1      33.834   3.549  35.126  0.00  0.00    +0.000 A 
ATOM      9  C   UNL     1      33.682   4.735  34.251  0.00  0.00    +0.000 C 
ATOM     10  C   UNL     1      33.807   2.260  34.636  0.00  0.00    +0.000 A 
ATOM     11  C   UNL     1      33.618   2.062  33.183  0.00  0.00    +0.000 C 
ENDBRANCH   3   4
BRANCH   1  15
ATOM     12  C   UNL     1      31.273  -5.802  35.062  0.00  0.00    +0.000 C 
ATOM     13  C   UNL     1      32.078  -4.662  34.496  0.00  0.00    +0.000 A 
ATOM     14  C   UNL     1      32.050  -3.411  35.067  0.00  0.00    +0.000 A 
ATOM     15  C   UNL     1      32.794  -2.386  34.532  0.00  0.00    +0.000 A 
ATOM     16  C   UNL     1      33.544  -2.664  33.434  0.00  0.00    +0.000 A 
ATOM     17  C   UNL     1      33.602  -3.897  32.831  0.00  0.00    +0.000 A 
ATOM     18  C   UNL     1      32.837  -4.928  33.390  0.00  0.00    +0.000 A 
BRANCH  18  19
ATOM     19  N   UNL     1      32.917  -6.182  32.747  0.00  0.00    +0.000 N 
ATOM     20  O   UNL     1      33.764  -7.014  33.083  0.00  0.00    +0.000 OA
ATOM     21  O   UNL     1      32.010  -6.444  31.727  0.00  0.00    +0.000 OA
ENDBRANCH  18  19
ENDBRANCH   1  15
TORSDOF 3
ENDMDL
MODEL 8
REMARK VINA RESULT:      -6.5      1.308      2.371
REMARK  Name = 
REMARK  3 active torsions:
REMARK  status: ('A' for Active; 'I' for Inactive)
REMARK    1  A    between atoms: C_4  and  C_5
REMARK    2  A    between atoms: N_7  and  C_8
REMARK    3  A    between atoms: C_18  and  N_19
REMARK                            x       y       z     vdW  Elec       q    Type
REMARK                         _______ _______ _______ _____ _____    ______ ____
ROOT
ATOM      1  C   UNL     1      17.160  10.782  37.139  0.00  0.00    +0.000 C 
ATOM      2  O   UNL     1      17.839  11.785  36.810  0.00  0.00    +0.000 OA
ATOM      3  N   UNL     1      16.045  10.452  36.325  0.00  0.00    +0.000 NA
ENDROOT
BRANCH   3   4
ATOM      4  C   UNL     1      15.696  11.219  35.177  0.00  0.00    +0.000 A 
ATOM      5  C   UNL     1      16.282  10.873  33.966  0.00  0.00    +0.000 A 
ATOM      6  C   UNL     1      15.954  11.606  32.851  0.00  0.00    +0.000 A 
ATOM      7  C   UNL     1      15.074  12.648  32.935  0.00  0.00    +0.000 A 
ATOM      8  C   UNL     1      14.462  13.027  34.136  0.00  0.00    +0.000 A 
ATOM      9  C   UNL     1      13.506  14.154  34.232  0.00  0.00    +0.000 C 
ATOM     10  C   UNL     1      14.820  12.265  35.229  0.00  0.00    +0.000 A 
ATOM     11  C   UNL     1      14.224  12.593  36.542  0.00  0.00    +0.000 C 
ENDBRANCH   3   4
BRANCH   1  15
ATOM     12  C   UNL     1      16.369   9.234  41.828  0.00  0.00    +0.000 C 
ATOM     13  C   UNL     1      17.150   9.231  40.541  0.00  0.00    +0.000 A 
ATOM     14  C   UNL     1      16.773  10.008  39.470  0.00  0.00    +0.000 A 
ATOM     15  C   UNL     1      17.503   9.987  38.305  0.00  0.00    +0.000 A 
ATOM     16  C   UNL     1      18.594   9.179  38.264  0.00  0.00    +0.000 A 
ATOM     17  C   UNL     1      19.008   8.387  39.308  0.00  0.00    +0.000 A 
ATOM     18  C   UNL     1      18.251   8.422  40.486  0.00  0.00    +0.000 A 
BRANCH  18  19
ATOM     19  N   UNL     1      18.701   7.597  41.540  0.00  0.00    +0.000 N 
ATOM     20  O   UNL     1      18.320   6.428  41.638  0.00  0.00    +0.000 OA
ATOM     21  O   UNL     1      19.586   8.148  42.459  0.00  0.00    +0.000 OA
ENDBRANCH  18  19
ENDBRANCH   1  15
TORSDOF 3
ENDMDL
MODEL 9
REMARK VINA RESULT:      -6.5     19.770     22.057
REMARK  Name = 
REMARK  3 active torsions:
REMARK  status: ('A' for Active; 'I' for Inactive)
REMARK    1  A    between atoms: C_4  and  C_5
REMARK    2  A    between atoms: N_7  and  C_8
REMARK    3  A    between atoms: C_18  and  N_19
REMARK                            x       y       z     vdW  Elec       q    Type
REMARK                         _______ _______ _______ _____ _____    ______ ____
ROOT
ATOM      1  C   UNL     1      30.753  22.311  27.024  0.00  0.00    +0.000 C 
ATOM      2  O   UNL     1      30.533  21.092  27.222  0.00  0.00    +0.000 OA
ATOM      3  N   UNL     1      31.403  23.034  28.058  0.00  0.00    +0.000 NA
ENDROOT
BRANCH   3   4
ATOM      4  C   UNL     1      31.795  22.416  29.280  0.00  0.00    +0.000 A 
ATOM      5  C   UNL     1      33.085  21.905  29.360  0.00  0.00    +0.000 A 
ATOM      6  C   UNL     1      33.476  21.305  30.532  0.00  0.00    +0.000 A 
ATOM      7  C   UNL     1      32.615  21.213  31.590  0.00  0.00    +0.000 A 
ATOM      8  C   UNL     1      31.309  21.716  31.548  0.00  0.00    +0.000 A 
ATOM      9  C   UNL     1      30.373  21.621  32.692  0.00  0.00    +0.000 C 
ATOM     10  C   UNL     1      30.958  22.309  30.353  0.00  0.00    +0.000 A 
ATOM     11  C   UNL     1      29.596  22.868  30.216  0.00  0.00    +0.000 C 
ENDBRANCH   3   4
BRANCH   1  15
ATOM     12  C   UNL     1      27.413  23.407  23.467  0.00  0.00    +0.000 C 
ATOM     13  C   UNL     1      28.789  23.498  24.072  0.00  0.00    +0.000 A 
ATOM     14  C   UNL     1      29.098  22.861  25.252  0.00  0.00    +0.000 A 
ATOM     15  C   UNL     1      30.362  22.958  25.784  0.00  0.00    +0.000 A 
ATOM     16  C   UNL     1      31.273  23.699  25.101  0.00  0.00    +0.000 A 
ATOM     17  C   UNL     1      31.009  24.351  23.921  0.00  0.00    +0.000 A 
ATOM     18  C   UNL     1      29.716  24.240  23.395  0.00  0.00    +0.000 A 
BRANCH  18  19
ATOM     19  N   UNL     1      29.476  24.922  22.182  0.00  0.00    +0.000 N 
ATOM     20  O   UNL     1      29.083  26.091  22.179  0.00  0.00    +0.000 OA
ATOM     21  O   UNL     1      29.700  24.231  20.998  0.00  0.00    +0.000 OA
ENDBRANCH  18  19
ENDBRANCH   1  15
TORSDOF 3
ENDMDL
MODEL 10
REMARK VINA RESULT:      -6.4     19.309     21.499
REMARK  Name = 
REMARK  3 active torsions:
REMARK  status: ('A' for Active; 'I' for Inactive)
REMARK    1  A    between atoms: C_4  and  C_5
REMARK    2  A    between atoms: N_7  and  C_8
REMARK    3  A    between atoms: C_18  and  N_19
REMARK                            x       y       z     vdW  Elec       q    Type
REMARK                         _______ _______ _______ _____ _____    ______ ____
ROOT
ATOM      1  C   UNL     1      32.698  -0.819  34.551  0.00  0.00    +0.000 C 
ATOM      2  O   UNL     1      31.647  -0.234  34.910  0.00  0.00    +0.000 OA
ATOM      3  N   UNL     1      33.841  -0.014  34.300  0.00  0.00    +0.000 NA
ENDROOT
BRANCH   3   4
ATOM      4  C   UNL     1      33.813   1.402  34.445  0.00  0.00    +0.000 A 
ATOM      5  C   UNL     1      33.566   2.162  33.308  0.00  0.00    +0.000 A 
ATOM      6  C   UNL     1      33.537   3.530  33.432  0.00  0.00    +0.000 A 
ATOM      7  C   UNL     1      33.747   4.125  34.646  0.00  0.00    +0.000 A 
ATOM      8  C   UNL     1      33.998   3.394  35.813  0.00  0.00    +0.000 A 
ATOM      9  C   UNL     1      34.223   4.033  37.129  0.00  0.00    +0.000 C 
ATOM     10  C   UNL     1      34.018   2.025  35.642  0.00  0.00    +0.000 A 
ATOM     11  C   UNL     1      34.278   1.171  36.821  0.00  0.00    +0.000 C 
ENDBRANCH   3   4
BRANCH   1  15
ATOM     12  C   UNL     1      34.196  -4.977  32.211  0.00  0.00    +0.000 C 
ATOM     13  C   UNL     1      33.445  -4.263  33.303  0.00  0.00    +0.000 A 
ATOM     14  C   UNL     1      33.439  -2.890  33.392  0.00  0.00    +0.000 A 
ATOM     15  C   UNL     1      32.745  -2.262  34.400  0.00  0.00    +0.000 A 
ATOM     16  C   UNL     1      32.078  -3.047  35.285  0.00  0.00    +0.000 A 
ATOM     17  C   UNL     1      32.055  -4.420  35.234  0.00  0.00    +0.000 A 
ATOM     18  C   UNL     1      32.768  -5.042  34.201  0.00  0.00    +0.000 A 
BRANCH  18  19
ATOM     19  N   UNL     1      32.726  -6.453  34.177  0.00  0.00    +0.000 N 
ATOM     20  O   UNL     1      31.836  -7.051  33.567  0.00  0.00    +0.000 OA
ATOM     21  O   UNL     1      33.722  -7.140  34.862  0.00  0.00    +0.000 OA
ENDBRANCH  18  19
ENDBRANCH   1  15
TORSDOF 3
ENDMDL
