MODEL 1
REMARK VINA RESULT:      -8.1      0.000      0.000
REMARK  Name = 
REMARK  7 active torsions:
REMARK  status: ('A' for Active; 'I' for Inactive)
REMARK    1  A    between atoms: C_2  and  C_5
REMARK    2  A    between atoms: C_8  and  O_9
REMARK    3  A    between atoms: O_9  and  C_10
REMARK    4  A    between atoms: C_10  and  C_11
REMARK    5  A    between atoms: C_14  and  C_15
REMARK    6  A    between atoms: N_17  and  N_18
REMARK    7  A    between atoms: N_18  and  C_19
REMARK                            x       y       z     vdW  Elec       q    Type
REMARK                         _______ _______ _______ _____ _____    ______ ____
ROOT
ATOM      1  C   UNL     1      41.558   6.967  19.345  0.00  0.00    +0.000 A 
ATOM      2  C   UNL     1      41.711   6.719  17.980  0.00  0.00    +0.000 A 
ATOM      3  C   UNL     1      40.730   6.085  17.238  0.00  0.00    +0.000 A 
ATOM      4  C   UNL     1      39.536   5.656  17.794  0.00  0.00    +0.000 A 
ATOM      5  C   UNL     1      39.381   5.890  19.145  0.00  0.00    +0.000 A 
ATOM      6  C   UNL     1      40.357   6.522  19.891  0.00  0.00    +0.000 A 
ENDROOT
BRANCH   4   7
ATOM      7  C   UNL     1      38.448   5.078  17.014  0.00  0.00    +0.000 C 
ATOM      8  O   UNL     1      37.958   5.732  16.066  0.00  0.00    +0.000 OA
ATOM      9  N   UNL     1      37.901   3.839  17.254  0.00  0.00    +0.000 NA
BRANCH   9  10
ATOM     10  N   UNL     1      37.195   2.873  17.137  0.00  0.00    +0.000 NA
BRANCH  10  11
ATOM     11  C   UNL     1      36.309   1.846  17.030  0.00  0.00    +0.000 C 
ATOM     12  C   UNL     1      35.998   0.883  17.875  0.00  0.00    +0.000 C 
ATOM     13  C   UNL     1      35.611  -0.205  18.765  0.00  0.00    +0.000 C 
ATOM     14  C   UNL     1      35.116  -1.221  18.032  0.00  0.00    +0.000 C 
ATOM     15  C   UNL     1      35.149  -0.817  16.563  0.00  0.00    +0.000 C 
ATOM     16  C   UNL     1      34.687   0.741  16.910  0.00  0.00    +0.000 C 
ATOM     17  C   UNL     1      35.531   1.446  15.772  0.00  0.00    +0.000 C 
ENDBRANCH  10  11
ENDBRANCH   9  10
ENDBRANCH   4   7
BRANCH   1  18
ATOM     18  C   UNL     1      42.517   7.741  20.127  0.00  0.00    +0.000 C 
BRANCH  18  19
ATOM     19  O   UNL     1      43.292   7.255  21.075  0.00  0.00    +0.000 OA
BRANCH  19  23
ATOM     20  C   UNL     1      46.204   4.383  21.174  0.00  0.00    +0.000 A 
ATOM     21  C   UNL     1      46.346   5.431  20.259  0.00  0.00    +0.000 A 
ATOM     22  C   UNL     1      45.376   6.378  20.246  0.00  0.00    +0.000 A 
ATOM     23  C   UNL     1      44.295   6.333  21.080  0.00  0.00    +0.000 A 
ATOM     24  C   UNL     1      44.158   5.268  22.008  0.00  0.00    +0.000 A 
ATOM     25  C   UNL     1      45.140   4.325  22.009  0.00  0.00    +0.000 A 
BRANCH  20  27
ATOM     26  C   UNL     1      48.472   3.915  20.416  0.00  0.00    +0.000 C 
ATOM     27  C   UNL     1      47.251   3.334  21.175  0.00  0.00    +0.000 C 
ATOM     28  C   UNL     1      47.707   3.131  22.594  0.00  0.00    +0.000 C 
ATOM     29  C   UNL     1      46.779   2.075  20.515  0.00  0.00    +0.000 C 
ENDBRANCH  20  27
ENDBRANCH  19  23
ENDBRANCH  18  19
ENDBRANCH   1  18
TORSDOF 7
ENDMDL
MODEL 2
REMARK VINA RESULT:      -7.9      2.231     10.148
REMARK  Name = 
REMARK  7 active torsions:
REMARK  status: ('A' for Active; 'I' for Inactive)
REMARK    1  A    between atoms: C_2  and  C_5
REMARK    2  A    between atoms: C_8  and  O_9
REMARK    3  A    between atoms: O_9  and  C_10
REMARK    4  A    between atoms: C_10  and  C_11
REMARK    5  A    between atoms: C_14  and  C_15
REMARK    6  A    between atoms: N_17  and  N_18
REMARK    7  A    between atoms: N_18  and  C_19
REMARK                            x       y       z     vdW  Elec       q    Type
REMARK                         _______ _______ _______ _____ _____    ______ ____
ROOT
ATOM      1  C   UNL     1      38.777   4.693  16.282  0.00  0.00    +0.000 A 
ATOM      2  C   UNL     1      39.896   5.522  16.188  0.00  0.00    +0.000 A 
ATOM      3  C   UNL     1      40.457   6.122  17.302  0.00  0.00    +0.000 A 
ATOM      4  C   UNL     1      39.950   5.943  18.579  0.00  0.00    +0.000 A 
ATOM      5  C   UNL     1      38.838   5.131  18.679  0.00  0.00    +0.000 A 
ATOM      6  C   UNL     1      38.274   4.530  17.569  0.00  0.00    +0.000 A 
ENDROOT
BRANCH   4   7
ATOM      7  C   UNL     1      40.583   6.481  19.778  0.00  0.00    +0.000 C 
ATOM      8  O   UNL     1      39.989   7.359  20.443  0.00  0.00    +0.000 OA
ATOM      9  N   UNL     1      41.820   6.091  20.237  0.00  0.00    +0.000 NA
BRANCH   9  10
ATOM     10  N   UNL     1      42.800   6.029  20.930  0.00  0.00    +0.000 NA
BRANCH  10  11
ATOM     11  C   UNL     1      43.840   5.966  21.805  0.00  0.00    +0.000 C 
ATOM     12  C   UNL     1      44.903   5.186  21.827  0.00  0.00    +0.000 C 
ATOM     13  C   UNL     1      46.099   4.355  21.905  0.00  0.00    +0.000 C 
ATOM     14  C   UNL     1      46.520   4.309  23.184  0.00  0.00    +0.000 C 
ATOM     15  C   UNL     1      45.581   5.156  24.034  0.00  0.00    +0.000 C 
ATOM     16  C   UNL     1      45.462   6.324  22.858  0.00  0.00    +0.000 C 
ATOM     17  C   UNL     1      43.954   6.717  23.135  0.00  0.00    +0.000 C 
ENDBRANCH  10  11
ENDBRANCH   9  10
ENDBRANCH   4   7
BRANCH   1  18
ATOM     18  C   UNL     1      38.238   3.950  15.147  0.00  0.00    +0.000 C 
BRANCH  18  19
ATOM     19  O   UNL     1      37.047   3.390  15.103  0.00  0.00    +0.000 OA
BRANCH  19  23
ATOM     20  C   UNL     1      35.724  -0.270  16.364  0.00  0.00    +0.000 A 
ATOM     21  C   UNL     1      35.075   0.868  16.855  0.00  0.00    +0.000 A 
ATOM     22  C   UNL     1      35.522   2.072  16.419  0.00  0.00    +0.000 A 
ATOM     23  C   UNL     1      36.560   2.195  15.540  0.00  0.00    +0.000 A 
ATOM     24  C   UNL     1      37.212   1.037  15.045  0.00  0.00    +0.000 A 
ATOM     25  C   UNL     1      36.752  -0.165  15.491  0.00  0.00    +0.000 A 
BRANCH  20  27
ATOM     26  C   UNL     1      35.316  -2.565  15.655  0.00  0.00    +0.000 C 
ATOM     27  C   UNL     1      35.254  -1.587  16.856  0.00  0.00    +0.000 C 
ATOM     28  C   UNL     1      36.257  -2.097  17.855  0.00  0.00    +0.000 C 
ATOM     29  C   UNL     1      33.858  -1.514  17.397  0.00  0.00    +0.000 C 
ENDBRANCH  20  27
ENDBRANCH  19  23
ENDBRANCH  18  19
ENDBRANCH   1  18
TORSDOF 7
ENDMDL
MODEL 3
REMARK VINA RESULT:      -7.9      5.426      9.738
REMARK  Name = 
REMARK  7 active torsions:
REMARK  status: ('A' for Active; 'I' for Inactive)
REMARK    1  A    between atoms: C_2  and  C_5
REMARK    2  A    between atoms: C_8  and  O_9
REMARK    3  A    between atoms: O_9  and  C_10
REMARK    4  A    between atoms: C_10  and  C_11
REMARK    5  A    between atoms: C_14  and  C_15
REMARK    6  A    between atoms: N_17  and  N_18
REMARK    7  A    between atoms: N_18  and  C_19
REMARK                            x       y       z     vdW  Elec       q    Type
REMARK                         _______ _______ _______ _____ _____    ______ ____
ROOT
ATOM      1  C   UNL     1      44.902   6.866  21.841  0.00  0.00    +0.000 A 
ATOM      2  C   UNL     1      45.307   5.558  22.113  0.00  0.00    +0.000 A 
ATOM      3  C   UNL     1      45.167   4.995  23.370  0.00  0.00    +0.000 A 
ATOM      4  C   UNL     1      44.619   5.687  24.438  0.00  0.00    +0.000 A 
ATOM      5  C   UNL     1      44.225   6.984  24.179  0.00  0.00    +0.000 A 
ATOM      6  C   UNL     1      44.362   7.550  22.926  0.00  0.00    +0.000 A 
ENDROOT
BRANCH   4   7
ATOM      7  C   UNL     1      44.369   5.083  25.743  0.00  0.00    +0.000 C 
ATOM      8  O   UNL     1      45.217   4.303  26.230  0.00  0.00    +0.000 OA
ATOM      9  N   UNL     1      43.236   5.308  26.490  0.00  0.00    +0.000 NA
BRANCH   9  10
ATOM     10  N   UNL     1      42.451   5.246  27.398  0.00  0.00    +0.000 NA
BRANCH  10  11
ATOM     11  C   UNL     1      41.504   5.101  28.363  0.00  0.00    +0.000 C 
ATOM     12  C   UNL     1      40.554   5.919  28.771  0.00  0.00    +0.000 C 
ATOM     13  C   UNL     1      39.484   6.779  29.265  0.00  0.00    +0.000 C 
ATOM     14  C   UNL     1      39.180   6.422  30.529  0.00  0.00    +0.000 C 
ATOM     15  C   UNL     1      40.071   5.253  30.929  0.00  0.00    +0.000 C 
ATOM     16  C   UNL     1      39.943   4.553  29.427  0.00  0.00    +0.000 C 
ATOM     17  C   UNL     1      41.406   3.952  29.373  0.00  0.00    +0.000 C 
ENDBRANCH  10  11
ENDBRANCH   9  10
ENDBRANCH   4   7
BRANCH   1  18
ATOM     18  C   UNL     1      44.922   7.444  20.501  0.00  0.00    +0.000 C 
BRANCH  18  19
ATOM     19  O   UNL     1      44.393   6.893  19.428  0.00  0.00    +0.000 OA
BRANCH  19  23
ATOM     20  C   UNL     1      40.488   6.282  18.374  0.00  0.00    +0.000 A 
ATOM     21  C   UNL     1      41.426   6.448  17.350  0.00  0.00    +0.000 A 
ATOM     22  C   UNL     1      42.716   6.641  17.719  0.00  0.00    +0.000 A 
ATOM     23  C   UNL     1      43.110   6.677  19.026  0.00  0.00    +0.000 A 
ATOM     24  C   UNL     1      42.152   6.506  20.060  0.00  0.00    +0.000 A 
ATOM     25  C   UNL     1      40.861   6.313  19.674  0.00  0.00    +0.000 A 
BRANCH  20  27
ATOM     26  C   UNL     1      39.033   6.121  16.426  0.00  0.00    +0.000 C 
ATOM     27  C   UNL     1      39.072   6.094  17.976  0.00  0.00    +0.000 C 
ATOM     28  C   UNL     1      38.656   4.704  18.373  0.00  0.00    +0.000 C 
ATOM     29  C   UNL     1      38.188   7.165  18.537  0.00  0.00    +0.000 C 
ENDBRANCH  20  27
ENDBRANCH  19  23
ENDBRANCH  18  19
ENDBRANCH   1  18
TORSDOF 7
ENDMDL
MODEL 4
REMARK VINA RESULT:      -7.8      4.519      9.554
REMARK  Name = 
REMARK  7 active torsions:
REMARK  status: ('A' for Active; 'I' for Inactive)
REMARK    1  A    between atoms: C_2  and  C_5
REMARK    2  A    between atoms: C_8  and  O_9
REMARK    3  A    between atoms: O_9  and  C_10
REMARK    4  A    between atoms: C_10  and  C_11
REMARK    5  A    between atoms: C_14  and  C_15
REMARK    6  A    between atoms: N_17  and  N_18
REMARK    7  A    between atoms: N_18  and  C_19
REMARK                            x       y       z     vdW  Elec       q    Type
REMARK                         _______ _______ _______ _____ _____    ______ ____
ROOT
ATOM      1  C   UNL     1      35.953  -1.374  15.547  0.00  0.00    +0.000 A 
ATOM      2  C   UNL     1      36.498  -0.471  14.633  0.00  0.00    +0.000 A 
ATOM      3  C   UNL     1      36.560   0.887  14.896  0.00  0.00    +0.000 A 
ATOM      4  C   UNL     1      36.088   1.439  16.075  0.00  0.00    +0.000 A 
ATOM      5  C   UNL     1      35.540   0.553  16.980  0.00  0.00    +0.000 A 
ATOM      6  C   UNL     1      35.476  -0.803  16.723  0.00  0.00    +0.000 A 
ENDROOT
BRANCH   4   7
ATOM      7  C   UNL     1      36.234   2.850  16.417  0.00  0.00    +0.000 C 
ATOM      8  O   UNL     1      35.245   3.610  16.319  0.00  0.00    +0.000 OA
ATOM      9  N   UNL     1      37.411   3.422  16.841  0.00  0.00    +0.000 NA
BRANCH   9  10
ATOM     10  N   UNL     1      38.190   4.255  17.223  0.00  0.00    +0.000 NA
BRANCH  10  11
ATOM     11  C   UNL     1      39.120   5.190  17.554  0.00  0.00    +0.000 C 
ATOM     12  C   UNL     1      39.318   5.851  18.677  0.00  0.00    +0.000 C 
ATOM     13  C   UNL     1      39.588   6.612  19.892  0.00  0.00    +0.000 C 
ATOM     14  C   UNL     1      40.241   7.745  19.567  0.00  0.00    +0.000 C 
ATOM     15  C   UNL     1      40.446   7.769  18.057  0.00  0.00    +0.000 C 
ATOM     16  C   UNL     1      40.780   6.141  18.008  0.00  0.00    +0.000 C 
ATOM     17  C   UNL     1      40.118   5.855  16.600  0.00  0.00    +0.000 C 
ENDBRANCH  10  11
ENDBRANCH   9  10
ENDBRANCH   4   7
BRANCH   1  18
ATOM     18  C   UNL     1      35.986  -2.820  15.354  0.00  0.00    +0.000 C 
BRANCH  18  19
ATOM     19  O   UNL     1      37.055  -3.520  15.034  0.00  0.00    +0.000 OA
BRANCH  19  23
ATOM     20  C   UNL     1      40.788  -2.444  13.752  0.00  0.00    +0.000 A 
ATOM     21  C   UNL     1      40.582  -2.586  15.128  0.00  0.00    +0.000 A 
ATOM     22  C   UNL     1      39.341  -2.951  15.534  0.00  0.00    +0.000 A 
ATOM     23  C   UNL     1      38.318  -3.176  14.657  0.00  0.00    +0.000 A 
ATOM     24  C   UNL     1      38.534  -3.032  13.262  0.00  0.00    +0.000 A 
ATOM     25  C   UNL     1      39.786  -2.665  12.870  0.00  0.00    +0.000 A 
BRANCH  20  27
ATOM     26  C   UNL     1      42.738  -3.206  12.506  0.00  0.00    +0.000 C 
ATOM     27  C   UNL     1      42.137  -2.022  13.306  0.00  0.00    +0.000 C 
ATOM     28  C   UNL     1      41.971  -0.899  12.318  0.00  0.00    +0.000 C 
ATOM     29  C   UNL     1      43.022  -1.672  14.463  0.00  0.00    +0.000 C 
ENDBRANCH  20  27
ENDBRANCH  19  23
ENDBRANCH  18  19
ENDBRANCH   1  18
TORSDOF 7
ENDMDL
MODEL 5
REMARK VINA RESULT:      -7.7     24.916     29.711
REMARK  Name = 
REMARK  7 active torsions:
REMARK  status: ('A' for Active; 'I' for Inactive)
REMARK    1  A    between atoms: C_2  and  C_5
REMARK    2  A    between atoms: C_8  and  O_9
REMARK    3  A    between atoms: O_9  and  C_10
REMARK    4  A    between atoms: C_10  and  C_11
REMARK    5  A    between atoms: C_14  and  C_15
REMARK    6  A    between atoms: N_17  and  N_18
REMARK    7  A    between atoms: N_18  and  C_19
REMARK                            x       y       z     vdW  Elec       q    Type
REMARK                         _______ _______ _______ _____ _____    ______ ____
ROOT
ATOM      1  C   UNL     1      13.450   0.319  26.801  0.00  0.00    +0.000 A 
ATOM      2  C   UNL     1      13.395   1.604  27.344  0.00  0.00    +0.000 A 
ATOM      3  C   UNL     1      12.253   2.383  27.264  0.00  0.00    +0.000 A 
ATOM      4  C   UNL     1      11.095   1.945  26.644  0.00  0.00    +0.000 A 
ATOM      5  C   UNL     1      11.144   0.679  26.097  0.00  0.00    +0.000 A 
ATOM      6  C   UNL     1      12.281  -0.103  26.174  0.00  0.00    +0.000 A 
ENDROOT
BRANCH   4   7
ATOM      7  C   UNL     1       9.850   2.706  26.636  0.00  0.00    +0.000 C 
ATOM      8  O   UNL     1       9.823   3.842  27.159  0.00  0.00    +0.000 OA
ATOM      9  N   UNL     1       8.673   2.251  26.089  0.00  0.00    +0.000 NA
BRANCH   9  10
ATOM     10  N   UNL     1       7.522   2.229  25.743  0.00  0.00    +0.000 NA
BRANCH  10  11
ATOM     11  C   UNL     1       6.223   2.316  25.347  0.00  0.00    +0.000 C 
ATOM     12  C   UNL     1       5.642   1.979  24.213  0.00  0.00    +0.000 C 
ATOM     13  C   UNL     1       4.942   1.625  22.983  0.00  0.00    +0.000 C 
ATOM     14  C   UNL     1       3.821   2.365  22.885  0.00  0.00    +0.000 C 
ATOM     15  C   UNL     1       3.729   3.268  24.110  0.00  0.00    +0.000 C 
ATOM     16  C   UNL     1       4.286   2.070  25.119  0.00  0.00    +0.000 C 
ATOM     17  C   UNL     1       5.088   3.013  26.105  0.00  0.00    +0.000 C 
ENDBRANCH  10  11
ENDBRANCH   9  10
ENDBRANCH   4   7
BRANCH   1  18
ATOM     18  C   UNL     1      14.593  -0.571  26.976  0.00  0.00    +0.000 C 
BRANCH  18  19
ATOM     19  O   UNL     1      15.833  -0.183  27.194  0.00  0.00    +0.000 OA
BRANCH  19  23
ATOM     20  C   UNL     1      19.092   0.115  24.740  0.00  0.00    +0.000 A 
ATOM     21  C   UNL     1      18.382   1.284  25.033  0.00  0.00    +0.000 A 
ATOM     22  C   UNL     1      17.310   1.167  25.855  0.00  0.00    +0.000 A 
ATOM     23  C   UNL     1      16.918  -0.029  26.386  0.00  0.00    +0.000 A 
ATOM     24  C   UNL     1      17.644  -1.211  26.085  0.00  0.00    +0.000 A 
ATOM     25  C   UNL     1      18.718  -1.078  25.259  0.00  0.00    +0.000 A 
BRANCH  20  27
ATOM     26  C   UNL     1      20.334  -1.093  23.026  0.00  0.00    +0.000 C 
ATOM     27  C   UNL     1      20.251   0.235  23.823  0.00  0.00    +0.000 C 
ATOM     28  C   UNL     1      19.936   1.302  22.811  0.00  0.00    +0.000 C 
ATOM     29  C   UNL     1      21.528   0.477  24.568  0.00  0.00    +0.000 C 
ENDBRANCH  20  27
ENDBRANCH  19  23
ENDBRANCH  18  19
ENDBRANCH   1  18
TORSDOF 7
ENDMDL
MODEL 6
REMARK VINA RESULT:      -7.7      1.807      2.752
REMARK  Name = 
REMARK  7 active torsions:
REMARK  status: ('A' for Active; 'I' for Inactive)
REMARK    1  A    between atoms: C_2  and  C_5
REMARK    2  A    between atoms: C_8  and  O_9
REMARK    3  A    between atoms: O_9  and  C_10
REMARK    4  A    between atoms: C_10  and  C_11
REMARK    5  A    between atoms: C_14  and  C_15
REMARK    6  A    between atoms: N_17  and  N_18
REMARK    7  A    between atoms: N_18  and  C_19
REMARK                            x       y       z     vdW  Elec       q    Type
REMARK                         _______ _______ _______ _____ _____    ______ ____
ROOT
ATOM      1  C   UNL     1      41.903   6.576  18.919  0.00  0.00    +0.000 A 
ATOM      2  C   UNL     1      40.754   6.213  19.623  0.00  0.00    +0.000 A 
ATOM      3  C   UNL     1      39.609   5.776  18.978  0.00  0.00    +0.000 A 
ATOM      4  C   UNL     1      39.526   5.669  17.600  0.00  0.00    +0.000 A 
ATOM      5  C   UNL     1      40.655   6.035  16.896  0.00  0.00    +0.000 A 
ATOM      6  C   UNL     1      41.800   6.472  17.534  0.00  0.00    +0.000 A 
ENDROOT
BRANCH   4   7
ATOM      7  C   UNL     1      38.368   5.116  16.905  0.00  0.00    +0.000 C 
ATOM      8  O   UNL     1      37.856   5.758  15.960  0.00  0.00    +0.000 OA
ATOM      9  N   UNL     1      37.778   3.916  17.226  0.00  0.00    +0.000 NA
BRANCH   9  10
ATOM     10  N   UNL     1      37.022   2.982  17.187  0.00  0.00    +0.000 NA
BRANCH  10  11
ATOM     11  C   UNL     1      36.220   1.892  17.049  0.00  0.00    +0.000 C 
ATOM     12  C   UNL     1      35.984   0.885  17.865  0.00  0.00    +0.000 C 
ATOM     13  C   UNL     1      35.682  -0.255  18.724  0.00  0.00    +0.000 C 
ATOM     14  C   UNL     1      35.269  -1.285  17.961  0.00  0.00    +0.000 C 
ATOM     15  C   UNL     1      35.273  -0.840  16.503  0.00  0.00    +0.000 C 
ATOM     16  C   UNL     1      34.690   0.667  16.892  0.00  0.00    +0.000 C 
ATOM     17  C   UNL     1      35.478   1.468  15.777  0.00  0.00    +0.000 C 
ENDBRANCH  10  11
ENDBRANCH   9  10
ENDBRANCH   4   7
BRANCH   1  18
ATOM     18  C   UNL     1      43.162   6.921  19.571  0.00  0.00    +0.000 C 
BRANCH  18  19
ATOM     19  O   UNL     1      43.274   7.460  20.769  0.00  0.00    +0.000 OA
BRANCH  19  23
ATOM     20  C   UNL     1      44.849   5.976  24.240  0.00  0.00    +0.000 A 
ATOM     21  C   UNL     1      44.493   7.329  24.206  0.00  0.00    +0.000 A 
ATOM     22  C   UNL     1      43.965   7.800  23.049  0.00  0.00    +0.000 A 
ATOM     23  C   UNL     1      43.779   7.010  21.951  0.00  0.00    +0.000 A 
ATOM     24  C   UNL     1      44.140   5.639  21.994  0.00  0.00    +0.000 A 
ATOM     25  C   UNL     1      44.669   5.179  23.161  0.00  0.00    +0.000 A 
BRANCH  20  27
ATOM     26  C   UNL     1      44.330   4.696  26.248  0.00  0.00    +0.000 C 
ATOM     27  C   UNL     1      45.448   5.463  25.495  0.00  0.00    +0.000 C 
ATOM     28  C   UNL     1      46.480   4.430  25.130  0.00  0.00    +0.000 C 
ATOM     29  C   UNL     1      45.988   6.569  26.349  0.00  0.00    +0.000 C 
ENDBRANCH  20  27
ENDBRANCH  19  23
ENDBRANCH  18  19
ENDBRANCH   1  18
TORSDOF 7
ENDMDL
MODEL 7
REMARK VINA RESULT:      -7.7      4.125     12.018
REMARK  Name = 
REMARK  7 active torsions:
REMARK  status: ('A' for Active; 'I' for Inactive)
REMARK    1  A    between atoms: C_2  and  C_5
REMARK    2  A    between atoms: C_8  and  O_9
REMARK    3  A    between atoms: O_9  and  C_10
REMARK    4  A    between atoms: C_10  and  C_11
REMARK    5  A    between atoms: C_14  and  C_15
REMARK    6  A    between atoms: N_17  and  N_18
REMARK    7  A    between atoms: N_18  and  C_19
REMARK                            x       y       z     vdW  Elec       q    Type
REMARK                         _______ _______ _______ _____ _____    ______ ____
ROOT
ATOM      1  C   UNL     1      35.608  -0.130  16.288  0.00  0.00    +0.000 A 
ATOM      2  C   UNL     1      36.388   0.286  15.208  0.00  0.00    +0.000 A 
ATOM      3  C   UNL     1      36.974   1.540  15.169  0.00  0.00    +0.000 A 
ATOM      4  C   UNL     1      36.827   2.462  16.192  0.00  0.00    +0.000 A 
ATOM      5  C   UNL     1      36.049   2.062  17.259  0.00  0.00    +0.000 A 
ATOM      6  C   UNL     1      35.462   0.811  17.303  0.00  0.00    +0.000 A 
ENDROOT
BRANCH   4   7
ATOM      7  C   UNL     1      37.517   3.748  16.220  0.00  0.00    +0.000 C 
ATOM      8  O   UNL     1      37.561   4.442  15.180  0.00  0.00    +0.000 OA
ATOM      9  N   UNL     1      38.144   4.261  17.331  0.00  0.00    +0.000 NA
BRANCH   9  10
ATOM     10  N   UNL     1      38.763   5.017  18.031  0.00  0.00    +0.000 NA
BRANCH  10  11
ATOM     11  C   UNL     1      39.520   5.906  18.730  0.00  0.00    +0.000 C 
ATOM     12  C   UNL     1      39.175   6.853  19.580  0.00  0.00    +0.000 C 
ATOM     13  C   UNL     1      38.856   7.915  20.527  0.00  0.00    +0.000 C 
ATOM     14  C   UNL     1      39.856   8.819  20.529  0.00  0.00    +0.000 C 
ATOM     15  C   UNL     1      40.925   8.359  19.545  0.00  0.00    +0.000 C 
ATOM     16  C   UNL     1      40.753   6.769  19.996  0.00  0.00    +0.000 C 
ATOM     17  C   UNL     1      41.026   6.138  18.570  0.00  0.00    +0.000 C 
ENDBRANCH  10  11
ENDBRANCH   9  10
ENDBRANCH   4   7
BRANCH   1  18
ATOM     18  C   UNL     1      35.080  -1.484  16.415  0.00  0.00    +0.000 C 
BRANCH  18  19
ATOM     19  O   UNL     1      35.510  -2.533  15.744  0.00  0.00    +0.000 OA
BRANCH  19  23
ATOM     20  C   UNL     1      34.267  -6.423  15.499  0.00  0.00    +0.000 A 
ATOM     21  C   UNL     1      33.443  -5.434  14.951  0.00  0.00    +0.000 A 
ATOM     22  C   UNL     1      33.876  -4.152  15.034  0.00  0.00    +0.000 A 
ATOM     23  C   UNL     1      35.061  -3.813  15.623  0.00  0.00    +0.000 A 
ATOM     24  C   UNL     1      35.892  -4.821  16.176  0.00  0.00    +0.000 A 
ATOM     25  C   UNL     1      35.445  -6.104  16.085  0.00  0.00    +0.000 A 
BRANCH  20  27
ATOM     26  C   UNL     1      33.735  -8.209  13.930  0.00  0.00    +0.000 C 
ATOM     27  C   UNL     1      33.786  -7.823  15.431  0.00  0.00    +0.000 C 
ATOM     28  C   UNL     1      34.837  -8.707  16.046  0.00  0.00    +0.000 C 
ATOM     29  C   UNL     1      32.434  -7.980  16.056  0.00  0.00    +0.000 C 
ENDBRANCH  20  27
ENDBRANCH  19  23
ENDBRANCH  18  19
ENDBRANCH   1  18
TORSDOF 7
ENDMDL
MODEL 8
REMARK VINA RESULT:      -7.7      2.355      3.251
REMARK  Name = 
REMARK  7 active torsions:
REMARK  status: ('A' for Active; 'I' for Inactive)
REMARK    1  A    between atoms: C_2  and  C_5
REMARK    2  A    between atoms: C_8  and  O_9
REMARK    3  A    between atoms: O_9  and  C_10
REMARK    4  A    between atoms: C_10  and  C_11
REMARK    5  A    between atoms: C_14  and  C_15
REMARK    6  A    between atoms: N_17  and  N_18
REMARK    7  A    between atoms: N_18  and  C_19
REMARK                            x       y       z     vdW  Elec       q    Type
REMARK                         _______ _______ _______ _____ _____    ______ ____
ROOT
ATOM      1  C   UNL     1      40.721   6.179  17.733  0.00  0.00    +0.000 A 
ATOM      2  C   UNL     1      39.771   5.643  18.605  0.00  0.00    +0.000 A 
ATOM      3  C   UNL     1      38.690   4.909  18.147  0.00  0.00    +0.000 A 
ATOM      4  C   UNL     1      38.476   4.658  16.802  0.00  0.00    +0.000 A 
ATOM      5  C   UNL     1      39.406   5.193  15.933  0.00  0.00    +0.000 A 
ATOM      6  C   UNL     1      40.487   5.926  16.384  0.00  0.00    +0.000 A 
ENDROOT
BRANCH   4   7
ATOM      7  C   UNL     1      37.403   3.805  16.304  0.00  0.00    +0.000 C 
ATOM      8  O   UNL     1      36.638   4.238  15.413  0.00  0.00    +0.000 OA
ATOM      9  N   UNL     1      37.158   2.530  16.759  0.00  0.00    +0.000 NA
BRANCH   9  10
ATOM     10  N   UNL     1      36.645   1.449  16.870  0.00  0.00    +0.000 NA
BRANCH  10  11
ATOM     11  C   UNL     1      36.146   0.200  17.071  0.00  0.00    +0.000 C 
ATOM     12  C   UNL     1      36.073  -0.841  16.265  0.00  0.00    +0.000 C 
ATOM     13  C   UNL     1      35.965  -2.026  15.422  0.00  0.00    +0.000 C 
ATOM     14  C   UNL     1      34.959  -2.800  15.876  0.00  0.00    +0.000 C 
ATOM     15  C   UNL     1      34.346  -2.128  17.098  0.00  0.00    +0.000 C 
ATOM     16  C   UNL     1      35.833  -1.649  17.665  0.00  0.00    +0.000 C 
ATOM     17  C   UNL     1      35.360  -0.277  18.298  0.00  0.00    +0.000 C 
ENDBRANCH  10  11
ENDBRANCH   9  10
ENDBRANCH   4   7
BRANCH   1  18
ATOM     18  C   UNL     1      41.934   6.848  18.190  0.00  0.00    +0.000 C 
BRANCH  18  19
ATOM     19  O   UNL     1      42.023   7.611  19.260  0.00  0.00    +0.000 OA
BRANCH  19  23
ATOM     20  C   UNL     1      44.152   7.147  22.722  0.00  0.00    +0.000 A 
ATOM     21  C   UNL     1      44.000   8.441  22.214  0.00  0.00    +0.000 A 
ATOM     22  C   UNL     1      43.284   8.576  21.070  0.00  0.00    +0.000 A 
ATOM     23  C   UNL     1      42.726   7.511  20.422  0.00  0.00    +0.000 A 
ATOM     24  C   UNL     1      42.884   6.201  20.945  0.00  0.00    +0.000 A 
ATOM     25  C   UNL     1      43.605   6.081  22.093  0.00  0.00    +0.000 A 
BRANCH  20  27
ATOM     26  C   UNL     1      44.484   8.097  24.941  0.00  0.00    +0.000 C 
ATOM     27  C   UNL     1      44.954   6.993  23.959  0.00  0.00    +0.000 C 
ATOM     28  C   UNL     1      44.575   5.685  24.600  0.00  0.00    +0.000 C 
ATOM     29  C   UNL     1      46.422   7.122  23.693  0.00  0.00    +0.000 C 
ENDBRANCH  20  27
ENDBRANCH  19  23
ENDBRANCH  18  19
ENDBRANCH   1  18
TORSDOF 7
ENDMDL
MODEL 9
REMARK VINA RESULT:      -7.6      3.290      9.613
REMARK  Name = 
REMARK  7 active torsions:
REMARK  status: ('A' for Active; 'I' for Inactive)
REMARK    1  A    between atoms: C_2  and  C_5
REMARK    2  A    between atoms: C_8  and  O_9
REMARK    3  A    between atoms: O_9  and  C_10
REMARK    4  A    between atoms: C_10  and  C_11
REMARK    5  A    between atoms: C_14  and  C_15
REMARK    6  A    between atoms: N_17  and  N_18
REMARK    7  A    between atoms: N_18  and  C_19
REMARK                            x       y       z     vdW  Elec       q    Type
REMARK                         _______ _______ _______ _____ _____    ______ ____
ROOT
ATOM      1  C   UNL     1      38.838   4.810  16.042  0.00  0.00    +0.000 A 
ATOM      2  C   UNL     1      38.273   4.440  17.263  0.00  0.00    +0.000 A 
ATOM      3  C   UNL     1      38.773   4.899  18.469  0.00  0.00    +0.000 A 
ATOM      4  C   UNL     1      39.862   5.752  18.547  0.00  0.00    +0.000 A 
ATOM      5  C   UNL     1      40.431   6.116  17.344  0.00  0.00    +0.000 A 
ATOM      6  C   UNL     1      39.936   5.660  16.137  0.00  0.00    +0.000 A 
ENDROOT
BRANCH   4   7
ATOM      7  C   UNL     1      40.343   6.329  19.798  0.00  0.00    +0.000 C 
ATOM      8  O   UNL     1      39.588   7.077  20.459  0.00  0.00    +0.000 OA
ATOM      9  N   UNL     1      41.600   6.112  20.313  0.00  0.00    +0.000 NA
BRANCH   9  10
ATOM     10  N   UNL     1      42.541   6.169  21.058  0.00  0.00    +0.000 NA
BRANCH  10  11
ATOM     11  C   UNL     1      43.568   6.336  21.935  0.00  0.00    +0.000 C 
ATOM     12  C   UNL     1      43.920   7.375  22.665  0.00  0.00    +0.000 C 
ATOM     13  C   UNL     1      44.359   8.490  23.497  0.00  0.00    +0.000 C 
ATOM     14  C   UNL     1      45.672   8.350  23.765  0.00  0.00    +0.000 C 
ATOM     15  C   UNL     1      46.168   7.073  23.098  0.00  0.00    +0.000 C 
ATOM     16  C   UNL     1      44.777   6.250  23.484  0.00  0.00    +0.000 C 
ATOM     17  C   UNL     1      44.720   5.355  22.180  0.00  0.00    +0.000 C 
ENDBRANCH  10  11
ENDBRANCH   9  10
ENDBRANCH   4   7
BRANCH   1  18
ATOM     18  C   UNL     1      38.260   4.444  14.753  0.00  0.00    +0.000 C 
BRANCH  18  19
ATOM     19  O   UNL     1      38.575   3.370  14.057  0.00  0.00    +0.000 OA
BRANCH  19  23
ATOM     20  C   UNL     1      38.888  -0.589  15.039  0.00  0.00    +0.000 A 
ATOM     21  C   UNL     1      40.034   0.065  14.572  0.00  0.00    +0.000 A 
ATOM     22  C   UNL     1      39.912   1.379  14.260  0.00  0.00    +0.000 A 
ATOM     23  C   UNL     1      38.734   2.058  14.385  0.00  0.00    +0.000 A 
ATOM     24  C   UNL     1      37.576   1.389  14.860  0.00  0.00    +0.000 A 
ATOM     25  C   UNL     1      37.713   0.070  15.170  0.00  0.00    +0.000 A 
BRANCH  20  27
ATOM     26  C   UNL     1      40.497  -2.416  15.138  0.00  0.00    +0.000 C 
ATOM     27  C   UNL     1      39.011  -2.031  15.359  0.00  0.00    +0.000 C 
ATOM     28  C   UNL     1      38.757  -2.205  16.831  0.00  0.00    +0.000 C 
ATOM     29  C   UNL     1      38.120  -2.872  14.496  0.00  0.00    +0.000 C 
ENDBRANCH  20  27
ENDBRANCH  19  23
ENDBRANCH  18  19
ENDBRANCH   1  18
TORSDOF 7
ENDMDL
MODEL 10
REMARK VINA RESULT:      -7.6      1.189      1.787
REMARK  Name = 
REMARK  7 active torsions:
REMARK  status: ('A' for Active; 'I' for Inactive)
REMARK    1  A    between atoms: C_2  and  C_5
REMARK    2  A    between atoms: C_8  and  O_9
REMARK    3  A    between atoms: O_9  and  C_10
REMARK    4  A    between atoms: C_10  and  C_11
REMARK    5  A    between atoms: C_14  and  C_15
REMARK    6  A    between atoms: N_17  and  N_18
REMARK    7  A    between atoms: N_18  and  C_19
REMARK                            x       y       z     vdW  Elec       q    Type
REMARK                         _______ _______ _______ _____ _____    ______ ____
ROOT
ATOM      1  C   UNL     1      43.027   6.835  19.363  0.00  0.00    +0.000 A 
ATOM      2  C   UNL     1      42.625   6.684  18.035  0.00  0.00    +0.000 A 
ATOM      3  C   UNL     1      41.329   6.331  17.699  0.00  0.00    +0.000 A 
ATOM      4  C   UNL     1      40.348   6.105  18.650  0.00  0.00    +0.000 A 
ATOM      5  C   UNL     1      40.741   6.244  19.967  0.00  0.00    +0.000 A 
ATOM      6  C   UNL     1      42.033   6.595  20.308  0.00  0.00    +0.000 A 
ENDROOT
BRANCH   4   7
ATOM      7  C   UNL     1      38.954   5.833  18.319  0.00  0.00    +0.000 C 
ATOM      8  O   UNL     1      38.090   6.712  18.531  0.00  0.00    +0.000 OA
ATOM      9  N   UNL     1      38.507   4.647  17.784  0.00  0.00    +0.000 NA
BRANCH   9  10
ATOM     10  N   UNL     1      37.758   3.820  17.335  0.00  0.00    +0.000 NA
BRANCH  10  11
ATOM     11  C   UNL     1      36.832   2.966  16.824  0.00  0.00    +0.000 C 
ATOM     12  C   UNL     1      36.274   1.888  17.338  0.00  0.00    +0.000 C 
ATOM     13  C   UNL     1      35.623   0.689  17.852  0.00  0.00    +0.000 C 
ATOM     14  C   UNL     1      35.208  -0.066  16.816  0.00  0.00    +0.000 C 
ATOM     15  C   UNL     1      35.578   0.645  15.521  0.00  0.00    +0.000 C 
ATOM     16  C   UNL     1      35.184   2.134  16.146  0.00  0.00    +0.000 C 
ATOM     17  C   UNL     1      36.301   2.959  15.386  0.00  0.00    +0.000 C 
ENDBRANCH  10  11
ENDBRANCH   9  10
ENDBRANCH   4   7
BRANCH   1  18
ATOM     18  C   UNL     1      44.347   7.324  19.745  0.00  0.00    +0.000 C 
BRANCH  18  19
ATOM     19  O   UNL     1      45.126   6.777  20.656  0.00  0.00    +0.000 OA
BRANCH  19  23
ATOM     20  C   UNL     1      47.114   3.209  20.892  0.00  0.00    +0.000 A 
ATOM     21  C   UNL     1      47.528   4.128  19.923  0.00  0.00    +0.000 A 
ATOM     22  C   UNL     1      46.863   5.309  19.865  0.00  0.00    +0.000 A 
ATOM     23  C   UNL     1      45.829   5.611  20.705  0.00  0.00    +0.000 A 
ATOM     24  C   UNL     1      45.415   4.674  21.687  0.00  0.00    +0.000 A 
ATOM     25  C   UNL     1      46.093   3.494  21.734  0.00  0.00    +0.000 A 
BRANCH  20  27
ATOM     26  C   UNL     1      47.867   1.477  22.431  0.00  0.00    +0.000 C 
ATOM     27  C   UNL     1      47.823   1.908  20.943  0.00  0.00    +0.000 C 
ATOM     28  C   UNL     1      46.970   0.885  20.244  0.00  0.00    +0.000 C 
ATOM     29  C   UNL     1      49.211   2.008  20.387  0.00  0.00    +0.000 C 
ENDBRANCH  20  27
ENDBRANCH  19  23
ENDBRANCH  18  19
ENDBRANCH   1  18
TORSDOF 7
ENDMDL
