MODEL 1
REMARK VINA RESULT:      -8.0      0.000      0.000
REMARK  Name = 
REMARK  9 active torsions:
REMARK  status: ('A' for Active; 'I' for Inactive)
REMARK    1  A    between atoms: C_2  and  C_3
REMARK    2  A    between atoms: C_3  and  C_6
REMARK    3  A    between atoms: C_9  and  O_10
REMARK    4  A    between atoms: O_10  and  C_11
REMARK    5  A    between atoms: C_14  and  N_15
REMARK    6  A    between atoms: C_16  and  C_18
REMARK    7  A    between atoms: C_18  and  O_19
REMARK    8  A    between atoms: O_19  and  C_20
REMARK    9  A    between atoms: C_20  and  C_22
REMARK                            x       y       z     vdW  Elec       q    Type
REMARK                         _______ _______ _______ _____ _____    ______ ____
ROOT
ATOM      1  C   UNL     1      38.008   4.054  16.206  0.00  0.00    +0.000 A 
ATOM      2  C   UNL     1      36.939   3.287  16.667  0.00  0.00    +0.000 A 
ATOM      3  C   UNL     1      36.688   2.048  16.132  0.00  0.00    +0.000 A 
ATOM      4  C   UNL     1      37.491   1.499  15.111  0.00  0.00    +0.000 A 
ATOM      5  C   UNL     1      38.535   2.272  14.673  0.00  0.00    +0.000 A 
ATOM      6  C   UNL     1      38.803   3.533  15.203  0.00  0.00    +0.000 A 
ENDROOT
BRANCH   4   7
ATOM      7  N   UNL     1      37.145   0.216  14.592  0.00  0.00    +0.000 NA
ATOM      8  C   UNL     1      37.946  -0.890  15.011  0.00  0.00    +0.000 C 
ATOM      9  O   UNL     1      38.915  -0.652  15.809  0.00  0.00    +0.000 OA
BRANCH   8  10
ATOM     10  C   UNL     1      37.651  -2.253  14.530  0.00  0.00    +0.000 C 
BRANCH  10  11
ATOM     11  O   UNL     1      37.583  -3.195  15.564  0.00  0.00    +0.000 OA
BRANCH  11  12
ATOM     12  C   UNL     1      36.574  -3.351  16.475  0.00  0.00    +0.000 C 
ATOM     13  O   UNL     1      35.896  -4.416  16.501  0.00  0.00    +0.000 OA
BRANCH  12  14
ATOM     14  C   UNL     1      36.273  -2.280  17.436  0.00  0.00    +0.000 A 
ATOM     15  C   UNL     1      35.217  -1.422  17.477  0.00  0.00    +0.000 A 
ATOM     16  C   UNL     1      35.346  -0.595  18.595  0.00  0.00    +0.000 A 
ATOM     17  C   UNL     1      36.529  -1.010  19.212  0.00  0.00    +0.000 A 
ATOM     18  N   UNL     1      37.058  -2.013  18.494  0.00  0.00    +0.000 N 
ATOM     19  C   UNL     1      38.302  -2.712  18.842  0.00  0.00    +0.000 C 
ENDBRANCH  12  14
ENDBRANCH  11  12
ENDBRANCH  10  11
ENDBRANCH   8  10
ENDBRANCH   4   7
BRANCH   1  20
ATOM     20  O   UNL     1      38.276   5.297  16.709  0.00  0.00    +0.000 OA
BRANCH  20  24
ATOM     21  C   UNL     1      41.469   6.537  19.020  0.00  0.00    +0.000 A 
ATOM     22  C   UNL     1      41.591   6.498  17.661  0.00  0.00    +0.000 A 
ATOM     23  C   UNL     1      40.533   6.085  16.882  0.00  0.00    +0.000 A 
ATOM     24  C   UNL     1      39.345   5.707  17.459  0.00  0.00    +0.000 A 
ATOM     25  C   UNL     1      39.235   5.751  18.827  0.00  0.00    +0.000 A 
ATOM     26  C   UNL     1      40.278   6.157  19.592  0.00  0.00    +0.000 A 
BRANCH  21  27
ATOM     27  C   UNL     1      42.578   6.965  19.918  0.00  0.00    +0.000 C 
ATOM     28  C   UNL     1      42.443   8.401  20.373  0.00  0.00    +0.000 C 
ATOM     29  C   UNL     1      43.848   6.894  19.083  0.00  0.00    +0.000 C 
BRANCH  27  31
ATOM     30  C   UNL     1      44.096   5.815  21.515  0.00  0.00    +0.000 C 
ATOM     31  C   UNL     1      42.653   6.027  21.090  0.00  0.00    +0.000 C 
ENDBRANCH  27  31
ENDBRANCH  21  27
ENDBRANCH  20  24
ENDBRANCH   1  20
TORSDOF 9
ENDMDL
MODEL 2
REMARK VINA RESULT:      -7.6      1.531      2.542
REMARK  Name = 
REMARK  9 active torsions:
REMARK  status: ('A' for Active; 'I' for Inactive)
REMARK    1  A    between atoms: C_2  and  C_3
REMARK    2  A    between atoms: C_3  and  C_6
REMARK    3  A    between atoms: C_9  and  O_10
REMARK    4  A    between atoms: O_10  and  C_11
REMARK    5  A    between atoms: C_14  and  N_15
REMARK    6  A    between atoms: C_16  and  C_18
REMARK    7  A    between atoms: C_18  and  O_19
REMARK    8  A    between atoms: O_19  and  C_20
REMARK    9  A    between atoms: C_20  and  C_22
REMARK                            x       y       z     vdW  Elec       q    Type
REMARK                         _______ _______ _______ _____ _____    ______ ____
ROOT
ATOM      1  C   UNL     1      37.343   3.369  15.729  0.00  0.00    +0.000 A 
ATOM      2  C   UNL     1      36.096   3.142  16.311  0.00  0.00    +0.000 A 
ATOM      3  C   UNL     1      35.563   1.877  16.345  0.00  0.00    +0.000 A 
ATOM      4  C   UNL     1      36.244   0.765  15.807  0.00  0.00    +0.000 A 
ATOM      5  C   UNL     1      37.467   1.014  15.239  0.00  0.00    +0.000 A 
ATOM      6  C   UNL     1      38.022   2.293  15.194  0.00  0.00    +0.000 A 
ENDROOT
BRANCH   4   7
ATOM      7  N   UNL     1      35.608  -0.511  15.860  0.00  0.00    +0.000 NA
ATOM      8  C   UNL     1      35.734  -1.248  17.077  0.00  0.00    +0.000 C 
ATOM      9  O   UNL     1      36.411  -0.719  18.023  0.00  0.00    +0.000 OA
BRANCH   8  10
ATOM     10  C   UNL     1      35.097  -2.570  17.220  0.00  0.00    +0.000 C 
BRANCH  10  11
ATOM     11  O   UNL     1      35.325  -3.409  16.123  0.00  0.00    +0.000 OA
BRANCH  11  12
ATOM     12  C   UNL     1      36.467  -4.108  15.840  0.00  0.00    +0.000 C 
ATOM     13  O   UNL     1      36.628  -5.278  16.288  0.00  0.00    +0.000 OA
BRANCH  12  14
ATOM     14  C   UNL     1      37.518  -3.504  15.008  0.00  0.00    +0.000 A 
ATOM     15  C   UNL     1      37.563  -3.325  13.661  0.00  0.00    +0.000 A 
ATOM     16  C   UNL     1      38.755  -2.677  13.326  0.00  0.00    +0.000 A 
ATOM     17  C   UNL     1      39.408  -2.481  14.546  0.00  0.00    +0.000 A 
ATOM     18  N   UNL     1      38.646  -2.988  15.527  0.00  0.00    +0.000 N 
ATOM     19  C   UNL     1      39.005  -2.957  16.951  0.00  0.00    +0.000 C 
ENDBRANCH  12  14
ENDBRANCH  11  12
ENDBRANCH  10  11
ENDBRANCH   8  10
ENDBRANCH   4   7
BRANCH   1  20
ATOM     20  O   UNL     1      37.894   4.619  15.668  0.00  0.00    +0.000 OA
BRANCH  20  24
ATOM     21  C   UNL     1      40.721   6.307  18.165  0.00  0.00    +0.000 A 
ATOM     22  C   UNL     1      40.929   6.296  16.817  0.00  0.00    +0.000 A 
ATOM     23  C   UNL     1      39.993   5.735  15.976  0.00  0.00    +0.000 A 
ATOM     24  C   UNL     1      38.843   5.179  16.481  0.00  0.00    +0.000 A 
ATOM     25  C   UNL     1      38.646   5.197  17.839  0.00  0.00    +0.000 A 
ATOM     26  C   UNL     1      39.568   5.749  18.665  0.00  0.00    +0.000 A 
BRANCH  21  27
ATOM     27  C   UNL     1      41.697   6.889  19.128  0.00  0.00    +0.000 C 
ATOM     28  C   UNL     1      41.513   8.378  19.322  0.00  0.00    +0.000 C 
ATOM     29  C   UNL     1      43.071   6.703  18.500  0.00  0.00    +0.000 C 
BRANCH  27  31
ATOM     30  C   UNL     1      42.959   6.080  21.111  0.00  0.00    +0.000 C 
ATOM     31  C   UNL     1      41.600   6.154  20.435  0.00  0.00    +0.000 C 
ENDBRANCH  27  31
ENDBRANCH  21  27
ENDBRANCH  20  24
ENDBRANCH   1  20
TORSDOF 9
ENDMDL
MODEL 3
REMARK VINA RESULT:      -7.4      1.542      3.048
REMARK  Name = 
REMARK  9 active torsions:
REMARK  status: ('A' for Active; 'I' for Inactive)
REMARK    1  A    between atoms: C_2  and  C_3
REMARK    2  A    between atoms: C_3  and  C_6
REMARK    3  A    between atoms: C_9  and  O_10
REMARK    4  A    between atoms: O_10  and  C_11
REMARK    5  A    between atoms: C_14  and  N_15
REMARK    6  A    between atoms: C_16  and  C_18
REMARK    7  A    between atoms: C_18  and  O_19
REMARK    8  A    between atoms: O_19  and  C_20
REMARK    9  A    between atoms: C_20  and  C_22
REMARK                            x       y       z     vdW  Elec       q    Type
REMARK                         _______ _______ _______ _____ _____    ______ ____
ROOT
ATOM      1  C   UNL     1      38.026   4.238  16.273  0.00  0.00    +0.000 A 
ATOM      2  C   UNL     1      36.908   3.699  16.908  0.00  0.00    +0.000 A 
ATOM      3  C   UNL     1      36.442   2.455  16.562  0.00  0.00    +0.000 A 
ATOM      4  C   UNL     1      37.068   1.674  15.568  0.00  0.00    +0.000 A 
ATOM      5  C   UNL     1      38.164   2.226  14.958  0.00  0.00    +0.000 A 
ATOM      6  C   UNL     1      38.649   3.489  15.295  0.00  0.00    +0.000 A 
ENDROOT
BRANCH   4   7
ATOM      7  N   UNL     1      36.504   0.402  15.249  0.00  0.00    +0.000 NA
ATOM      8  C   UNL     1      36.856  -0.693  16.096  0.00  0.00    +0.000 C 
ATOM      9  O   UNL     1      37.652  -0.459  17.068  0.00  0.00    +0.000 OA
BRANCH   8  10
ATOM     10  C   UNL     1      36.309  -2.039  15.845  0.00  0.00    +0.000 C 
BRANCH  10  11
ATOM     11  O   UNL     1      37.294  -2.979  15.524  0.00  0.00    +0.000 OA
BRANCH  11  12
ATOM     12  C   UNL     1      38.047  -3.031  14.382  0.00  0.00    +0.000 C 
ATOM     13  O   UNL     1      37.649  -3.694  13.384  0.00  0.00    +0.000 OA
BRANCH  12  14
ATOM     14  C   UNL     1      39.327  -2.312  14.307  0.00  0.00    +0.000 A 
ATOM     15  C   UNL     1      40.499  -2.554  14.953  0.00  0.00    +0.000 A 
ATOM     16  C   UNL     1      41.451  -1.618  14.539  0.00  0.00    +0.000 A 
ATOM     17  C   UNL     1      40.780  -0.814  13.614  0.00  0.00    +0.000 A 
ATOM     18  N   UNL     1      39.516  -1.252  13.502  0.00  0.00    +0.000 N 
ATOM     19  C   UNL     1      38.512  -0.656  12.611  0.00  0.00    +0.000 C 
ENDBRANCH  12  14
ENDBRANCH  11  12
ENDBRANCH  10  11
ENDBRANCH   8  10
ENDBRANCH   4   7
BRANCH   1  20
ATOM     20  O   UNL     1      38.506   5.480  16.587  0.00  0.00    +0.000 OA
BRANCH  20  24
ATOM     21  C   UNL     1      41.691   6.489  19.019  0.00  0.00    +0.000 A 
ATOM     22  C   UNL     1      41.848   6.483  17.664  0.00  0.00    +0.000 A 
ATOM     23  C   UNL     1      40.794   6.147  16.845  0.00  0.00    +0.000 A 
ATOM     24  C   UNL     1      39.573   5.813  17.378  0.00  0.00    +0.000 A 
ATOM     25  C   UNL     1      39.426   5.823  18.743  0.00  0.00    +0.000 A 
ATOM     26  C   UNL     1      40.466   6.153  19.548  0.00  0.00    +0.000 A 
BRANCH  21  27
ATOM     27  C   UNL     1      42.793   6.833  19.960  0.00  0.00    +0.000 C 
ATOM     28  C   UNL     1      42.844   5.918  21.163  0.00  0.00    +0.000 C 
ATOM     29  C   UNL     1      42.477   8.225  20.489  0.00  0.00    +0.000 C 
BRANCH  27  31
ATOM     30  C   UNL     1      45.238   6.423  20.135  0.00  0.00    +0.000 C 
ATOM     31  C   UNL     1      44.098   6.826  19.215  0.00  0.00    +0.000 C 
ENDBRANCH  27  31
ENDBRANCH  21  27
ENDBRANCH  20  24
ENDBRANCH   1  20
TORSDOF 9
ENDMDL
MODEL 4
REMARK VINA RESULT:      -7.3      1.340      2.043
REMARK  Name = 
REMARK  9 active torsions:
REMARK  status: ('A' for Active; 'I' for Inactive)
REMARK    1  A    between atoms: C_2  and  C_3
REMARK    2  A    between atoms: C_3  and  C_6
REMARK    3  A    between atoms: C_9  and  O_10
REMARK    4  A    between atoms: O_10  and  C_11
REMARK    5  A    between atoms: C_14  and  N_15
REMARK    6  A    between atoms: C_16  and  C_18
REMARK    7  A    between atoms: C_18  and  O_19
REMARK    8  A    between atoms: O_19  and  C_20
REMARK    9  A    between atoms: C_20  and  C_22
REMARK                            x       y       z     vdW  Elec       q    Type
REMARK                         _______ _______ _______ _____ _____    ______ ____
ROOT
ATOM      1  C   UNL     1      38.179   3.469  15.044  0.00  0.00    +0.000 A 
ATOM      2  C   UNL     1      36.998   2.747  15.218  0.00  0.00    +0.000 A 
ATOM      3  C   UNL     1      36.957   1.402  14.950  0.00  0.00    +0.000 A 
ATOM      4  C   UNL     1      38.092   0.696  14.499  0.00  0.00    +0.000 A 
ATOM      5  C   UNL     1      39.240   1.427  14.334  0.00  0.00    +0.000 A 
ATOM      6  C   UNL     1      39.299   2.794  14.599  0.00  0.00    +0.000 A 
ENDROOT
BRANCH   4   7
ATOM      7  N   UNL     1      37.957  -0.697  14.217  0.00  0.00    +0.000 NA
ATOM      8  C   UNL     1      38.563  -1.605  15.138  0.00  0.00    +0.000 C 
ATOM      9  O   UNL     1      39.187  -1.109  16.137  0.00  0.00    +0.000 OA
BRANCH   8  10
ATOM     10  C   UNL     1      38.462  -3.061  14.929  0.00  0.00    +0.000 C 
BRANCH  10  11
ATOM     11  O   UNL     1      37.152  -3.541  15.039  0.00  0.00    +0.000 OA
BRANCH  11  12
ATOM     12  C   UNL     1      36.443  -3.752  16.191  0.00  0.00    +0.000 C 
ATOM     13  O   UNL     1      36.114  -4.922  16.533  0.00  0.00    +0.000 OA
BRANCH  12  14
ATOM     14  C   UNL     1      36.061  -2.617  17.044  0.00  0.00    +0.000 A 
ATOM     15  C   UNL     1      35.022  -1.748  16.919  0.00  0.00    +0.000 A 
ATOM     16  C   UNL     1      35.047  -0.850  17.988  0.00  0.00    +0.000 A 
ATOM     17  C   UNL     1      36.153  -1.235  18.751  0.00  0.00    +0.000 A 
ATOM     18  N   UNL     1      36.737  -2.288  18.159  0.00  0.00    +0.000 N 
ATOM     19  C   UNL     1      37.927  -2.973  18.679  0.00  0.00    +0.000 C 
ENDBRANCH  12  14
ENDBRANCH  11  12
ENDBRANCH  10  11
ENDBRANCH   8  10
ENDBRANCH   4   7
BRANCH   1  20
ATOM     20  O   UNL     1      38.248   4.812  15.290  0.00  0.00    +0.000 OA
BRANCH  20  24
ATOM     21  C   UNL     1      39.679   6.802  18.617  0.00  0.00    +0.000 A 
ATOM     22  C   UNL     1      39.183   5.537  18.745  0.00  0.00    +0.000 A 
ATOM     23  C   UNL     1      38.703   4.866  17.643  0.00  0.00    +0.000 A 
ATOM     24  C   UNL     1      38.715   5.458  16.404  0.00  0.00    +0.000 A 
ATOM     25  C   UNL     1      39.216   6.731  16.287  0.00  0.00    +0.000 A 
ATOM     26  C   UNL     1      39.688   7.390  17.374  0.00  0.00    +0.000 A 
BRANCH  21  27
ATOM     27  C   UNL     1      40.204   7.585  19.770  0.00  0.00    +0.000 C 
ATOM     28  C   UNL     1      40.850   8.887  19.349  0.00  0.00    +0.000 C 
ATOM     29  C   UNL     1      41.306   6.737  20.389  0.00  0.00    +0.000 C 
BRANCH  27  31
ATOM     30  C   UNL     1      38.583   9.249  20.653  0.00  0.00    +0.000 C 
ATOM     31  C   UNL     1      39.093   7.821  20.754  0.00  0.00    +0.000 C 
ENDBRANCH  27  31
ENDBRANCH  21  27
ENDBRANCH  20  24
ENDBRANCH   1  20
TORSDOF 9
ENDMDL
MODEL 5
REMARK VINA RESULT:      -7.2      1.499      2.525
REMARK  Name = 
REMARK  9 active torsions:
REMARK  status: ('A' for Active; 'I' for Inactive)
REMARK    1  A    between atoms: C_2  and  C_3
REMARK    2  A    between atoms: C_3  and  C_6
REMARK    3  A    between atoms: C_9  and  O_10
REMARK    4  A    between atoms: O_10  and  C_11
REMARK    5  A    between atoms: C_14  and  N_15
REMARK    6  A    between atoms: C_16  and  C_18
REMARK    7  A    between atoms: C_18  and  O_19
REMARK    8  A    between atoms: O_19  and  C_20
REMARK    9  A    between atoms: C_20  and  C_22
REMARK                            x       y       z     vdW  Elec       q    Type
REMARK                         _______ _______ _______ _____ _____    ______ ____
ROOT
ATOM      1  C   UNL     1      39.467   6.004  17.170  0.00  0.00    +0.000 A 
ATOM      2  C   UNL     1      39.473   5.913  15.778  0.00  0.00    +0.000 A 
ATOM      3  C   UNL     1      38.740   4.944  15.140  0.00  0.00    +0.000 A 
ATOM      4  C   UNL     1      37.954   4.013  15.850  0.00  0.00    +0.000 A 
ATOM      5  C   UNL     1      37.965   4.121  17.216  0.00  0.00    +0.000 A 
ATOM      6  C   UNL     1      38.705   5.098  17.881  0.00  0.00    +0.000 A 
ENDROOT
BRANCH   4   7
ATOM      7  N   UNL     1      37.244   3.021  15.111  0.00  0.00    +0.000 NA
ATOM      8  C   UNL     1      37.945   1.815  14.805  0.00  0.00    +0.000 C 
ATOM      9  O   UNL     1      39.155   1.715  15.204  0.00  0.00    +0.000 OA
BRANCH   8  10
ATOM     10  C   UNL     1      37.282   0.733  14.054  0.00  0.00    +0.000 C 
BRANCH  10  11
ATOM     11  O   UNL     1      37.465  -0.528  14.634  0.00  0.00    +0.000 OA
BRANCH  11  12
ATOM     12  C   UNL     1      36.586  -1.204  15.437  0.00  0.00    +0.000 C 
ATOM     13  O   UNL     1      35.916  -2.171  14.979  0.00  0.00    +0.000 OA
BRANCH  12  14
ATOM     14  C   UNL     1      36.416  -0.810  16.843  0.00  0.00    +0.000 A 
ATOM     15  C   UNL     1      35.513   0.039  17.404  0.00  0.00    +0.000 A 
ATOM     16  C   UNL     1      35.720   0.077  18.785  0.00  0.00    +0.000 A 
ATOM     17  C   UNL     1      36.790  -0.795  19.010  0.00  0.00    +0.000 A 
ATOM     18  N   UNL     1      37.182  -1.303  17.832  0.00  0.00    +0.000 N 
ATOM     19  C   UNL     1      38.279  -2.267  17.673  0.00  0.00    +0.000 C 
ENDBRANCH  12  14
ENDBRANCH  11  12
ENDBRANCH  10  11
ENDBRANCH   8  10
ENDBRANCH   4   7
BRANCH   1  20
ATOM     20  O   UNL     1      40.196   6.950  17.836  0.00  0.00    +0.000 OA
BRANCH  20  24
ATOM     21  C   UNL     1      43.464   6.438  20.312  0.00  0.00    +0.000 A 
ATOM     22  C   UNL     1      43.653   6.739  18.995  0.00  0.00    +0.000 A 
ATOM     23  C   UNL     1      42.571   6.910  18.161  0.00  0.00    +0.000 A 
ATOM     24  C   UNL     1      41.291   6.780  18.641  0.00  0.00    +0.000 A 
ATOM     25  C   UNL     1      41.113   6.478  19.968  0.00  0.00    +0.000 A 
ATOM     26  C   UNL     1      42.180   6.308  20.788  0.00  0.00    +0.000 A 
BRANCH  21  27
ATOM     27  C   UNL     1      44.592   6.231  21.264  0.00  0.00    +0.000 C 
ATOM     28  C   UNL     1      44.680   7.317  22.314  0.00  0.00    +0.000 C 
ATOM     29  C   UNL     1      45.865   6.327  20.436  0.00  0.00    +0.000 C 
BRANCH  27  31
ATOM     30  C   UNL     1      45.774   4.112  21.802  0.00  0.00    +0.000 C 
ATOM     31  C   UNL     1      44.462   4.873  21.894  0.00  0.00    +0.000 C 
ENDBRANCH  27  31
ENDBRANCH  21  27
ENDBRANCH  20  24
ENDBRANCH   1  20
TORSDOF 9
ENDMDL
MODEL 6
REMARK VINA RESULT:      -7.0      7.188     11.525
REMARK  Name = 
REMARK  9 active torsions:
REMARK  status: ('A' for Active; 'I' for Inactive)
REMARK    1  A    between atoms: C_2  and  C_3
REMARK    2  A    between atoms: C_3  and  C_6
REMARK    3  A    between atoms: C_9  and  O_10
REMARK    4  A    between atoms: O_10  and  C_11
REMARK    5  A    between atoms: C_14  and  N_15
REMARK    6  A    between atoms: C_16  and  C_18
REMARK    7  A    between atoms: C_18  and  O_19
REMARK    8  A    between atoms: O_19  and  C_20
REMARK    9  A    between atoms: C_20  and  C_22
REMARK                            x       y       z     vdW  Elec       q    Type
REMARK                         _______ _______ _______ _____ _____    ______ ____
ROOT
ATOM      1  C   UNL     1      44.401   6.456  22.033  0.00  0.00    +0.000 A 
ATOM      2  C   UNL     1      44.858   5.214  22.474  0.00  0.00    +0.000 A 
ATOM      3  C   UNL     1      45.103   4.995  23.807  0.00  0.00    +0.000 A 
ATOM      4  C   UNL     1      44.903   5.999  24.777  0.00  0.00    +0.000 A 
ATOM      5  C   UNL     1      44.455   7.211  24.319  0.00  0.00    +0.000 A 
ATOM      6  C   UNL     1      44.202   7.451  22.969  0.00  0.00    +0.000 A 
ENDROOT
BRANCH   4   7
ATOM      7  N   UNL     1      45.208   5.697  26.138  0.00  0.00    +0.000 NA
ATOM      8  C   UNL     1      44.139   5.206  26.948  0.00  0.00    +0.000 C 
ATOM      9  O   UNL     1      42.990   5.081  26.403  0.00  0.00    +0.000 OA
BRANCH   8  10
ATOM     10  C   UNL     1      44.370   4.860  28.363  0.00  0.00    +0.000 C 
BRANCH  10  11
ATOM     11  O   UNL     1      43.192   4.548  29.050  0.00  0.00    +0.000 OA
BRANCH  11  12
ATOM     12  C   UNL     1      42.636   5.237  30.094  0.00  0.00    +0.000 C 
ATOM     13  O   UNL     1      43.334   5.544  31.101  0.00  0.00    +0.000 OA
BRANCH  12  14
ATOM     14  C   UNL     1      41.220   5.630  30.051  0.00  0.00    +0.000 A 
ATOM     15  C   UNL     1      40.122   4.970  30.509  0.00  0.00    +0.000 A 
ATOM     16  C   UNL     1      38.988   5.751  30.270  0.00  0.00    +0.000 A 
ATOM     17  C   UNL     1      39.475   6.905  29.650  0.00  0.00    +0.000 A 
ATOM     18  N   UNL     1      40.807   6.799  29.532  0.00  0.00    +0.000 N 
ATOM     19  C   UNL     1      41.668   7.828  28.935  0.00  0.00    +0.000 C 
ENDBRANCH  12  14
ENDBRANCH  11  12
ENDBRANCH  10  11
ENDBRANCH   8  10
ENDBRANCH   4   7
BRANCH   1  20
ATOM     20  O   UNL     1      44.159   6.708  20.711  0.00  0.00    +0.000 OA
BRANCH  20  24
ATOM     21  C   UNL     1      40.582   6.381  18.668  0.00  0.00    +0.000 A 
ATOM     22  C   UNL     1      41.739   6.598  17.979  0.00  0.00    +0.000 A 
ATOM     23  C   UNL     1      42.936   6.709  18.649  0.00  0.00    +0.000 A 
ATOM     24  C   UNL     1      42.983   6.606  20.018  0.00  0.00    +0.000 A 
ATOM     25  C   UNL     1      41.812   6.388  20.702  0.00  0.00    +0.000 A 
ATOM     26  C   UNL     1      40.634   6.280  20.039  0.00  0.00    +0.000 A 
BRANCH  21  27
ATOM     27  C   UNL     1      39.254   6.261  18.004  0.00  0.00    +0.000 C 
ATOM     28  C   UNL     1      39.284   6.689  16.553  0.00  0.00    +0.000 C 
ATOM     29  C   UNL     1      38.333   7.236  18.722  0.00  0.00    +0.000 C 
BRANCH  27  31
ATOM     30  C   UNL     1      38.276   4.315  16.806  0.00  0.00    +0.000 C 
ATOM     31  C   UNL     1      38.757   4.850  18.145  0.00  0.00    +0.000 C 
ENDBRANCH  27  31
ENDBRANCH  21  27
ENDBRANCH  20  24
ENDBRANCH   1  20
TORSDOF 9
ENDMDL
MODEL 7
REMARK VINA RESULT:      -7.0      2.146      3.782
REMARK  Name = 
REMARK  9 active torsions:
REMARK  status: ('A' for Active; 'I' for Inactive)
REMARK    1  A    between atoms: C_2  and  C_3
REMARK    2  A    between atoms: C_3  and  C_6
REMARK    3  A    between atoms: C_9  and  O_10
REMARK    4  A    between atoms: O_10  and  C_11
REMARK    5  A    between atoms: C_14  and  N_15
REMARK    6  A    between atoms: C_16  and  C_18
REMARK    7  A    between atoms: C_18  and  O_19
REMARK    8  A    between atoms: O_19  and  C_20
REMARK    9  A    between atoms: C_20  and  C_22
REMARK                            x       y       z     vdW  Elec       q    Type
REMARK                         _______ _______ _______ _____ _____    ______ ____
ROOT
ATOM      1  C   UNL     1      40.126   6.344  17.897  0.00  0.00    +0.000 A 
ATOM      2  C   UNL     1      39.296   5.455  18.580  0.00  0.00    +0.000 A 
ATOM      3  C   UNL     1      38.424   4.647  17.894  0.00  0.00    +0.000 A 
ATOM      4  C   UNL     1      38.332   4.674  16.487  0.00  0.00    +0.000 A 
ATOM      5  C   UNL     1      39.156   5.557  15.838  0.00  0.00    +0.000 A 
ATOM      6  C   UNL     1      40.046   6.385  16.519  0.00  0.00    +0.000 A 
ENDROOT
BRANCH   4   7
ATOM      7  N   UNL     1      37.379   3.822  15.853  0.00  0.00    +0.000 NA
ATOM      8  C   UNL     1      37.884   2.646  15.218  0.00  0.00    +0.000 C 
ATOM      9  O   UNL     1      39.146   2.447  15.256  0.00  0.00    +0.000 OA
BRANCH   8  10
ATOM     10  C   UNL     1      36.968   1.704  14.549  0.00  0.00    +0.000 C 
BRANCH  10  11
ATOM     11  O   UNL     1      36.270   0.888  15.447  0.00  0.00    +0.000 OA
BRANCH  11  12
ATOM     12  C   UNL     1      36.743  -0.220  16.097  0.00  0.00    +0.000 C 
ATOM     13  O   UNL     1      36.971  -0.184  17.339  0.00  0.00    +0.000 OA
BRANCH  12  14
ATOM     14  C   UNL     1      36.989  -1.465  15.355  0.00  0.00    +0.000 A 
ATOM     15  C   UNL     1      36.112  -2.421  14.948  0.00  0.00    +0.000 A 
ATOM     16  C   UNL     1      36.806  -3.410  14.247  0.00  0.00    +0.000 A 
ATOM     17  C   UNL     1      38.138  -2.986  14.259  0.00  0.00    +0.000 A 
ATOM     18  N   UNL     1      38.213  -1.826  14.929  0.00  0.00    +0.000 N 
ATOM     19  C   UNL     1      39.455  -1.072  15.140  0.00  0.00    +0.000 C 
ENDBRANCH  12  14
ENDBRANCH  11  12
ENDBRANCH  10  11
ENDBRANCH   8  10
ENDBRANCH   4   7
BRANCH   1  20
ATOM     20  O   UNL     1      40.996   7.170  18.553  0.00  0.00    +0.000 OA
BRANCH  20  24
ATOM     21  C   UNL     1      44.350   6.179  20.755  0.00  0.00    +0.000 A 
ATOM     22  C   UNL     1      44.488   6.628  19.474  0.00  0.00    +0.000 A 
ATOM     23  C   UNL     1      43.377   6.960  18.732  0.00  0.00    +0.000 A 
ATOM     24  C   UNL     1      42.117   6.842  19.267  0.00  0.00    +0.000 A 
ATOM     25  C   UNL     1      41.991   6.389  20.557  0.00  0.00    +0.000 A 
ATOM     26  C   UNL     1      43.086   6.062  21.286  0.00  0.00    +0.000 A 
BRANCH  21  27
ATOM     27  C   UNL     1      45.510   5.795  21.606  0.00  0.00    +0.000 C 
ATOM     28  C   UNL     1      46.836   5.949  20.895  0.00  0.00    +0.000 C 
ATOM     29  C   UNL     1      45.346   4.310  21.897  0.00  0.00    +0.000 C 
BRANCH  27  31
ATOM     30  C   UNL     1      46.105   7.964  22.663  0.00  0.00    +0.000 C 
ATOM     31  C   UNL     1      45.476   6.597  22.877  0.00  0.00    +0.000 C 
ENDBRANCH  27  31
ENDBRANCH  21  27
ENDBRANCH  20  24
ENDBRANCH   1  20
TORSDOF 9
ENDMDL
MODEL 8
REMARK VINA RESULT:      -7.0      4.749      6.385
REMARK  Name = 
REMARK  9 active torsions:
REMARK  status: ('A' for Active; 'I' for Inactive)
REMARK    1  A    between atoms: C_2  and  C_3
REMARK    2  A    between atoms: C_3  and  C_6
REMARK    3  A    between atoms: C_9  and  O_10
REMARK    4  A    between atoms: O_10  and  C_11
REMARK    5  A    between atoms: C_14  and  N_15
REMARK    6  A    between atoms: C_16  and  C_18
REMARK    7  A    between atoms: C_18  and  O_19
REMARK    8  A    between atoms: O_19  and  C_20
REMARK    9  A    between atoms: C_20  and  C_22
REMARK                            x       y       z     vdW  Elec       q    Type
REMARK                         _______ _______ _______ _____ _____    ______ ____
ROOT
ATOM      1  C   UNL     1      35.520   3.928  14.530  0.00  0.00    +0.000 A 
ATOM      2  C   UNL     1      36.838   3.473  14.567  0.00  0.00    +0.000 A 
ATOM      3  C   UNL     1      37.184   2.404  15.355  0.00  0.00    +0.000 A 
ATOM      4  C   UNL     1      36.238   1.722  16.147  0.00  0.00    +0.000 A 
ATOM      5  C   UNL     1      34.949   2.188  16.095  0.00  0.00    +0.000 A 
ATOM      6  C   UNL     1      34.580   3.274  15.302  0.00  0.00    +0.000 A 
ENDROOT
BRANCH   4   7
ATOM      7  N   UNL     1      36.686   0.637  16.958  0.00  0.00    +0.000 NA
ATOM      8  C   UNL     1      36.568  -0.675  16.408  0.00  0.00    +0.000 C 
ATOM      9  O   UNL     1      36.063  -0.785  15.239  0.00  0.00    +0.000 OA
BRANCH   8  10
ATOM     10  C   UNL     1      37.019  -1.852  17.174  0.00  0.00    +0.000 C 
BRANCH  10  11
ATOM     11  O   UNL     1      38.411  -1.991  17.195  0.00  0.00    +0.000 OA
BRANCH  11  12
ATOM     12  C   UNL     1      39.169  -2.836  16.431  0.00  0.00    +0.000 C 
ATOM     13  O   UNL     1      39.457  -3.992  16.849  0.00  0.00    +0.000 OA
BRANCH  12  14
ATOM     14  C   UNL     1      39.653  -2.405  15.111  0.00  0.00    +0.000 A 
ATOM     15  C   UNL     1      40.789  -1.734  14.779  0.00  0.00    +0.000 A 
ATOM     16  C   UNL     1      40.835  -1.572  13.392  0.00  0.00    +0.000 A 
ATOM     17  C   UNL     1      39.669  -2.184  12.923  0.00  0.00    +0.000 A 
ATOM     18  N   UNL     1      38.986  -2.667  13.973  0.00  0.00    +0.000 N 
ATOM     19  C   UNL     1      37.710  -3.386  13.869  0.00  0.00    +0.000 C 
ENDBRANCH  12  14
ENDBRANCH  11  12
ENDBRANCH  10  11
ENDBRANCH   8  10
ENDBRANCH   4   7
BRANCH   1  20
ATOM     20  O   UNL     1      35.145   4.998  13.766  0.00  0.00    +0.000 OA
BRANCH  20  24
ATOM     21  C   UNL     1      34.772   8.971  14.837  0.00  0.00    +0.000 A 
ATOM     22  C   UNL     1      36.012   8.416  14.716  0.00  0.00    +0.000 A 
ATOM     23  C   UNL     1      36.147   7.093  14.360  0.00  0.00    +0.000 A 
ATOM     24  C   UNL     1      35.040   6.315  14.125  0.00  0.00    +0.000 A 
ATOM     25  C   UNL     1      33.797   6.885  14.250  0.00  0.00    +0.000 A 
ATOM     26  C   UNL     1      33.666   8.188  14.601  0.00  0.00    +0.000 A 
BRANCH  21  27
ATOM     27  C   UNL     1      34.557  10.393  15.228  0.00  0.00    +0.000 C 
ATOM     28  C   UNL     1      35.846  11.110  15.562  0.00  0.00    +0.000 C 
ATOM     29  C   UNL     1      33.737  10.359  16.509  0.00  0.00    +0.000 C 
BRANCH  27  31
ATOM     30  C   UNL     1      34.747  11.454  12.988  0.00  0.00    +0.000 C 
ATOM     31  C   UNL     1      33.810  11.098  14.131  0.00  0.00    +0.000 C 
ENDBRANCH  27  31
ENDBRANCH  21  27
ENDBRANCH  20  24
ENDBRANCH   1  20
TORSDOF 9
ENDMDL
MODEL 9
REMARK VINA RESULT:      -6.9      6.741     11.057
REMARK  Name = 
REMARK  9 active torsions:
REMARK  status: ('A' for Active; 'I' for Inactive)
REMARK    1  A    between atoms: C_2  and  C_3
REMARK    2  A    between atoms: C_3  and  C_6
REMARK    3  A    between atoms: C_9  and  O_10
REMARK    4  A    between atoms: O_10  and  C_11
REMARK    5  A    between atoms: C_14  and  N_15
REMARK    6  A    between atoms: C_16  and  C_18
REMARK    7  A    between atoms: C_18  and  O_19
REMARK    8  A    between atoms: O_19  and  C_20
REMARK    9  A    between atoms: C_20  and  C_22
REMARK                            x       y       z     vdW  Elec       q    Type
REMARK                         _______ _______ _______ _____ _____    ______ ____
ROOT
ATOM      1  C   UNL     1      44.374   6.813  21.589  0.00  0.00    +0.000 A 
ATOM      2  C   UNL     1      44.627   5.530  22.073  0.00  0.00    +0.000 A 
ATOM      3  C   UNL     1      44.980   5.337  23.386  0.00  0.00    +0.000 A 
ATOM      4  C   UNL     1      45.095   6.410  24.294  0.00  0.00    +0.000 A 
ATOM      5  C   UNL     1      44.843   7.662  23.794  0.00  0.00    +0.000 A 
ATOM      6  C   UNL     1      44.486   7.876  22.464  0.00  0.00    +0.000 A 
ENDROOT
BRANCH   4   7
ATOM      7  N   UNL     1      45.492   6.126  25.634  0.00  0.00    +0.000 NA
ATOM      8  C   UNL     1      44.472   6.157  26.633  0.00  0.00    +0.000 C 
ATOM      9  O   UNL     1      43.284   6.446  26.259  0.00  0.00    +0.000 OA
BRANCH   8  10
ATOM     10  C   UNL     1      44.794   5.864  28.042  0.00  0.00    +0.000 C 
BRANCH  10  11
ATOM     11  O   UNL     1      44.602   4.520  28.379  0.00  0.00    +0.000 OA
BRANCH  11  12
ATOM     12  C   UNL     1      43.482   3.764  28.159  0.00  0.00    +0.000 C 
ATOM     13  O   UNL     1      43.531   2.755  27.400  0.00  0.00    +0.000 OA
BRANCH  12  14
ATOM     14  C   UNL     1      42.211   4.118  28.807  0.00  0.00    +0.000 A 
ATOM     15  C   UNL     1      41.216   4.939  28.376  0.00  0.00    +0.000 A 
ATOM     16  C   UNL     1      40.187   4.944  29.321  0.00  0.00    +0.000 A 
ATOM     17  C   UNL     1      40.626   4.083  30.330  0.00  0.00    +0.000 A 
ATOM     18  N   UNL     1      41.836   3.611  29.994  0.00  0.00    +0.000 N 
ATOM     19  C   UNL     1      42.611   2.667  30.811  0.00  0.00    +0.000 C 
ENDBRANCH  12  14
ENDBRANCH  11  12
ENDBRANCH  10  11
ENDBRANCH   8  10
ENDBRANCH   4   7
BRANCH   1  20
ATOM     20  O   UNL     1      44.034   7.039  20.284  0.00  0.00    +0.000 OA
BRANCH  20  24
ATOM     21  C   UNL     1      40.522   6.167  18.289  0.00  0.00    +0.000 A 
ATOM     22  C   UNL     1      40.530   6.230  19.651  0.00  0.00    +0.000 A 
ATOM     23  C   UNL     1      41.695   6.519  20.326  0.00  0.00    +0.000 A 
ATOM     24  C   UNL     1      42.862   6.745  19.640  0.00  0.00    +0.000 A 
ATOM     25  C   UNL     1      42.843   6.680  18.269  0.00  0.00    +0.000 A 
ATOM     26  C   UNL     1      41.695   6.394  17.606  0.00  0.00    +0.000 A 
BRANCH  21  27
ATOM     27  C   UNL     1      39.298   5.850  17.501  0.00  0.00    +0.000 C 
ATOM     28  C   UNL     1      38.293   6.981  17.500  0.00  0.00    +0.000 C 
ATOM     29  C   UNL     1      38.632   4.680  18.209  0.00  0.00    +0.000 C 
BRANCH  27  31
ATOM     30  C   UNL     1      38.966   4.218  15.656  0.00  0.00    +0.000 C 
ATOM     31  C   UNL     1      39.696   5.474  16.101  0.00  0.00    +0.000 C 
ENDBRANCH  27  31
ENDBRANCH  21  27
ENDBRANCH  20  24
ENDBRANCH   1  20
TORSDOF 9
ENDMDL
MODEL 10
REMARK VINA RESULT:      -6.8     26.608     28.654
REMARK  Name = 
REMARK  9 active torsions:
REMARK  status: ('A' for Active; 'I' for Inactive)
REMARK    1  A    between atoms: C_2  and  C_3
REMARK    2  A    between atoms: C_3  and  C_6
REMARK    3  A    between atoms: C_9  and  O_10
REMARK    4  A    between atoms: O_10  and  C_11
REMARK    5  A    between atoms: C_14  and  N_15
REMARK    6  A    between atoms: C_16  and  C_18
REMARK    7  A    between atoms: C_18  and  O_19
REMARK    8  A    between atoms: O_19  and  C_20
REMARK    9  A    between atoms: C_20  and  C_22
REMARK                            x       y       z     vdW  Elec       q    Type
REMARK                         _______ _______ _______ _____ _____    ______ ____
ROOT
ATOM      1  C   UNL     1      25.413  14.809  41.003  0.00  0.00    +0.000 A 
ATOM      2  C   UNL     1      24.792  14.837  42.252  0.00  0.00    +0.000 A 
ATOM      3  C   UNL     1      24.864  13.754  43.091  0.00  0.00    +0.000 A 
ATOM      4  C   UNL     1      25.565  12.581  42.738  0.00  0.00    +0.000 A 
ATOM      5  C   UNL     1      26.165  12.577  41.506  0.00  0.00    +0.000 A 
ATOM      6  C   UNL     1      26.100  13.667  40.640  0.00  0.00    +0.000 A 
ENDROOT
BRANCH   4   7
ATOM      7  N   UNL     1      25.568  11.491  43.658  0.00  0.00    +0.000 NA
ATOM      8  C   UNL     1      24.436  10.620  43.636  0.00  0.00    +0.000 C 
ATOM      9  O   UNL     1      23.501  10.884  42.805  0.00  0.00    +0.000 OA
BRANCH   8  10
ATOM     10  C   UNL     1      24.364   9.462  44.545  0.00  0.00    +0.000 C 
BRANCH  10  11
ATOM     11  O   UNL     1      25.133   8.376  44.110  0.00  0.00    +0.000 OA
BRANCH  11  12
ATOM     12  C   UNL     1      25.487   8.077  42.822  0.00  0.00    +0.000 C 
ATOM     13  O   UNL     1      24.642   7.583  42.025  0.00  0.00    +0.000 OA
BRANCH  12  14
ATOM     14  C   UNL     1      26.858   8.333  42.355  0.00  0.00    +0.000 A 
ATOM     15  C   UNL     1      27.302   9.189  41.395  0.00  0.00    +0.000 A 
ATOM     16  C   UNL     1      28.695   9.106  41.320  0.00  0.00    +0.000 A 
ATOM     17  C   UNL     1      29.048   8.159  42.286  0.00  0.00    +0.000 A 
ATOM     18  N   UNL     1      27.930   7.716  42.881  0.00  0.00    +0.000 N 
ATOM     19  C   UNL     1      27.908   6.718  43.958  0.00  0.00    +0.000 C 
ENDBRANCH  12  14
ENDBRANCH  11  12
ENDBRANCH  10  11
ENDBRANCH   8  10
ENDBRANCH   4   7
BRANCH   1  20
ATOM     20  O   UNL     1      25.348  15.867  40.139  0.00  0.00    +0.000 OA
BRANCH  20  24
ATOM     21  C   UNL     1      26.151  15.939  36.086  0.00  0.00    +0.000 A 
ATOM     22  C   UNL     1      27.123  16.293  36.976  0.00  0.00    +0.000 A 
ATOM     23  C   UNL     1      26.865  16.273  38.329  0.00  0.00    +0.000 A 
ATOM     24  C   UNL     1      25.630  15.900  38.800  0.00  0.00    +0.000 A 
ATOM     25  C   UNL     1      24.661  15.546  37.895  0.00  0.00    +0.000 A 
ATOM     26  C   UNL     1      24.916  15.567  36.564  0.00  0.00    +0.000 A 
BRANCH  21  27
ATOM     27  C   UNL     1      26.363  15.949  34.612  0.00  0.00    +0.000 C 
ATOM     28  C   UNL     1      27.737  16.446  34.221  0.00  0.00    +0.000 C 
ATOM     29  C   UNL     1      25.365  16.951  34.049  0.00  0.00    +0.000 C 
BRANCH  27  31
ATOM     30  C   UNL     1      25.192  14.637  32.855  0.00  0.00    +0.000 C 
ATOM     31  C   UNL     1      26.106  14.572  34.068  0.00  0.00    +0.000 C 
ENDBRANCH  27  31
ENDBRANCH  21  27
ENDBRANCH  20  24
ENDBRANCH   1  20
TORSDOF 9
ENDMDL
