MODEL 1
REMARK VINA RESULT:      -8.1      0.000      0.000
REMARK  Name = 
REMARK  2 active torsions:
REMARK  status: ('A' for Active; 'I' for Inactive)
REMARK    1  A    between atoms: C_2  and  C_3
REMARK    2  A    between atoms: C_6  and  N_7
REMARK                            x       y       z     vdW  Elec       q    Type
REMARK                         _______ _______ _______ _____ _____    ______ ____
ROOT
ATOM      1  N   UNL     1      14.710  11.713  36.378  0.00  0.00    +0.000 N 
ATOM      2  C   UNL     1      13.605  11.538  37.260  0.00  0.00    +0.000 C 
ATOM      3  O   UNL     1      12.475  11.939  36.848  0.00  0.00    +0.000 OA
ATOM      4  N   UNL     1      13.802  10.938  38.534  0.00  0.00    +0.000 NA
ATOM      5  C   UNL     1      15.110  10.506  38.940  0.00  0.00    +0.000 A 
ATOM      6  C   UNL     1      15.316   9.922  40.172  0.00  0.00    +0.000 A 
ATOM      7  C   UNL     1      16.549   9.484  40.615  0.00  0.00    +0.000 A 
ATOM      8  C   UNL     1      17.631   9.654  39.759  0.00  0.00    +0.000 A 
ATOM      9  C   UNL     1      17.407  10.236  38.539  0.00  0.00    +0.000 A 
ATOM     10  C   UNL     1      16.188  10.677  38.077  0.00  0.00    +0.000 A 
ATOM     11  N   UNL     1      15.952  11.276  36.825  0.00  0.00    +0.000 N 
ATOM     12  O   UNL     1      17.009  11.433  35.993  0.00  0.00    +0.000 OA
ENDROOT
BRANCH   1  16
ATOM     13  C   UNL     1      14.244  13.441  32.549  0.00  0.00    +0.000 A 
ATOM     14  C   UNL     1      14.867  12.241  32.693  0.00  0.00    +0.000 A 
ATOM     15  C   UNL     1      15.017  11.684  33.940  0.00  0.00    +0.000 A 
ATOM     16  C   UNL     1      14.550  12.308  35.090  0.00  0.00    +0.000 A 
ATOM     17  C   UNL     1      13.925  13.516  34.930  0.00  0.00    +0.000 A 
ATOM     18  C   UNL     1      13.762  14.100  33.668  0.00  0.00    +0.000 A 
BRANCH  13  20
ATOM     19  C   UNL     1      15.172  13.517  30.249  0.00  0.00    +0.000 C 
ATOM     20  C   UNL     1      14.097  14.023  31.193  0.00  0.00    +0.000 C 
ENDBRANCH  13  20
ENDBRANCH   1  16
TORSDOF 2
ENDMDL
MODEL 2
REMARK VINA RESULT:      -7.8      1.754      7.080
REMARK  Name = 
REMARK  2 active torsions:
REMARK  status: ('A' for Active; 'I' for Inactive)
REMARK    1  A    between atoms: C_2  and  C_3
REMARK    2  A    between atoms: C_6  and  N_7
REMARK                            x       y       z     vdW  Elec       q    Type
REMARK                         _______ _______ _______ _____ _____    ______ ____
ROOT
ATOM      1  N   UNL     1      16.259  11.185  34.928  0.00  0.00    +0.000 N 
ATOM      2  C   UNL     1      16.758  10.488  33.791  0.00  0.00    +0.000 C 
ATOM      3  O   UNL     1      17.576   9.545  34.010  0.00  0.00    +0.000 OA
ATOM      4  N   UNL     1      16.335  10.866  32.487  0.00  0.00    +0.000 NA
ATOM      5  C   UNL     1      15.406  11.947  32.308  0.00  0.00    +0.000 A 
ATOM      6  C   UNL     1      14.986  12.323  31.049  0.00  0.00    +0.000 A 
ATOM      7  C   UNL     1      14.093  13.351  30.815  0.00  0.00    +0.000 A 
ATOM      8  C   UNL     1      13.605  14.034  31.923  0.00  0.00    +0.000 A 
ATOM      9  C   UNL     1      14.033  13.646  33.165  0.00  0.00    +0.000 A 
ATOM     10  C   UNL     1      14.920  12.625  33.420  0.00  0.00    +0.000 A 
ATOM     11  N   UNL     1      15.363  12.222  34.694  0.00  0.00    +0.000 N 
ATOM     12  O   UNL     1      14.879  12.888  35.769  0.00  0.00    +0.000 OA
ENDROOT
BRANCH   1  16
ATOM     13  C   UNL     1      17.406  10.131  38.858  0.00  0.00    +0.000 A 
ATOM     14  C   UNL     1      16.096  10.330  38.552  0.00  0.00    +0.000 A 
ATOM     15  C   UNL     1      15.728  10.674  37.273  0.00  0.00    +0.000 A 
ATOM     16  C   UNL     1      16.659  10.832  36.253  0.00  0.00    +0.000 A 
ATOM     17  C   UNL     1      17.974  10.628  36.577  0.00  0.00    +0.000 A 
ATOM     18  C   UNL     1      18.369  10.277  37.873  0.00  0.00    +0.000 A 
BRANCH  13  20
ATOM     19  C   UNL     1      16.552   9.493  41.098  0.00  0.00    +0.000 C 
ATOM     20  C   UNL     1      17.778   9.764  40.246  0.00  0.00    +0.000 C 
ENDBRANCH  13  20
ENDBRANCH   1  16
TORSDOF 2
ENDMDL
MODEL 3
REMARK VINA RESULT:      -7.7      2.029      6.880
REMARK  Name = 
REMARK  2 active torsions:
REMARK  status: ('A' for Active; 'I' for Inactive)
REMARK    1  A    between atoms: C_2  and  C_3
REMARK    2  A    between atoms: C_6  and  N_7
REMARK                            x       y       z     vdW  Elec       q    Type
REMARK                         _______ _______ _______ _____ _____    ______ ____
ROOT
ATOM      1  N   UNL     1      16.731  11.334  36.022  0.00  0.00    +0.000 N 
ATOM      2  C   UNL     1      15.623  12.227  36.070  0.00  0.00    +0.000 C 
ATOM      3  O   UNL     1      15.339  12.727  37.200  0.00  0.00    +0.000 OA
ATOM      4  N   UNL     1      14.895  12.518  34.883  0.00  0.00    +0.000 NA
ATOM      5  C   UNL     1      15.269  11.916  33.634  0.00  0.00    +0.000 A 
ATOM      6  C   UNL     1      14.574  12.190  32.475  0.00  0.00    +0.000 A 
ATOM      7  C   UNL     1      14.889  11.644  31.246  0.00  0.00    +0.000 A 
ATOM      8  C   UNL     1      15.969  10.771  31.195  0.00  0.00    +0.000 A 
ATOM      9  C   UNL     1      16.648  10.511  32.356  0.00  0.00    +0.000 A 
ATOM     10  C   UNL     1      16.352  11.044  33.590  0.00  0.00    +0.000 A 
ATOM     11  N   UNL     1      17.047  10.781  34.786  0.00  0.00    +0.000 N 
ATOM     12  O   UNL     1      18.102   9.934  34.728  0.00  0.00    +0.000 OA
ENDROOT
BRANCH   1  16
ATOM     13  C   UNL     1      18.951  10.374  39.490  0.00  0.00    +0.000 A 
ATOM     14  C   UNL     1      17.803   9.705  39.198  0.00  0.00    +0.000 A 
ATOM     15  C   UNL     1      17.084  10.022  38.070  0.00  0.00    +0.000 A 
ATOM     16  C   UNL     1      17.487  11.021  37.192  0.00  0.00    +0.000 A 
ATOM     17  C   UNL     1      18.645  11.686  37.499  0.00  0.00    +0.000 A 
ATOM     18  C   UNL     1      19.391  11.378  38.643  0.00  0.00    +0.000 A 
BRANCH  13  20
ATOM     19  C   UNL     1      18.783   9.548  41.823  0.00  0.00    +0.000 C 
ATOM     20  C   UNL     1      19.707  10.016  40.714  0.00  0.00    +0.000 C 
ENDBRANCH  13  20
ENDBRANCH   1  16
TORSDOF 2
ENDMDL
MODEL 4
REMARK VINA RESULT:      -7.3     20.076     21.207
REMARK  Name = 
REMARK  2 active torsions:
REMARK  status: ('A' for Active; 'I' for Inactive)
REMARK    1  A    between atoms: C_2  and  C_3
REMARK    2  A    between atoms: C_6  and  N_7
REMARK                            x       y       z     vdW  Elec       q    Type
REMARK                         _______ _______ _______ _____ _____    ______ ____
ROOT
ATOM      1  N   UNL     1      33.990   3.157  34.939  0.00  0.00    +0.000 N 
ATOM      2  C   UNL     1      33.555   2.706  33.660  0.00  0.00    +0.000 C 
ATOM      3  O   UNL     1      33.560   3.558  32.721  0.00  0.00    +0.000 OA
ATOM      4  N   UNL     1      33.143   1.357  33.487  0.00  0.00    +0.000 NA
ATOM      5  C   UNL     1      33.162   0.442  34.594  0.00  0.00    +0.000 A 
ATOM      6  C   UNL     1      32.767  -0.870  34.441  0.00  0.00    +0.000 A 
ATOM      7  C   UNL     1      32.766  -1.795  35.467  0.00  0.00    +0.000 A 
ATOM      8  C   UNL     1      33.188  -1.359  36.717  0.00  0.00    +0.000 A 
ATOM      9  C   UNL     1      33.578  -0.052  36.851  0.00  0.00    +0.000 A 
ATOM     10  C   UNL     1      33.587   0.885  35.843  0.00  0.00    +0.000 A 
ATOM     11  N   UNL     1      33.986   2.228  35.974  0.00  0.00    +0.000 N 
ATOM     12  O   UNL     1      34.402   2.645  37.194  0.00  0.00    +0.000 OA
ENDROOT
BRANCH   1  16
ATOM     13  C   UNL     1      35.278   7.137  35.550  0.00  0.00    +0.000 A 
ATOM     14  C   UNL     1      36.179   6.153  35.285  0.00  0.00    +0.000 A 
ATOM     15  C   UNL     1      35.755   4.860  35.089  0.00  0.00    +0.000 A 
ATOM     16  C   UNL     1      34.413   4.504  35.151  0.00  0.00    +0.000 A 
ATOM     17  C   UNL     1      33.518   5.506  35.419  0.00  0.00    +0.000 A 
ATOM     18  C   UNL     1      33.930   6.829  35.622  0.00  0.00    +0.000 A 
BRANCH  13  20
ATOM     19  C   UNL     1      34.624   9.461  36.119  0.00  0.00    +0.000 C 
ATOM     20  C   UNL     1      35.761   8.523  35.761  0.00  0.00    +0.000 C 
ENDBRANCH  13  20
ENDBRANCH   1  16
TORSDOF 2
ENDMDL
MODEL 5
REMARK VINA RESULT:      -7.1     20.371     22.132
REMARK  Name = 
REMARK  2 active torsions:
REMARK  status: ('A' for Active; 'I' for Inactive)
REMARK    1  A    between atoms: C_2  and  C_3
REMARK    2  A    between atoms: C_6  and  N_7
REMARK                            x       y       z     vdW  Elec       q    Type
REMARK                         _______ _______ _______ _____ _____    ______ ____
ROOT
ATOM      1  N   UNL     1      33.686   0.995  35.636  0.00  0.00    +0.000 N 
ATOM      2  C   UNL     1      34.040   1.268  36.988  0.00  0.00    +0.000 C 
ATOM      3  O   UNL     1      34.130   0.273  37.768  0.00  0.00    +0.000 OA
ATOM      4  N   UNL     1      34.272   2.608  37.403  0.00  0.00    +0.000 NA
ATOM      5  C   UNL     1      34.151   3.691  36.467  0.00  0.00    +0.000 A 
ATOM      6  C   UNL     1      34.374   4.996  36.855  0.00  0.00    +0.000 A 
ATOM      7  C   UNL     1      34.277   6.076  36.000  0.00  0.00    +0.000 A 
ATOM      8  C   UNL     1      33.931   5.814  34.680  0.00  0.00    +0.000 A 
ATOM      9  C   UNL     1      33.713   4.513  34.312  0.00  0.00    +0.000 A 
ATOM     10  C   UNL     1      33.806   3.422  35.147  0.00  0.00    +0.000 A 
ATOM     11  N   UNL     1      33.584   2.082  34.775  0.00  0.00    +0.000 N 
ATOM     12  O   UNL     1      33.253   1.833  33.486  0.00  0.00    +0.000 OA
ENDROOT
BRANCH   1  16
ATOM     13  C   UNL     1      33.022  -2.956  34.288  0.00  0.00    +0.000 A 
ATOM     14  C   UNL     1      34.234  -2.364  34.117  0.00  0.00    +0.000 A 
ATOM     15  C   UNL     1      34.445  -1.078  34.556  0.00  0.00    +0.000 A 
ATOM     16  C   UNL     1      33.449  -0.338  35.182  0.00  0.00    +0.000 A 
ATOM     17  C   UNL     1      32.234  -0.948  35.347  0.00  0.00    +0.000 A 
ATOM     18  C   UNL     1      31.999  -2.256  34.907  0.00  0.00    +0.000 A 
BRANCH  13  20
ATOM     19  C   UNL     1      33.576  -4.600  32.514  0.00  0.00    +0.000 C 
ATOM     20  C   UNL     1      32.819  -4.343  33.804  0.00  0.00    +0.000 C 
ENDBRANCH  13  20
ENDBRANCH   1  16
TORSDOF 2
ENDMDL
MODEL 6
REMARK VINA RESULT:      -7.0     20.532     22.204
REMARK  Name = 
REMARK  2 active torsions:
REMARK  status: ('A' for Active; 'I' for Inactive)
REMARK    1  A    between atoms: C_2  and  C_3
REMARK    2  A    between atoms: C_6  and  N_7
REMARK                            x       y       z     vdW  Elec       q    Type
REMARK                         _______ _______ _______ _____ _____    ______ ____
ROOT
ATOM      1  N   UNL     1      33.676   1.112  34.790  0.00  0.00    +0.000 N 
ATOM      2  C   UNL     1      33.723   1.733  33.509  0.00  0.00    +0.000 C 
ATOM      3  O   UNL     1      33.618   0.973  32.500  0.00  0.00    +0.000 OA
ATOM      4  N   UNL     1      33.881   3.143  33.411  0.00  0.00    +0.000 NA
ATOM      5  C   UNL     1      33.995   3.947  34.596  0.00  0.00    +0.000 A 
ATOM      6  C   UNL     1      34.148   5.315  34.515  0.00  0.00    +0.000 A 
ATOM      7  C   UNL     1      34.259   6.139  35.618  0.00  0.00    +0.000 A 
ATOM      8  C   UNL     1      34.216   5.537  36.870  0.00  0.00    +0.000 A 
ATOM      9  C   UNL     1      34.064   4.177  36.930  0.00  0.00    +0.000 A 
ATOM     10  C   UNL     1      33.950   3.338  35.845  0.00  0.00    +0.000 A 
ATOM     11  N   UNL     1      33.792   1.940  35.901  0.00  0.00    +0.000 N 
ATOM     12  O   UNL     1      33.745   1.360  37.124  0.00  0.00    +0.000 OA
ENDROOT
BRANCH   1  16
ATOM     13  C   UNL     1      33.162  -3.065  35.190  0.00  0.00    +0.000 A 
ATOM     14  C   UNL     1      32.083  -2.237  35.156  0.00  0.00    +0.000 A 
ATOM     15  C   UNL     1      32.256  -0.880  35.027  0.00  0.00    +0.000 A 
ATOM     16  C   UNL     1      33.515  -0.300  34.928  0.00  0.00    +0.000 A 
ATOM     17  C   UNL     1      34.592  -1.146  34.964  0.00  0.00    +0.000 A 
ATOM     18  C   UNL     1      34.437  -2.532  35.095  0.00  0.00    +0.000 A 
BRANCH  13  20
ATOM     19  C   UNL     1      32.119  -5.082  34.193  0.00  0.00    +0.000 C 
ATOM     20  C   UNL     1      32.950  -4.525  35.333  0.00  0.00    +0.000 C 
ENDBRANCH  13  20
ENDBRANCH   1  16
TORSDOF 2
ENDMDL
MODEL 7
REMARK VINA RESULT:      -6.8      2.837      8.334
REMARK  Name = 
REMARK  2 active torsions:
REMARK  status: ('A' for Active; 'I' for Inactive)
REMARK    1  A    between atoms: C_2  and  C_3
REMARK    2  A    between atoms: C_6  and  N_7
REMARK                            x       y       z     vdW  Elec       q    Type
REMARK                         _______ _______ _______ _____ _____    ______ ____
ROOT
ATOM      1  N   UNL     1      16.314   9.741  39.925  0.00  0.00    +0.000 N 
ATOM      2  C   UNL     1      17.545   9.771  39.210  0.00  0.00    +0.000 C 
ATOM      3  O   UNL     1      18.546   9.231  39.769  0.00  0.00    +0.000 OA
ATOM      4  N   UNL     1      17.607  10.389  37.930  0.00  0.00    +0.000 NA
ATOM      5  C   UNL     1      16.434  10.985  37.353  0.00  0.00    +0.000 A 
ATOM      6  C   UNL     1      16.479  11.586  36.112  0.00  0.00    +0.000 A 
ATOM      7  C   UNL     1      15.385  12.171  35.505  0.00  0.00    +0.000 A 
ATOM      8  C   UNL     1      14.181  12.145  36.200  0.00  0.00    +0.000 A 
ATOM      9  C   UNL     1      14.156  11.543  37.431  0.00  0.00    +0.000 A 
ATOM     10  C   UNL     1      15.233  10.954  38.053  0.00  0.00    +0.000 A 
ATOM     11  N   UNL     1      15.213  10.333  39.316  0.00  0.00    +0.000 N 
ATOM     12  O   UNL     1      14.036  10.307  39.986  0.00  0.00    +0.000 OA
ENDROOT
BRANCH   1  16
ATOM     13  C   UNL     1      16.016   7.958  43.746  0.00  0.00    +0.000 A 
ATOM     14  C   UNL     1      16.378   9.263  43.620  0.00  0.00    +0.000 A 
ATOM     15  C   UNL     1      16.475   9.838  42.375  0.00  0.00    +0.000 A 
ATOM     16  C   UNL     1      16.213   9.127  41.210  0.00  0.00    +0.000 A 
ATOM     17  C   UNL     1      15.849   7.814  41.353  0.00  0.00    +0.000 A 
ATOM     18  C   UNL     1      15.745   7.211  42.612  0.00  0.00    +0.000 A 
BRANCH  13  20
ATOM     19  C   UNL     1      14.922   6.219  45.137  0.00  0.00    +0.000 C 
ATOM     20  C   UNL     1      15.921   7.360  45.100  0.00  0.00    +0.000 C 
ENDBRANCH  13  20
ENDBRANCH   1  16
TORSDOF 2
ENDMDL
MODEL 8
REMARK VINA RESULT:      -6.7     18.565     21.160
REMARK  Name = 
REMARK  2 active torsions:
REMARK  status: ('A' for Active; 'I' for Inactive)
REMARK    1  A    between atoms: C_2  and  C_3
REMARK    2  A    between atoms: C_6  and  N_7
REMARK                            x       y       z     vdW  Elec       q    Type
REMARK                         _______ _______ _______ _____ _____    ______ ____
ROOT
ATOM      1  N   UNL     1      28.539  23.662  25.618  0.00  0.00    +0.000 N 
ATOM      2  C   UNL     1      29.379  22.662  26.186  0.00  0.00    +0.000 C 
ATOM      3  O   UNL     1      30.336  22.242  25.468  0.00  0.00    +0.000 OA
ATOM      4  N   UNL     1      29.122  22.184  27.500  0.00  0.00    +0.000 NA
ATOM      5  C   UNL     1      28.020  22.703  28.261  0.00  0.00    +0.000 A 
ATOM      6  C   UNL     1      27.760  22.249  29.537  0.00  0.00    +0.000 A 
ATOM      7  C   UNL     1      26.718  22.712  30.317  0.00  0.00    +0.000 A 
ATOM      8  C   UNL     1      25.894  23.687  29.765  0.00  0.00    +0.000 A 
ATOM      9  C   UNL     1      26.168  24.126  28.497  0.00  0.00    +0.000 A 
ATOM     10  C   UNL     1      27.201  23.679  27.704  0.00  0.00    +0.000 A 
ATOM     11  N   UNL     1      27.487  24.126  26.400  0.00  0.00    +0.000 N 
ATOM     12  O   UNL     1      26.685  25.080  25.871  0.00  0.00    +0.000 OA
ENDROOT
BRANCH   1  16
ATOM     13  C   UNL     1      29.243  25.185  21.737  0.00  0.00    +0.000 A 
ATOM     14  C   UNL     1      29.706  25.846  22.833  0.00  0.00    +0.000 A 
ATOM     15  C   UNL     1      29.473  25.347  24.092  0.00  0.00    +0.000 A 
ATOM     16  C   UNL     1      28.768  24.168  24.302  0.00  0.00    +0.000 A 
ATOM     17  C   UNL     1      28.308  23.514  23.190  0.00  0.00    +0.000 A 
ATOM     18  C   UNL     1      28.535  24.006  21.899  0.00  0.00    +0.000 A 
BRANCH  13  20
ATOM     19  C   UNL     1      29.476  27.261  20.400  0.00  0.00    +0.000 C 
ATOM     20  C   UNL     1      29.504  25.745  20.390  0.00  0.00    +0.000 C 
ENDBRANCH  13  20
ENDBRANCH   1  16
TORSDOF 2
ENDMDL
MODEL 9
REMARK VINA RESULT:      -6.7     19.838     22.132
REMARK  Name = 
REMARK  2 active torsions:
REMARK  status: ('A' for Active; 'I' for Inactive)
REMARK    1  A    between atoms: C_2  and  C_3
REMARK    2  A    between atoms: C_6  and  N_7
REMARK                            x       y       z     vdW  Elec       q    Type
REMARK                         _______ _______ _______ _____ _____    ______ ____
ROOT
ATOM      1  N   UNL     1      30.323  22.976  26.056  0.00  0.00    +0.000 N 
ATOM      2  C   UNL     1      30.764  23.103  24.708  0.00  0.00    +0.000 C 
ATOM      3  O   UNL     1      32.017  23.096  24.512  0.00  0.00    +0.000 OA
ATOM      4  N   UNL     1      29.812  23.231  23.659  0.00  0.00    +0.000 NA
ATOM      5  C   UNL     1      28.406  23.233  23.950  0.00  0.00    +0.000 A 
ATOM      6  C   UNL     1      27.471  23.354  22.943  0.00  0.00    +0.000 A 
ATOM      7  C   UNL     1      26.107  23.359  23.161  0.00  0.00    +0.000 A 
ATOM      8  C   UNL     1      25.672  23.237  24.476  0.00  0.00    +0.000 A 
ATOM      9  C   UNL     1      26.614  23.117  25.463  0.00  0.00    +0.000 A 
ATOM     10  C   UNL     1      27.977  23.109  25.267  0.00  0.00    +0.000 A 
ATOM     11  N   UNL     1      28.950  22.985  26.277  0.00  0.00    +0.000 N 
ATOM     12  O   UNL     1      28.519  22.861  27.555  0.00  0.00    +0.000 OA
ENDROOT
BRANCH   1  16
ATOM     13  C   UNL     1      33.062  22.545  29.247  0.00  0.00    +0.000 A 
ATOM     14  C   UNL     1      32.282  21.499  28.860  0.00  0.00    +0.000 A 
ATOM     15  C   UNL     1      31.392  21.645  27.823  0.00  0.00    +0.000 A 
ATOM     16  C   UNL     1      31.249  22.843  27.134  0.00  0.00    +0.000 A 
ATOM     17  C   UNL     1      32.041  23.887  27.535  0.00  0.00    +0.000 A 
ATOM     18  C   UNL     1      32.954  23.758  28.589  0.00  0.00    +0.000 A 
BRANCH  13  20
ATOM     19  C   UNL     1      33.681  21.129  31.187  0.00  0.00    +0.000 C 
ATOM     20  C   UNL     1      34.013  22.363  30.370  0.00  0.00    +0.000 C 
ENDBRANCH  13  20
ENDBRANCH   1  16
TORSDOF 2
ENDMDL
MODEL 10
REMARK VINA RESULT:      -6.6      5.844      8.533
REMARK  Name = 
REMARK  2 active torsions:
REMARK  status: ('A' for Active; 'I' for Inactive)
REMARK    1  A    between atoms: C_2  and  C_3
REMARK    2  A    between atoms: C_6  and  N_7
REMARK                            x       y       z     vdW  Elec       q    Type
REMARK                         _______ _______ _______ _____ _____    ______ ____
ROOT
ATOM      1  N   UNL     1      19.816   9.172  38.621  0.00  0.00    +0.000 N 
ATOM      2  C   UNL     1      19.523   9.494  37.265  0.00  0.00    +0.000 C 
ATOM      3  O   UNL     1      18.306   9.439  36.914  0.00  0.00    +0.000 OA
ATOM      4  N   UNL     1      20.574   9.855  36.378  0.00  0.00    +0.000 NA
ATOM      5  C   UNL     1      21.934   9.897  36.840  0.00  0.00    +0.000 A 
ATOM      6  C   UNL     1      22.963  10.246  35.992  0.00  0.00    +0.000 A 
ATOM      7  C   UNL     1      24.288  10.307  36.380  0.00  0.00    +0.000 A 
ATOM      8  C   UNL     1      24.579   9.992  37.702  0.00  0.00    +0.000 A 
ATOM      9  C   UNL     1      23.544   9.648  38.530  0.00  0.00    +0.000 A 
ATOM     10  C   UNL     1      22.218   9.582  38.165  0.00  0.00    +0.000 A 
ATOM     11  N   UNL     1      21.150   9.229  39.011  0.00  0.00    +0.000 N 
ATOM     12  O   UNL     1      21.440   8.929  40.300  0.00  0.00    +0.000 OA
ENDROOT
BRANCH   1  16
ATOM     13  C   UNL     1      16.754   8.131  41.342  0.00  0.00    +0.000 A 
ATOM     14  C   UNL     1      17.007   9.436  41.054  0.00  0.00    +0.000 A 
ATOM     15  C   UNL     1      18.005   9.769  40.170  0.00  0.00    +0.000 A 
ATOM     16  C   UNL     1      18.787   8.808  39.540  0.00  0.00    +0.000 A 
ATOM     17  C   UNL     1      18.520   7.498  39.840  0.00  0.00    +0.000 A 
ATOM     18  C   UNL     1      17.508   7.138  40.738  0.00  0.00    +0.000 A 
BRANCH  13  20
ATOM     19  C   UNL     1      16.215   7.079  43.523  0.00  0.00    +0.000 C 
ATOM     20  C   UNL     1      15.674   7.797  42.301  0.00  0.00    +0.000 C 
ENDBRANCH  13  20
ENDBRANCH   1  16
TORSDOF 2
ENDMDL
