MODEL 1
REMARK VINA RESULT:      -6.0      0.000      0.000
REMARK  Name = 
REMARK  4 active torsions:
REMARK  status: ('A' for Active; 'I' for Inactive)
REMARK    1  A    between atoms: C_2  and  C_3
REMARK    2  A    between atoms: C_3  and  C_4
REMARK    3  A    between atoms: C_4  and  C_5
REMARK    4  A    between atoms: C_5  and  C_8
REMARK                            x       y       z     vdW  Elec       q    Type
REMARK                         _______ _______ _______ _____ _____    ______ ____
ROOT
ATOM      1  C   UNL     1      29.286  23.870  24.299  0.00  0.00    +0.000 A 
ATOM      2  C   UNL     1      29.732  24.063  23.037  0.00  0.00    +0.000 A 
ATOM      3  C   UNL     1      29.050  24.546  21.957  0.00  0.00    +0.000 A 
ATOM      4  N   UNL     1      29.624  24.668  20.827  0.00  0.00    +0.000 NA
ATOM      5  S   UNL     1      27.430  24.922  22.362  0.00  0.00    +0.000 S 
ATOM      6  C   UNL     1      27.040  24.616  23.992  0.00  0.00    +0.000 A 
ATOM      7  N   UNL     1      25.923  24.758  24.768  0.00  0.00    +0.000 NA
ATOM      8  C   UNL     1      26.195  24.362  26.016  0.00  0.00    +0.000 A 
ATOM      9  C   UNL     1      25.421  24.311  27.160  0.00  0.00    +0.000 A 
ATOM     10  C   UNL     1      25.948  23.857  28.346  0.00  0.00    +0.000 A 
ATOM     11  C   UNL     1      27.280  23.448  28.370  0.00  0.00    +0.000 A 
ATOM     12  C   UNL     1      28.015  23.510  27.222  0.00  0.00    +0.000 A 
ATOM     13  C   UNL     1      27.526  23.956  26.027  0.00  0.00    +0.000 A 
ATOM     14  N   UNL     1      28.029  24.124  24.754  0.00  0.00    +0.000 N 
ENDROOT
BRANCH   1  15
ATOM     15  C   UNL     1      30.299  23.311  25.268  0.00  0.00    +0.000 C 
ATOM     16  C   UNL     1      31.564  22.944  24.535  0.00  0.00    +0.000 C 
ATOM     17  O   UNL     1      29.823  22.128  25.833  0.00  0.00    +0.000 OA
BRANCH  15  18
ATOM     18  C   UNL     1      30.549  24.274  26.413  0.00  0.00    +0.000 C 
BRANCH  18  19
ATOM     19  C   UNL     1      31.868  23.925  27.116  0.00  0.00    +0.000 C 
BRANCH  19  21
ATOM     20  C   UNL     1      31.804  22.027  28.734  0.00  0.00    +0.000 C 
ATOM     21  C   UNL     1      31.550  23.535  28.569  0.00  0.00    +0.000 C 
ENDBRANCH  19  21
ENDBRANCH  18  19
ENDBRANCH  15  18
ENDBRANCH   1  15
TORSDOF 4
ENDMDL
MODEL 2
REMARK VINA RESULT:      -5.8      1.503      1.872
REMARK  Name = 
REMARK  4 active torsions:
REMARK  status: ('A' for Active; 'I' for Inactive)
REMARK    1  A    between atoms: C_2  and  C_3
REMARK    2  A    between atoms: C_3  and  C_4
REMARK    3  A    between atoms: C_4  and  C_5
REMARK    4  A    between atoms: C_5  and  C_8
REMARK                            x       y       z     vdW  Elec       q    Type
REMARK                         _______ _______ _______ _____ _____    ______ ____
ROOT
ATOM      1  C   UNL     1      28.567  23.111  25.431  0.00  0.00    +0.000 A 
ATOM      2  C   UNL     1      28.470  23.172  24.083  0.00  0.00    +0.000 A 
ATOM      3  C   UNL     1      27.371  23.449  23.321  0.00  0.00    +0.000 A 
ATOM      4  N   UNL     1      27.449  23.468  22.050  0.00  0.00    +0.000 NA
ATOM      5  S   UNL     1      25.993  23.736  24.296  0.00  0.00    +0.000 S 
ATOM      6  C   UNL     1      26.298  23.617  25.967  0.00  0.00    +0.000 A 
ATOM      7  N   UNL     1      25.553  23.766  27.104  0.00  0.00    +0.000 NA
ATOM      8  C   UNL     1      26.330  23.562  28.175  0.00  0.00    +0.000 A 
ATOM      9  C   UNL     1      26.064  23.598  29.531  0.00  0.00    +0.000 A 
ATOM     10  C   UNL     1      27.058  23.352  30.449  0.00  0.00    +0.000 A 
ATOM     11  C   UNL     1      28.339  23.063  29.983  0.00  0.00    +0.000 A 
ATOM     12  C   UNL     1      28.565  23.035  28.637  0.00  0.00    +0.000 A 
ATOM     13  C   UNL     1      27.605  23.276  27.697  0.00  0.00    +0.000 A 
ATOM     14  N   UNL     1      27.558  23.316  26.319  0.00  0.00    +0.000 N 
ENDROOT
BRANCH   1  15
ATOM     15  C   UNL     1      29.936  22.773  25.968  0.00  0.00    +0.000 C 
ATOM     16  C   UNL     1      30.868  22.439  24.830  0.00  0.00    +0.000 C 
ATOM     17  O   UNL     1      29.873  21.630  26.764  0.00  0.00    +0.000 OA
BRANCH  15  18
ATOM     18  C   UNL     1      30.470  23.889  26.846  0.00  0.00    +0.000 C 
BRANCH  18  19
ATOM     19  C   UNL     1      31.981  23.720  27.053  0.00  0.00    +0.000 C 
BRANCH  19  21
ATOM     20  C   UNL     1      32.397  22.209  28.995  0.00  0.00    +0.000 C 
ATOM     21  C   UNL     1      32.257  23.679  28.566  0.00  0.00    +0.000 C 
ENDBRANCH  19  21
ENDBRANCH  18  19
ENDBRANCH  15  18
ENDBRANCH   1  15
TORSDOF 4
ENDMDL
MODEL 3
REMARK VINA RESULT:      -5.6     32.944     33.639
REMARK  Name = 
REMARK  4 active torsions:
REMARK  status: ('A' for Active; 'I' for Inactive)
REMARK    1  A    between atoms: C_2  and  C_3
REMARK    2  A    between atoms: C_3  and  C_4
REMARK    3  A    between atoms: C_4  and  C_5
REMARK    4  A    between atoms: C_5  and  C_8
REMARK                            x       y       z     vdW  Elec       q    Type
REMARK                         _______ _______ _______ _____ _____    ______ ____
ROOT
ATOM      1  C   UNL     1      21.661  -9.231  25.764  0.00  0.00    +0.000 A 
ATOM      2  C   UNL     1      22.854  -9.526  25.200  0.00  0.00    +0.000 A 
ATOM      3  C   UNL     1      23.685  -8.708  24.489  0.00  0.00    +0.000 A 
ATOM      4  N   UNL     1      24.785  -9.147  24.020  0.00  0.00    +0.000 NA
ATOM      5  S   UNL     1      23.036  -7.130  24.351  0.00  0.00    +0.000 S 
ATOM      6  C   UNL     1      21.529  -6.937  25.120  0.00  0.00    +0.000 A 
ATOM      7  N   UNL     1      20.650  -5.904  25.293  0.00  0.00    +0.000 NA
ATOM      8  C   UNL     1      19.601  -6.326  26.009  0.00  0.00    +0.000 A 
ATOM      9  C   UNL     1      18.463  -5.680  26.451  0.00  0.00    +0.000 A 
ATOM     10  C   UNL     1      17.516  -6.349  27.191  0.00  0.00    +0.000 A 
ATOM     11  C   UNL     1      17.730  -7.694  27.485  0.00  0.00    +0.000 A 
ATOM     12  C   UNL     1      18.866  -8.301  27.032  0.00  0.00    +0.000 A 
ATOM     13  C   UNL     1      19.827  -7.668  26.297  0.00  0.00    +0.000 A 
ATOM     14  N   UNL     1      21.033  -8.025  25.732  0.00  0.00    +0.000 N 
ENDROOT
BRANCH   1  15
ATOM     15  C   UNL     1      20.985 -10.371  26.485  0.00  0.00    +0.000 C 
ATOM     16  C   UNL     1      21.724 -11.658  26.222  0.00  0.00    +0.000 C 
ATOM     17  O   UNL     1      19.695 -10.557  25.988  0.00  0.00    +0.000 OA
BRANCH  15  18
ATOM     18  C   UNL     1      20.844 -10.075  27.966  0.00  0.00    +0.000 C 
BRANCH  18  19
ATOM     19  C   UNL     1      20.350 -11.324  28.709  0.00  0.00    +0.000 C 
BRANCH  19  21
ATOM     20  C   UNL     1      19.728  -9.771  30.561  0.00  0.00    +0.000 C 
ATOM     21  C   UNL     1      19.213 -10.903  29.655  0.00  0.00    +0.000 C 
ENDBRANCH  19  21
ENDBRANCH  18  19
ENDBRANCH  15  18
ENDBRANCH   1  15
TORSDOF 4
ENDMDL
MODEL 4
REMARK VINA RESULT:      -5.4      2.455      4.810
REMARK  Name = 
REMARK  4 active torsions:
REMARK  status: ('A' for Active; 'I' for Inactive)
REMARK    1  A    between atoms: C_2  and  C_3
REMARK    2  A    between atoms: C_3  and  C_4
REMARK    3  A    between atoms: C_4  and  C_5
REMARK    4  A    between atoms: C_5  and  C_8
REMARK                            x       y       z     vdW  Elec       q    Type
REMARK                         _______ _______ _______ _____ _____    ______ ____
ROOT
ATOM      1  C   UNL     1      27.483  24.802  24.829  0.00  0.00    +0.000 A 
ATOM      2  C   UNL     1      28.070  24.843  23.611  0.00  0.00    +0.000 A 
ATOM      3  C   UNL     1      29.035  24.022  23.103  0.00  0.00    +0.000 A 
ATOM      4  N   UNL     1      29.486  24.199  21.925  0.00  0.00    +0.000 NA
ATOM      5  S   UNL     1      29.491  22.822  24.235  0.00  0.00    +0.000 S 
ATOM      6  C   UNL     1      28.652  22.919  25.714  0.00  0.00    +0.000 A 
ATOM      7  N   UNL     1      28.653  22.207  26.881  0.00  0.00    +0.000 NA
ATOM      8  C   UNL     1      27.759  22.734  27.726  0.00  0.00    +0.000 A 
ATOM      9  C   UNL     1      27.382  22.387  29.009  0.00  0.00    +0.000 A 
ATOM     10  C   UNL     1      26.414  23.102  29.675  0.00  0.00    +0.000 A 
ATOM     11  C   UNL     1      25.822  24.185  29.028  0.00  0.00    +0.000 A 
ATOM     12  C   UNL     1      26.220  24.500  27.761  0.00  0.00    +0.000 A 
ATOM     13  C   UNL     1      27.176  23.813  27.069  0.00  0.00    +0.000 A 
ATOM     14  N   UNL     1      27.749  23.907  25.818  0.00  0.00    +0.000 N 
ENDROOT
BRANCH   1  15
ATOM     15  C   UNL     1      26.445  25.866  25.086  0.00  0.00    +0.000 C 
ATOM     16  C   UNL     1      26.477  26.893  23.983  0.00  0.00    +0.000 C 
ATOM     17  O   UNL     1      26.742  26.553  26.263  0.00  0.00    +0.000 OA
BRANCH  15  18
ATOM     18  C   UNL     1      25.069  25.254  25.271  0.00  0.00    +0.000 C 
BRANCH  18  19
ATOM     19  C   UNL     1      23.992  26.344  25.179  0.00  0.00    +0.000 C 
BRANCH  19  21
ATOM     20  C   UNL     1      21.749  26.432  26.269  0.00  0.00    +0.000 C 
ATOM     21  C   UNL     1      23.264  26.416  26.532  0.00  0.00    +0.000 C 
ENDBRANCH  19  21
ENDBRANCH  18  19
ENDBRANCH  15  18
ENDBRANCH   1  15
TORSDOF 4
ENDMDL
MODEL 5
REMARK VINA RESULT:      -5.4      2.626      4.474
REMARK  Name = 
REMARK  4 active torsions:
REMARK  status: ('A' for Active; 'I' for Inactive)
REMARK    1  A    between atoms: C_2  and  C_3
REMARK    2  A    between atoms: C_3  and  C_4
REMARK    3  A    between atoms: C_4  and  C_5
REMARK    4  A    between atoms: C_5  and  C_8
REMARK                            x       y       z     vdW  Elec       q    Type
REMARK                         _______ _______ _______ _____ _____    ______ ____
ROOT
ATOM      1  C   UNL     1      29.993  23.566  26.008  0.00  0.00    +0.000 A 
ATOM      2  C   UNL     1      30.412  23.312  27.268  0.00  0.00    +0.000 A 
ATOM      3  C   UNL     1      29.697  22.816  28.320  0.00  0.00    +0.000 A 
ATOM      4  N   UNL     1      30.249  22.634  29.454  0.00  0.00    +0.000 NA
ATOM      5  S   UNL     1      28.071  22.514  27.880  0.00  0.00    +0.000 S 
ATOM      6  C   UNL     1      27.717  22.890  26.257  0.00  0.00    +0.000 A 
ATOM      7  N   UNL     1      26.608  22.816  25.461  0.00  0.00    +0.000 NA
ATOM      8  C   UNL     1      26.913  23.247  24.231  0.00  0.00    +0.000 A 
ATOM      9  C   UNL     1      26.159  23.365  23.079  0.00  0.00    +0.000 A 
ATOM     10  C   UNL     1      26.720  23.841  21.917  0.00  0.00    +0.000 A 
ATOM     11  C   UNL     1      28.065  24.203  21.927  0.00  0.00    +0.000 A 
ATOM     12  C   UNL     1      28.780  24.073  23.082  0.00  0.00    +0.000 A 
ATOM     13  C   UNL     1      28.258  23.604  24.254  0.00  0.00    +0.000 A 
ATOM     14  N   UNL     1      28.735  23.373  25.526  0.00  0.00    +0.000 N 
ENDROOT
BRANCH   1  15
ATOM     15  C   UNL     1      31.039  24.121  25.074  0.00  0.00    +0.000 C 
ATOM     16  C   UNL     1      30.662  25.518  24.650  0.00  0.00    +0.000 C 
ATOM     17  O   UNL     1      31.093  23.363  23.905  0.00  0.00    +0.000 OA
BRANCH  15  18
ATOM     18  C   UNL     1      32.420  24.057  25.700  0.00  0.00    +0.000 C 
BRANCH  18  19
ATOM     19  C   UNL     1      33.494  24.319  24.635  0.00  0.00    +0.000 C 
BRANCH  19  21
ATOM     20  C   UNL     1      34.582  26.546  24.926  0.00  0.00    +0.000 C 
ATOM     21  C   UNL     1      34.665  25.058  25.305  0.00  0.00    +0.000 C 
ENDBRANCH  19  21
ENDBRANCH  18  19
ENDBRANCH  15  18
ENDBRANCH   1  15
TORSDOF 4
ENDMDL
MODEL 6
REMARK VINA RESULT:      -5.4      1.727      4.194
REMARK  Name = 
REMARK  4 active torsions:
REMARK  status: ('A' for Active; 'I' for Inactive)
REMARK    1  A    between atoms: C_2  and  C_3
REMARK    2  A    between atoms: C_3  and  C_4
REMARK    3  A    between atoms: C_4  and  C_5
REMARK    4  A    between atoms: C_5  and  C_8
REMARK                            x       y       z     vdW  Elec       q    Type
REMARK                         _______ _______ _______ _____ _____    ______ ____
ROOT
ATOM      1  C   UNL     1      27.601  23.619  25.210  0.00  0.00    +0.000 A 
ATOM      2  C   UNL     1      26.545  23.365  24.404  0.00  0.00    +0.000 A 
ATOM      3  C   UNL     1      26.526  23.217  23.047  0.00  0.00    +0.000 A 
ATOM      4  N   UNL     1      25.436  22.977  22.433  0.00  0.00    +0.000 NA
ATOM      5  S   UNL     1      28.092  23.398  22.379  0.00  0.00    +0.000 S 
ATOM      6  C   UNL     1      29.300  23.715  23.537  0.00  0.00    +0.000 A 
ATOM      7  N   UNL     1      30.652  23.918  23.502  0.00  0.00    +0.000 NA
ATOM      8  C   UNL     1      31.105  24.116  24.745  0.00  0.00    +0.000 A 
ATOM      9  C   UNL     1      32.372  24.357  25.240  0.00  0.00    +0.000 A 
ATOM     10  C   UNL     1      32.581  24.525  26.589  0.00  0.00    +0.000 A 
ATOM     11  C   UNL     1      31.485  24.447  27.447  0.00  0.00    +0.000 A 
ATOM     12  C   UNL     1      30.247  24.208  26.923  0.00  0.00    +0.000 A 
ATOM     13  C   UNL     1      30.003  24.035  25.591  0.00  0.00    +0.000 A 
ATOM     14  N   UNL     1      28.892  23.786  24.814  0.00  0.00    +0.000 N 
ENDROOT
BRANCH   1  15
ATOM     15  C   UNL     1      27.283  23.731  26.681  0.00  0.00    +0.000 C 
ATOM     16  C   UNL     1      25.791  23.813  26.880  0.00  0.00    +0.000 C 
ATOM     17  O   UNL     1      27.807  24.915  27.198  0.00  0.00    +0.000 OA
BRANCH  15  18
ATOM     18  C   UNL     1      27.912  22.595  27.464  0.00  0.00    +0.000 C 
BRANCH  18  19
ATOM     19  C   UNL     1      27.362  22.574  28.897  0.00  0.00    +0.000 C 
BRANCH  19  21
ATOM     20  C   UNL     1      28.603  24.037  30.492  0.00  0.00    +0.000 C 
ATOM     21  C   UNL     1      28.552  22.632  29.869  0.00  0.00    +0.000 C 
ENDBRANCH  19  21
ENDBRANCH  18  19
ENDBRANCH  15  18
ENDBRANCH   1  15
TORSDOF 4
ENDMDL
MODEL 7
REMARK VINA RESULT:      -5.3     21.407     22.289
REMARK  Name = 
REMARK  4 active torsions:
REMARK  status: ('A' for Active; 'I' for Inactive)
REMARK    1  A    between atoms: C_2  and  C_3
REMARK    2  A    between atoms: C_3  and  C_4
REMARK    3  A    between atoms: C_4  and  C_5
REMARK    4  A    between atoms: C_5  and  C_8
REMARK                            x       y       z     vdW  Elec       q    Type
REMARK                         _______ _______ _______ _____ _____    ______ ____
ROOT
ATOM      1  C   UNL     1      24.320   3.961  15.931  0.00  0.00    +0.000 A 
ATOM      2  C   UNL     1      23.533   3.470  14.946  0.00  0.00    +0.000 A 
ATOM      3  C   UNL     1      23.587   3.726  13.606  0.00  0.00    +0.000 A 
ATOM      4  N   UNL     1      22.764   3.175  12.805  0.00  0.00    +0.000 NA
ATOM      5  S   UNL     1      24.845   4.825  13.232  0.00  0.00    +0.000 S 
ATOM      6  C   UNL     1      25.732   5.341  14.591  0.00  0.00    +0.000 A 
ATOM      7  N   UNL     1      26.797   6.174  14.798  0.00  0.00    +0.000 NA
ATOM      8  C   UNL     1      27.093   6.202  16.102  0.00  0.00    +0.000 A 
ATOM      9  C   UNL     1      28.068   6.874  16.815  0.00  0.00    +0.000 A 
ATOM     10  C   UNL     1      28.168   6.729  18.179  0.00  0.00    +0.000 A 
ATOM     11  C   UNL     1      27.265   5.889  18.827  0.00  0.00    +0.000 A 
ATOM     12  C   UNL     1      26.315   5.241  18.092  0.00  0.00    +0.000 A 
ATOM     13  C   UNL     1      26.186   5.360  16.737  0.00  0.00    +0.000 A 
ATOM     14  N   UNL     1      25.349   4.837  15.774  0.00  0.00    +0.000 N 
ENDROOT
BRANCH   1  15
ATOM     15  C   UNL     1      23.995   3.480  17.323  0.00  0.00    +0.000 C 
ATOM     16  C   UNL     1      22.668   2.763  17.324  0.00  0.00    +0.000 C 
ATOM     17  O   UNL     1      23.848   4.566  18.186  0.00  0.00    +0.000 OA
BRANCH  15  18
ATOM     18  C   UNL     1      25.117   2.625  17.882  0.00  0.00    +0.000 C 
BRANCH  18  19
ATOM     19  C   UNL     1      24.850   1.144  17.583  0.00  0.00    +0.000 C 
BRANCH  19  21
ATOM     20  C   UNL     1      27.071   1.650  16.564  0.00  0.00    +0.000 C 
ATOM     21  C   UNL     1      26.151   0.518  17.054  0.00  0.00    +0.000 C 
ENDBRANCH  19  21
ENDBRANCH  18  19
ENDBRANCH  15  18
ENDBRANCH   1  15
TORSDOF 4
ENDMDL
MODEL 8
REMARK VINA RESULT:      -5.3     21.235     22.126
REMARK  Name = 
REMARK  4 active torsions:
REMARK  status: ('A' for Active; 'I' for Inactive)
REMARK    1  A    between atoms: C_2  and  C_3
REMARK    2  A    between atoms: C_3  and  C_4
REMARK    3  A    between atoms: C_4  and  C_5
REMARK    4  A    between atoms: C_5  and  C_8
REMARK                            x       y       z     vdW  Elec       q    Type
REMARK                         _______ _______ _______ _____ _____    ______ ____
ROOT
ATOM      1  C   UNL     1      24.782   4.072  15.902  0.00  0.00    +0.000 A 
ATOM      2  C   UNL     1      24.092   3.655  14.816  0.00  0.00    +0.000 A 
ATOM      3  C   UNL     1      24.157   4.123  13.535  0.00  0.00    +0.000 A 
ATOM      4  N   UNL     1      23.433   3.615  12.619  0.00  0.00    +0.000 NA
ATOM      5  S   UNL     1      25.285   5.404  13.397  0.00  0.00    +0.000 S 
ATOM      6  C   UNL     1      26.059   5.798  14.861  0.00  0.00    +0.000 A 
ATOM      7  N   UNL     1      27.008   6.704  15.246  0.00  0.00    +0.000 NA
ATOM      8  C   UNL     1      27.257   6.560  16.553  0.00  0.00    +0.000 A 
ATOM      9  C   UNL     1      28.120   7.218  17.408  0.00  0.00    +0.000 A 
ATOM     10  C   UNL     1      28.194   6.872  18.737  0.00  0.00    +0.000 A 
ATOM     11  C   UNL     1      27.378   5.843  19.203  0.00  0.00    +0.000 A 
ATOM     12  C   UNL     1      26.537   5.215  18.331  0.00  0.00    +0.000 A 
ATOM     13  C   UNL     1      26.438   5.530  17.005  0.00  0.00    +0.000 A 
ATOM     14  N   UNL     1      25.702   5.073  15.933  0.00  0.00    +0.000 N 
ENDROOT
BRANCH   1  15
ATOM     15  C   UNL     1      24.473   3.343  17.186  0.00  0.00    +0.000 C 
ATOM     16  C   UNL     1      23.892   4.301  18.195  0.00  0.00    +0.000 C 
ATOM     17  O   UNL     1      25.647   2.849  17.754  0.00  0.00    +0.000 OA
BRANCH  15  18
ATOM     18  C   UNL     1      23.572   2.148  16.934  0.00  0.00    +0.000 C 
BRANCH  18  19
ATOM     19  C   UNL     1      22.519   2.038  18.045  0.00  0.00    +0.000 C 
BRANCH  19  21
ATOM     20  C   UNL     1      20.065   2.430  17.824  0.00  0.00    +0.000 C 
ATOM     21  C   UNL     1      21.220   1.497  17.424  0.00  0.00    +0.000 C 
ENDBRANCH  19  21
ENDBRANCH  18  19
ENDBRANCH  15  18
ENDBRANCH   1  15
TORSDOF 4
ENDMDL
MODEL 9
REMARK VINA RESULT:      -5.3      3.063      6.467
REMARK  Name = 
REMARK  4 active torsions:
REMARK  status: ('A' for Active; 'I' for Inactive)
REMARK    1  A    between atoms: C_2  and  C_3
REMARK    2  A    between atoms: C_3  and  C_4
REMARK    3  A    between atoms: C_4  and  C_5
REMARK    4  A    between atoms: C_5  and  C_8
REMARK                            x       y       z     vdW  Elec       q    Type
REMARK                         _______ _______ _______ _____ _____    ______ ____
ROOT
ATOM      1  C   UNL     1      26.689  24.150  27.555  0.00  0.00    +0.000 A 
ATOM      2  C   UNL     1      26.011  24.405  28.696  0.00  0.00    +0.000 A 
ATOM      3  C   UNL     1      26.410  24.205  29.987  0.00  0.00    +0.000 A 
ATOM      4  N   UNL     1      25.642  24.503  30.958  0.00  0.00    +0.000 NA
ATOM      5  S   UNL     1      27.985  23.538  30.055  0.00  0.00    +0.000 S 
ATOM      6  C   UNL     1      28.689  23.281  28.525  0.00  0.00    +0.000 A 
ATOM      7  N   UNL     1      29.886  22.799  28.075  0.00  0.00    +0.000 NA
ATOM      8  C   UNL     1      29.905  22.833  26.737  0.00  0.00    +0.000 A 
ATOM      9  C   UNL     1      30.868  22.467  25.816  0.00  0.00    +0.000 A 
ATOM     10  C   UNL     1      30.640  22.608  24.467  0.00  0.00    +0.000 A 
ATOM     11  C   UNL     1      29.417  23.127  24.049  0.00  0.00    +0.000 A 
ATOM     12  C   UNL     1      28.489  23.477  24.986  0.00  0.00    +0.000 A 
ATOM     13  C   UNL     1      28.680  23.353  26.333  0.00  0.00    +0.000 A 
ATOM     14  N   UNL     1      27.941  23.624  27.465  0.00  0.00    +0.000 N 
ENDROOT
BRANCH   1  15
ATOM     15  C   UNL     1      25.960  24.484  26.277  0.00  0.00    +0.000 C 
ATOM     16  C   UNL     1      25.759  23.234  25.457  0.00  0.00    +0.000 C 
ATOM     17  O   UNL     1      26.730  25.341  25.492  0.00  0.00    +0.000 OA
BRANCH  15  18
ATOM     18  C   UNL     1      24.656  25.206  26.564  0.00  0.00    +0.000 C 
BRANCH  18  19
ATOM     19  C   UNL     1      24.238  26.042  25.346  0.00  0.00    +0.000 C 
BRANCH  19  21
ATOM     20  C   UNL     1      22.343  26.268  26.954  0.00  0.00    +0.000 C 
ATOM     21  C   UNL     1      23.049  26.927  25.757  0.00  0.00    +0.000 C 
ENDBRANCH  19  21
ENDBRANCH  18  19
ENDBRANCH  15  18
ENDBRANCH   1  15
TORSDOF 4
ENDMDL
MODEL 10
REMARK VINA RESULT:      -5.3      3.603      6.630
REMARK  Name = 
REMARK  4 active torsions:
REMARK  status: ('A' for Active; 'I' for Inactive)
REMARK    1  A    between atoms: C_2  and  C_3
REMARK    2  A    between atoms: C_3  and  C_4
REMARK    3  A    between atoms: C_4  and  C_5
REMARK    4  A    between atoms: C_5  and  C_8
REMARK                            x       y       z     vdW  Elec       q    Type
REMARK                         _______ _______ _______ _____ _____    ______ ____
ROOT
ATOM      1  C   UNL     1      29.011  22.719  29.641  0.00  0.00    +0.000 A 
ATOM      2  C   UNL     1      29.224  22.681  30.976  0.00  0.00    +0.000 A 
ATOM      3  C   UNL     1      30.412  22.674  31.649  0.00  0.00    +0.000 A 
ATOM      4  N   UNL     1      30.438  22.637  32.922  0.00  0.00    +0.000 NA
ATOM      5  S   UNL     1      31.739  22.717  30.569  0.00  0.00    +0.000 S 
ATOM      6  C   UNL     1      31.288  22.760  28.928  0.00  0.00    +0.000 A 
ATOM      7  N   UNL     1      31.957  22.811  27.736  0.00  0.00    +0.000 NA
ATOM      8  C   UNL     1      31.075  22.838  26.731  0.00  0.00    +0.000 A 
ATOM      9  C   UNL     1      31.236  22.893  25.360  0.00  0.00    +0.000 A 
ATOM     10  C   UNL     1      30.145  22.916  24.523  0.00  0.00    +0.000 A 
ATOM     11  C   UNL     1      28.872  22.881  25.088  0.00  0.00    +0.000 A 
ATOM     12  C   UNL     1      28.749  22.826  26.446  0.00  0.00    +0.000 A 
ATOM     13  C   UNL     1      29.809  22.803  27.308  0.00  0.00    +0.000 A 
ATOM     14  N   UNL     1      29.970  22.754  28.676  0.00  0.00    +0.000 N 
ENDROOT
BRANCH   1  15
ATOM     15  C   UNL     1      27.564  22.711  29.213  0.00  0.00    +0.000 C 
ATOM     16  C   UNL     1      26.689  22.290  30.366  0.00  0.00    +0.000 C 
ATOM     17  O   UNL     1      27.364  21.764  28.210  0.00  0.00    +0.000 OA
BRANCH  15  18
ATOM     18  C   UNL     1      27.158  24.054  28.635  0.00  0.00    +0.000 C 
BRANCH  18  19
ATOM     19  C   UNL     1      25.713  24.383  29.034  0.00  0.00    +0.000 C 
BRANCH  19  21
ATOM     20  C   UNL     1      25.364  24.344  26.564  0.00  0.00    +0.000 C 
ATOM     21  C   UNL     1      25.044  25.113  27.857  0.00  0.00    +0.000 C 
ENDBRANCH  19  21
ENDBRANCH  18  19
ENDBRANCH  15  18
ENDBRANCH   1  15
TORSDOF 4
ENDMDL
