MODEL 1
REMARK VINA RESULT:      -8.1      0.000      0.000
REMARK  Name = 
REMARK  8 active torsions:
REMARK  status: ('A' for Active; 'I' for Inactive)
REMARK    1  A    between atoms: C_2  and  O_4
REMARK    2  A    between atoms: O_4  and  C_5
REMARK    3  A    between atoms: C_8  and  N_9
REMARK    4  A    between atoms: C_10  and  C_12
REMARK    5  A    between atoms: C_12  and  O_13
REMARK    6  A    between atoms: O_13  and  C_14
REMARK    7  A    between atoms: C_17  and  C_18
REMARK    8  A    between atoms: C_18  and  C_21
REMARK                            x       y       z     vdW  Elec       q    Type
REMARK                         _______ _______ _______ _____ _____    ______ ____
ROOT
ATOM      1  O   UNL     1      35.786   3.545  14.174  0.00  0.00    +0.000 OA
ENDROOT
BRANCH   1   2
ATOM      2  C   UNL     1      35.658   2.428  14.971  0.00  0.00    +0.000 A 
ATOM      3  C   UNL     1      36.097   1.214  14.533  0.00  0.00    +0.000 A 
ATOM      4  C   UNL     1      35.992   0.086  15.287  0.00  0.00    +0.000 A 
ATOM      5  C   UNL     1      35.431   0.142  16.534  0.00  0.00    +0.000 A 
ATOM      6  C   UNL     1      34.979   1.362  16.996  0.00  0.00    +0.000 A 
ATOM      7  C   UNL     1      35.083   2.502  16.237  0.00  0.00    +0.000 A 
BRANCH   5   8
ATOM      8  C   UNL     1      35.317  -1.090  17.402  0.00  0.00    +0.000 C 
ATOM      9  C   UNL     1      35.377  -0.647  18.828  0.00  0.00    +0.000 C 
ATOM     10  C   UNL     1      34.013  -1.785  17.145  0.00  0.00    +0.000 C 
BRANCH   8  11
ATOM     11  C   UNL     1      36.486  -1.937  17.047  0.00  0.00    +0.000 A 
ATOM     12  C   UNL     1      37.769  -1.690  17.463  0.00  0.00    +0.000 A 
ATOM     13  C   UNL     1      38.776  -2.557  17.072  0.00  0.00    +0.000 A 
ATOM     14  C   UNL     1      38.526  -3.643  16.287  0.00  0.00    +0.000 A 
ATOM     15  C   UNL     1      37.242  -3.914  15.855  0.00  0.00    +0.000 A 
ATOM     16  C   UNL     1      36.248  -3.041  16.252  0.00  0.00    +0.000 A 
ENDBRANCH   8  11
ENDBRANCH   5   8
ENDBRANCH   1   2
BRANCH   1  17
ATOM     17  C   UNL     1      37.017   4.066  13.834  0.00  0.00    +0.000 C 
BRANCH  17  19
ATOM     18  N   UNL     1      38.688   4.402  15.722  0.00  0.00    +0.000 NA
ATOM     19  C   UNL     1      37.664   4.897  14.876  0.00  0.00    +0.000 C 
ATOM     20  O   UNL     1      37.295   6.085  15.014  0.00  0.00    +0.000 OA
BRANCH  18  24
ATOM     21  C   UNL     1      40.491   6.571  18.848  0.00  0.00    +0.000 A 
ATOM     22  C   UNL     1      39.364   5.804  19.036  0.00  0.00    +0.000 A 
ATOM     23  C   UNL     1      38.786   5.100  17.999  0.00  0.00    +0.000 A 
ATOM     24  C   UNL     1      39.334   5.145  16.721  0.00  0.00    +0.000 A 
ATOM     25  C   UNL     1      40.456   5.919  16.570  0.00  0.00    +0.000 A 
ATOM     26  C   UNL     1      41.049   6.630  17.589  0.00  0.00    +0.000 A 
BRANCH  21  27
ATOM     27  O   UNL     1      41.078   7.286  19.896  0.00  0.00    +0.000 OA
BRANCH  27  29
ATOM     28  C   UNL     1      42.977   8.545  20.644  0.00  0.00    +0.000 C 
ATOM     29  C   UNL     1      42.473   7.216  20.101  0.00  0.00    +0.000 C 
ATOM     30  C   UNL     1      42.803   6.069  21.033  0.00  0.00    +0.000 C 
ENDBRANCH  27  29
ENDBRANCH  21  27
ENDBRANCH  18  24
ENDBRANCH  17  19
ENDBRANCH   1  17
TORSDOF 8
ENDMDL
MODEL 2
REMARK VINA RESULT:      -7.9      2.341      9.960
REMARK  Name = 
REMARK  8 active torsions:
REMARK  status: ('A' for Active; 'I' for Inactive)
REMARK    1  A    between atoms: C_2  and  O_4
REMARK    2  A    between atoms: O_4  and  C_5
REMARK    3  A    between atoms: C_8  and  N_9
REMARK    4  A    between atoms: C_10  and  C_12
REMARK    5  A    between atoms: C_12  and  O_13
REMARK    6  A    between atoms: O_13  and  C_14
REMARK    7  A    between atoms: C_17  and  C_18
REMARK    8  A    between atoms: C_18  and  C_21
REMARK                            x       y       z     vdW  Elec       q    Type
REMARK                         _______ _______ _______ _____ _____    ______ ____
ROOT
ATOM      1  O   UNL     1      38.425   4.358  15.487  0.00  0.00    +0.000 OA
ENDROOT
BRANCH   1   2
ATOM      2  C   UNL     1      39.114   5.040  16.467  0.00  0.00    +0.000 A 
ATOM      3  C   UNL     1      38.821   4.838  17.783  0.00  0.00    +0.000 A 
ATOM      4  C   UNL     1      39.476   5.488  18.783  0.00  0.00    +0.000 A 
ATOM      5  C   UNL     1      40.470   6.382  18.486  0.00  0.00    +0.000 A 
ATOM      6  C   UNL     1      40.780   6.601  17.160  0.00  0.00    +0.000 A 
ATOM      7  C   UNL     1      40.120   5.946  16.149  0.00  0.00    +0.000 A 
BRANCH   5   8
ATOM      8  C   UNL     1      41.228   7.105  19.576  0.00  0.00    +0.000 C 
ATOM      9  C   UNL     1      41.562   6.107  20.636  0.00  0.00    +0.000 C 
ATOM     10  C   UNL     1      42.492   7.694  19.021  0.00  0.00    +0.000 C 
BRANCH   8  11
ATOM     11  C   UNL     1      40.298   8.147  20.084  0.00  0.00    +0.000 A 
ATOM     12  C   UNL     1      38.980   7.920  20.385  0.00  0.00    +0.000 A 
ATOM     13  C   UNL     1      38.211   8.970  20.860  0.00  0.00    +0.000 A 
ATOM     14  C   UNL     1      38.730  10.219  21.034  0.00  0.00    +0.000 A 
ATOM     15  C   UNL     1      40.056  10.474  20.738  0.00  0.00    +0.000 A 
ATOM     16  C   UNL     1      40.809   9.417  20.266  0.00  0.00    +0.000 A 
ENDBRANCH   8  11
ENDBRANCH   5   8
ENDBRANCH   1   2
BRANCH   1  17
ATOM     17  C   UNL     1      37.053   4.432  15.368  0.00  0.00    +0.000 C 
BRANCH  17  19
ATOM     18  N   UNL     1      36.905   1.990  16.062  0.00  0.00    +0.000 NA
ATOM     19  C   UNL     1      36.337   3.138  15.456  0.00  0.00    +0.000 C 
ATOM     20  O   UNL     1      35.183   3.055  14.979  0.00  0.00    +0.000 OA
BRANCH  18  24
ATOM     21  C   UNL     1      35.117  -1.817  16.252  0.00  0.00    +0.000 A 
ATOM     22  C   UNL     1      36.131  -1.521  15.370  0.00  0.00    +0.000 A 
ATOM     23  C   UNL     1      36.705  -0.267  15.321  0.00  0.00    +0.000 A 
ATOM     24  C   UNL     1      36.270   0.743  16.173  0.00  0.00    +0.000 A 
ATOM     25  C   UNL     1      35.259   0.413  17.038  0.00  0.00    +0.000 A 
ATOM     26  C   UNL     1      34.671  -0.829  17.104  0.00  0.00    +0.000 A 
BRANCH  21  27
ATOM     27  O   UNL     1      34.532  -3.086  16.303  0.00  0.00    +0.000 OA
BRANCH  27  29
ATOM     28  C   UNL     1      35.608  -5.177  15.831  0.00  0.00    +0.000 C 
ATOM     29  C   UNL     1      34.789  -4.021  15.276  0.00  0.00    +0.000 C 
ATOM     30  C   UNL     1      33.485  -4.496  14.671  0.00  0.00    +0.000 C 
ENDBRANCH  27  29
ENDBRANCH  21  27
ENDBRANCH  18  24
ENDBRANCH  17  19
ENDBRANCH   1  17
TORSDOF 8
ENDMDL
MODEL 3
REMARK VINA RESULT:      -7.8      2.035      9.712
REMARK  Name = 
REMARK  8 active torsions:
REMARK  status: ('A' for Active; 'I' for Inactive)
REMARK    1  A    between atoms: C_2  and  O_4
REMARK    2  A    between atoms: O_4  and  C_5
REMARK    3  A    between atoms: C_8  and  N_9
REMARK    4  A    between atoms: C_10  and  C_12
REMARK    5  A    between atoms: C_12  and  O_13
REMARK    6  A    between atoms: O_13  and  C_14
REMARK    7  A    between atoms: C_17  and  C_18
REMARK    8  A    between atoms: C_18  and  C_21
REMARK                            x       y       z     vdW  Elec       q    Type
REMARK                         _______ _______ _______ _____ _____    ______ ____
ROOT
ATOM      1  O   UNL     1      39.041   3.988  15.500  0.00  0.00    +0.000 OA
ENDROOT
BRANCH   1   2
ATOM      2  C   UNL     1      39.341   4.889  16.499  0.00  0.00    +0.000 A 
ATOM      3  C   UNL     1      40.300   5.839  16.305  0.00  0.00    +0.000 A 
ATOM      4  C   UNL     1      40.627   6.749  17.261  0.00  0.00    +0.000 A 
ATOM      5  C   UNL     1      39.987   6.735  18.472  0.00  0.00    +0.000 A 
ATOM      6  C   UNL     1      39.014   5.781  18.688  0.00  0.00    +0.000 A 
ATOM      7  C   UNL     1      38.682   4.861  17.724  0.00  0.00    +0.000 A 
BRANCH   5   8
ATOM      8  C   UNL     1      40.316   7.745  19.547  0.00  0.00    +0.000 C 
ATOM      9  C   UNL     1      40.367   9.093  18.904  0.00  0.00    +0.000 C 
ATOM     10  C   UNL     1      39.256   7.732  20.609  0.00  0.00    +0.000 C 
BRANCH   8  11
ATOM     11  C   UNL     1      41.646   7.345  20.077  0.00  0.00    +0.000 A 
ATOM     12  C   UNL     1      41.882   6.182  20.763  0.00  0.00    +0.000 A 
ATOM     13  C   UNL     1      43.168   5.914  21.202  0.00  0.00    +0.000 A 
ATOM     14  C   UNL     1      44.201   6.774  20.970  0.00  0.00    +0.000 A 
ATOM     15  C   UNL     1      43.990   7.952  20.279  0.00  0.00    +0.000 A 
ATOM     16  C   UNL     1      42.702   8.205  19.849  0.00  0.00    +0.000 A 
ENDBRANCH   8  11
ENDBRANCH   5   8
ENDBRANCH   1   2
BRANCH   1  17
ATOM     17  C   UNL     1      37.830   4.001  14.841  0.00  0.00    +0.000 C 
BRANCH  17  19
ATOM     18  N   UNL     1      37.408   1.647  15.707  0.00  0.00    +0.000 NA
ATOM     19  C   UNL     1      37.103   2.710  14.820  0.00  0.00    +0.000 C 
ATOM     20  O   UNL     1      36.183   2.550  13.987  0.00  0.00    +0.000 OA
BRANCH  18  24
ATOM     21  C   UNL     1      35.330  -2.008  15.922  0.00  0.00    +0.000 A 
ATOM     22  C   UNL     1      35.053  -0.951  16.759  0.00  0.00    +0.000 A 
ATOM     23  C   UNL     1      35.745   0.240  16.674  0.00  0.00    +0.000 A 
ATOM     24  C   UNL     1      36.752   0.407  15.730  0.00  0.00    +0.000 A 
ATOM     25  C   UNL     1      37.002  -0.666  14.913  0.00  0.00    +0.000 A 
ATOM     26  C   UNL     1      36.325  -1.863  14.980  0.00  0.00    +0.000 A 
BRANCH  21  27
ATOM     27  O   UNL     1      34.631  -3.216  16.006  0.00  0.00    +0.000 OA
BRANCH  27  29
ATOM     28  C   UNL     1      35.586  -5.413  15.896  0.00  0.00    +0.000 C 
ATOM     29  C   UNL     1      34.942  -4.272  15.122  0.00  0.00    +0.000 C 
ATOM     30  C   UNL     1      33.693  -4.722  14.394  0.00  0.00    +0.000 C 
ENDBRANCH  27  29
ENDBRANCH  21  27
ENDBRANCH  18  24
ENDBRANCH  17  19
ENDBRANCH   1  17
TORSDOF 8
ENDMDL
MODEL 4
REMARK VINA RESULT:      -7.3      3.783      9.357
REMARK  Name = 
REMARK  8 active torsions:
REMARK  status: ('A' for Active; 'I' for Inactive)
REMARK    1  A    between atoms: C_2  and  O_4
REMARK    2  A    between atoms: O_4  and  C_5
REMARK    3  A    between atoms: C_8  and  N_9
REMARK    4  A    between atoms: C_10  and  C_12
REMARK    5  A    between atoms: C_12  and  O_13
REMARK    6  A    between atoms: O_13  and  C_14
REMARK    7  A    between atoms: C_17  and  C_18
REMARK    8  A    between atoms: C_18  and  C_21
REMARK                            x       y       z     vdW  Elec       q    Type
REMARK                         _______ _______ _______ _____ _____    ______ ____
ROOT
ATOM      1  O   UNL     1      38.310   3.495  15.897  0.00  0.00    +0.000 OA
ENDROOT
BRANCH   1   2
ATOM      2  C   UNL     1      38.849   4.477  16.700  0.00  0.00    +0.000 A 
ATOM      3  C   UNL     1      39.690   5.413  16.174  0.00  0.00    +0.000 A 
ATOM      4  C   UNL     1      40.243   6.401  16.929  0.00  0.00    +0.000 A 
ATOM      5  C   UNL     1      39.962   6.483  18.266  0.00  0.00    +0.000 A 
ATOM      6  C   UNL     1      39.114   5.544  18.818  0.00  0.00    +0.000 A 
ATOM      7  C   UNL     1      38.554   4.546  18.058  0.00  0.00    +0.000 A 
BRANCH   5   8
ATOM      8  C   UNL     1      40.546   7.580  19.127  0.00  0.00    +0.000 C 
ATOM      9  C   UNL     1      40.618   8.819  18.295  0.00  0.00    +0.000 C 
ATOM     10  C   UNL     1      39.669   7.823  20.320  0.00  0.00    +0.000 C 
BRANCH   8  11
ATOM     11  C   UNL     1      41.901   7.105  19.513  0.00  0.00    +0.000 A 
ATOM     12  C   UNL     1      43.025   7.287  18.749  0.00  0.00    +0.000 A 
ATOM     13  C   UNL     1      44.237   6.805  19.218  0.00  0.00    +0.000 A 
ATOM     14  C   UNL     1      44.338   6.156  20.413  0.00  0.00    +0.000 A 
ATOM     15  C   UNL     1      43.220   5.960  21.201  0.00  0.00    +0.000 A 
ATOM     16  C   UNL     1      42.020   6.446  20.720  0.00  0.00    +0.000 A 
ENDBRANCH   8  11
ENDBRANCH   5   8
ENDBRANCH   1   2
BRANCH   1  17
ATOM     17  C   UNL     1      36.963   3.199  15.905  0.00  0.00    +0.000 C 
BRANCH  17  19
ATOM     18  N   UNL     1      36.464   5.092  14.281  0.00  0.00    +0.000 NA
ATOM     19  C   UNL     1      36.171   3.810  14.812  0.00  0.00    +0.000 C 
ATOM     20  O   UNL     1      35.207   3.171  14.336  0.00  0.00    +0.000 OA
BRANCH  18  24
ATOM     21  C   UNL     1      34.448   6.895  11.054  0.00  0.00    +0.000 A 
ATOM     22  C   UNL     1      35.597   6.156  10.887  0.00  0.00    +0.000 A 
ATOM     23  C   UNL     1      36.245   5.572  11.956  0.00  0.00    +0.000 A 
ATOM     24  C   UNL     1      35.748   5.716  13.248  0.00  0.00    +0.000 A 
ATOM     25  C   UNL     1      34.603   6.459  13.378  0.00  0.00    +0.000 A 
ATOM     26  C   UNL     1      33.940   7.050  12.327  0.00  0.00    +0.000 A 
BRANCH  21  27
ATOM     27  O   UNL     1      33.790   7.488   9.973  0.00  0.00    +0.000 OA
BRANCH  27  29
ATOM     28  C   UNL     1      33.736   7.277   7.585  0.00  0.00    +0.000 C 
ATOM     29  C   UNL     1      34.505   7.790   8.794  0.00  0.00    +0.000 C 
ATOM     30  C   UNL     1      34.756   9.281   8.708  0.00  0.00    +0.000 C 
ENDBRANCH  27  29
ENDBRANCH  21  27
ENDBRANCH  18  24
ENDBRANCH  17  19
ENDBRANCH   1  17
TORSDOF 8
ENDMDL
MODEL 5
REMARK VINA RESULT:      -7.3      2.196      9.822
REMARK  Name = 
REMARK  8 active torsions:
REMARK  status: ('A' for Active; 'I' for Inactive)
REMARK    1  A    between atoms: C_2  and  O_4
REMARK    2  A    between atoms: O_4  and  C_5
REMARK    3  A    between atoms: C_8  and  N_9
REMARK    4  A    between atoms: C_10  and  C_12
REMARK    5  A    between atoms: C_12  and  O_13
REMARK    6  A    between atoms: O_13  and  C_14
REMARK    7  A    between atoms: C_17  and  C_18
REMARK    8  A    between atoms: C_18  and  C_21
REMARK                            x       y       z     vdW  Elec       q    Type
REMARK                         _______ _______ _______ _____ _____    ______ ____
ROOT
ATOM      1  O   UNL     1      39.986   5.811  16.758  0.00  0.00    +0.000 OA
ENDROOT
BRANCH   1   2
ATOM      2  C   UNL     1      40.965   6.217  17.639  0.00  0.00    +0.000 A 
ATOM      3  C   UNL     1      42.206   6.554  17.184  0.00  0.00    +0.000 A 
ATOM      4  C   UNL     1      43.201   6.961  18.017  0.00  0.00    +0.000 A 
ATOM      5  C   UNL     1      42.978   7.047  19.365  0.00  0.00    +0.000 A 
ATOM      6  C   UNL     1      41.729   6.709  19.845  0.00  0.00    +0.000 A 
ATOM      7  C   UNL     1      40.722   6.297  19.006  0.00  0.00    +0.000 A 
BRANCH   5   8
ATOM      8  C   UNL     1      44.058   7.514  20.313  0.00  0.00    +0.000 C 
ATOM      9  C   UNL     1      44.999   8.379  19.539  0.00  0.00    +0.000 C 
ATOM     10  C   UNL     1      43.453   8.305  21.436  0.00  0.00    +0.000 C 
BRANCH   8  11
ATOM     11  C   UNL     1      44.728   6.277  20.794  0.00  0.00    +0.000 A 
ATOM     12  C   UNL     1      44.236   5.474  21.790  0.00  0.00    +0.000 A 
ATOM     13  C   UNL     1      44.947   4.341  22.148  0.00  0.00    +0.000 A 
ATOM     14  C   UNL     1      46.121   4.006  21.539  0.00  0.00    +0.000 A 
ATOM     15  C   UNL     1      46.638   4.799  20.532  0.00  0.00    +0.000 A 
ATOM     16  C   UNL     1      45.917   5.925  20.186  0.00  0.00    +0.000 A 
ENDBRANCH   8  11
ENDBRANCH   5   8
ENDBRANCH   1   2
BRANCH   1  17
ATOM     17  C   UNL     1      38.652   5.786  17.105  0.00  0.00    +0.000 C 
BRANCH  17  19
ATOM     18  N   UNL     1      37.264   3.893  16.124  0.00  0.00    +0.000 NA
ATOM     19  C   UNL     1      38.039   4.439  17.178  0.00  0.00    +0.000 C 
ATOM     20  O   UNL     1      38.214   3.753  18.210  0.00  0.00    +0.000 OA
BRANCH  18  24
ATOM     21  C   UNL     1      35.603   0.025  16.058  0.00  0.00    +0.000 A 
ATOM     22  C   UNL     1      36.744   0.351  15.360  0.00  0.00    +0.000 A 
ATOM     23  C   UNL     1      37.274   1.624  15.393  0.00  0.00    +0.000 A 
ATOM     24  C   UNL     1      36.663   2.626  16.142  0.00  0.00    +0.000 A 
ATOM     25  C   UNL     1      35.529   2.266  16.824  0.00  0.00    +0.000 A 
ATOM     26  C   UNL     1      34.983   1.003  16.805  0.00  0.00    +0.000 A 
BRANCH  21  27
ATOM     27  O   UNL     1      35.063  -1.264  16.026  0.00  0.00    +0.000 OA
BRANCH  27  29
ATOM     28  C   UNL     1      36.237  -2.857  17.380  0.00  0.00    +0.000 C 
ATOM     29  C   UNL     1      35.921  -2.384  15.969  0.00  0.00    +0.000 C 
ATOM     30  C   UNL     1      35.285  -3.481  15.140  0.00  0.00    +0.000 C 
ENDBRANCH  27  29
ENDBRANCH  21  27
ENDBRANCH  18  24
ENDBRANCH  17  19
ENDBRANCH   1  17
TORSDOF 8
ENDMDL
MODEL 6
REMARK VINA RESULT:      -7.2     23.297     26.705
REMARK  Name = 
REMARK  8 active torsions:
REMARK  status: ('A' for Active; 'I' for Inactive)
REMARK    1  A    between atoms: C_2  and  O_4
REMARK    2  A    between atoms: O_4  and  C_5
REMARK    3  A    between atoms: C_8  and  N_9
REMARK    4  A    between atoms: C_10  and  C_12
REMARK    5  A    between atoms: C_12  and  O_13
REMARK    6  A    between atoms: O_13  and  C_14
REMARK    7  A    between atoms: C_17  and  C_18
REMARK    8  A    between atoms: C_18  and  C_21
REMARK                            x       y       z     vdW  Elec       q    Type
REMARK                         _______ _______ _______ _____ _____    ______ ____
ROOT
ATOM      1  O   UNL     1      13.116   1.240  27.964  0.00  0.00    +0.000 OA
ENDROOT
BRANCH   1   2
ATOM      2  C   UNL     1      11.879   1.040  27.392  0.00  0.00    +0.000 A 
ATOM      3  C   UNL     1      11.363   1.959  26.526  0.00  0.00    +0.000 A 
ATOM      4  C   UNL     1      10.147   1.802  25.936  0.00  0.00    +0.000 A 
ATOM      5  C   UNL     1       9.392   0.691  26.203  0.00  0.00    +0.000 A 
ATOM      6  C   UNL     1       9.896  -0.250  27.077  0.00  0.00    +0.000 A 
ATOM      7  C   UNL     1      11.123  -0.093  27.674  0.00  0.00    +0.000 A 
BRANCH   5   8
ATOM      8  C   UNL     1       8.046   0.480  25.549  0.00  0.00    +0.000 C 
ATOM      9  C   UNL     1       7.024   0.382  26.635  0.00  0.00    +0.000 C 
ATOM     10  C   UNL     1       7.719   1.638  24.653  0.00  0.00    +0.000 C 
BRANCH   8  11
ATOM     11  C   UNL     1       8.163  -0.797  24.797  0.00  0.00    +0.000 A 
ATOM     12  C   UNL     1       7.385  -1.901  25.032  0.00  0.00    +0.000 A 
ATOM     13  C   UNL     1       7.583  -3.034  24.261  0.00  0.00    +0.000 A 
ATOM     14  C   UNL     1       8.528  -3.080  23.279  0.00  0.00    +0.000 A 
ATOM     15  C   UNL     1       9.325  -1.980  23.022  0.00  0.00    +0.000 A 
ATOM     16  C   UNL     1       9.116  -0.858  23.799  0.00  0.00    +0.000 A 
ENDBRANCH   8  11
ENDBRANCH   5   8
ENDBRANCH   1   2
BRANCH   1  17
ATOM     17  C   UNL     1      13.992   0.201  28.198  0.00  0.00    +0.000 C 
BRANCH  17  19
ATOM     18  N   UNL     1      16.404   0.294  27.393  0.00  0.00    +0.000 NA
ATOM     19  C   UNL     1      15.035   0.003  27.163  0.00  0.00    +0.000 C 
ATOM     20  O   UNL     1      14.696  -0.439  26.043  0.00  0.00    +0.000 OA
BRANCH  18  24
ATOM     21  C   UNL     1      19.497  -0.400  24.622  0.00  0.00    +0.000 A 
ATOM     22  C   UNL     1      19.029  -1.380  25.467  0.00  0.00    +0.000 A 
ATOM     23  C   UNL     1      18.015  -1.135  26.370  0.00  0.00    +0.000 A 
ATOM     24  C   UNL     1      17.429   0.125  26.450  0.00  0.00    +0.000 A 
ATOM     25  C   UNL     1      17.919   1.077  25.593  0.00  0.00    +0.000 A 
ATOM     26  C   UNL     1      18.930   0.855  24.686  0.00  0.00    +0.000 A 
BRANCH  21  27
ATOM     27  O   UNL     1      20.525  -0.645  23.707  0.00  0.00    +0.000 OA
BRANCH  27  29
ATOM     28  C   UNL     1      21.178  -0.192  21.445  0.00  0.00    +0.000 C 
ATOM     29  C   UNL     1      20.214  -0.933  22.360  0.00  0.00    +0.000 C 
ATOM     30  C   UNL     1      20.259  -2.429  22.128  0.00  0.00    +0.000 C 
ENDBRANCH  27  29
ENDBRANCH  21  27
ENDBRANCH  18  24
ENDBRANCH  17  19
ENDBRANCH   1  17
TORSDOF 8
ENDMDL
MODEL 7
REMARK VINA RESULT:      -7.2      1.984      2.997
REMARK  Name = 
REMARK  8 active torsions:
REMARK  status: ('A' for Active; 'I' for Inactive)
REMARK    1  A    between atoms: C_2  and  O_4
REMARK    2  A    between atoms: O_4  and  C_5
REMARK    3  A    between atoms: C_8  and  N_9
REMARK    4  A    between atoms: C_10  and  C_12
REMARK    5  A    between atoms: C_12  and  O_13
REMARK    6  A    between atoms: O_13  and  C_14
REMARK    7  A    between atoms: C_17  and  C_18
REMARK    8  A    between atoms: C_18  and  C_21
REMARK                            x       y       z     vdW  Elec       q    Type
REMARK                         _______ _______ _______ _____ _____    ______ ____
ROOT
ATOM      1  O   UNL     1      37.583   3.458  14.136  0.00  0.00    +0.000 OA
ENDROOT
BRANCH   1   2
ATOM      2  C   UNL     1      38.053   2.163  14.183  0.00  0.00    +0.000 A 
ATOM      3  C   UNL     1      37.188   1.112  14.106  0.00  0.00    +0.000 A 
ATOM      4  C   UNL     1      37.608  -0.182  14.146  0.00  0.00    +0.000 A 
ATOM      5  C   UNL     1      38.941  -0.468  14.267  0.00  0.00    +0.000 A 
ATOM      6  C   UNL     1      39.833   0.582  14.347  0.00  0.00    +0.000 A 
ATOM      7  C   UNL     1      39.412   1.888  14.306  0.00  0.00    +0.000 A 
BRANCH   5   8
ATOM      8  C   UNL     1      39.440  -1.895  14.296  0.00  0.00    +0.000 C 
ATOM      9  C   UNL     1      39.072  -2.530  12.994  0.00  0.00    +0.000 C 
ATOM     10  C   UNL     1      40.930  -1.917  14.465  0.00  0.00    +0.000 C 
BRANCH   8  11
ATOM     11  C   UNL     1      38.734  -2.541  15.434  0.00  0.00    +0.000 A 
ATOM     12  C   UNL     1      38.930  -2.205  16.748  0.00  0.00    +0.000 A 
ATOM     13  C   UNL     1      38.208  -2.874  17.723  0.00  0.00    +0.000 A 
ATOM     14  C   UNL     1      37.312  -3.854  17.410  0.00  0.00    +0.000 A 
ATOM     15  C   UNL     1      37.097  -4.210  16.092  0.00  0.00    +0.000 A 
ATOM     16  C   UNL     1      37.824  -3.534  15.132  0.00  0.00    +0.000 A 
ENDBRANCH   8  11
ENDBRANCH   5   8
ENDBRANCH   1   2
BRANCH   1  17
ATOM     17  C   UNL     1      36.995   4.064  15.225  0.00  0.00    +0.000 C 
BRANCH  17  19
ATOM     18  N   UNL     1      38.629   5.610  16.413  0.00  0.00    +0.000 NA
ATOM     19  C   UNL     1      37.911   4.389  16.343  0.00  0.00    +0.000 C 
ATOM     20  O   UNL     1      38.057   3.555  17.264  0.00  0.00    +0.000 OA
BRANCH  18  24
ATOM     21  C   UNL     1      41.110   6.689  19.639  0.00  0.00    +0.000 A 
ATOM     22  C   UNL     1      39.750   6.531  19.775  0.00  0.00    +0.000 A 
ATOM     23  C   UNL     1      38.952   6.177  18.706  0.00  0.00    +0.000 A 
ATOM     24  C   UNL     1      39.507   5.967  17.447  0.00  0.00    +0.000 A 
ATOM     25  C   UNL     1      40.865   6.133  17.349  0.00  0.00    +0.000 A 
ATOM     26  C   UNL     1      41.679   6.486  18.400  0.00  0.00    +0.000 A 
BRANCH  21  27
ATOM     27  O   UNL     1      41.921   7.048  20.720  0.00  0.00    +0.000 OA
BRANCH  27  29
ATOM     28  C   UNL     1      44.098   8.048  20.816  0.00  0.00    +0.000 C 
ATOM     29  C   UNL     1      43.302   6.757  20.690  0.00  0.00    +0.000 C 
ATOM     30  C   UNL     1      43.648   5.775  21.789  0.00  0.00    +0.000 C 
ENDBRANCH  27  29
ENDBRANCH  21  27
ENDBRANCH  18  24
ENDBRANCH  17  19
ENDBRANCH   1  17
TORSDOF 8
ENDMDL
MODEL 8
REMARK VINA RESULT:      -7.2     26.157     28.846
REMARK  Name = 
REMARK  8 active torsions:
REMARK  status: ('A' for Active; 'I' for Inactive)
REMARK    1  A    between atoms: C_2  and  O_4
REMARK    2  A    between atoms: O_4  and  C_5
REMARK    3  A    between atoms: C_8  and  N_9
REMARK    4  A    between atoms: C_10  and  C_12
REMARK    5  A    between atoms: C_12  and  O_13
REMARK    6  A    between atoms: O_13  and  C_14
REMARK    7  A    between atoms: C_17  and  C_18
REMARK    8  A    between atoms: C_18  and  C_21
REMARK                            x       y       z     vdW  Elec       q    Type
REMARK                         _______ _______ _______ _____ _____    ______ ____
ROOT
ATOM      1  O   UNL     1      25.622  13.373  40.442  0.00  0.00    +0.000 OA
ENDROOT
BRANCH   1   2
ATOM      2  C   UNL     1      25.691  14.286  39.412  0.00  0.00    +0.000 A 
ATOM      3  C   UNL     1      24.555  14.707  38.787  0.00  0.00    +0.000 A 
ATOM      4  C   UNL     1      24.575  15.608  37.768  0.00  0.00    +0.000 A 
ATOM      5  C   UNL     1      25.766  16.128  37.334  0.00  0.00    +0.000 A 
ATOM      6  C   UNL     1      26.927  15.713  37.953  0.00  0.00    +0.000 A 
ATOM      7  C   UNL     1      26.908  14.804  38.983  0.00  0.00    +0.000 A 
BRANCH   5   8
ATOM      8  C   UNL     1      25.820  17.144  36.216  0.00  0.00    +0.000 C 
ATOM      9  C   UNL     1      24.712  18.123  36.439  0.00  0.00    +0.000 C 
ATOM     10  C   UNL     1      27.138  17.861  36.234  0.00  0.00    +0.000 C 
BRANCH   8  11
ATOM     11  C   UNL     1      25.617  16.370  34.963  0.00  0.00    +0.000 A 
ATOM     12  C   UNL     1      26.004  15.066  34.796  0.00  0.00    +0.000 A 
ATOM     13  C   UNL     1      25.755  14.446  33.582  0.00  0.00    +0.000 A 
ATOM     14  C   UNL     1      25.139  15.098  32.555  0.00  0.00    +0.000 A 
ATOM     15  C   UNL     1      24.739  16.413  32.699  0.00  0.00    +0.000 A 
ATOM     16  C   UNL     1      24.994  17.017  33.914  0.00  0.00    +0.000 A 
ENDBRANCH   8  11
ENDBRANCH   5   8
ENDBRANCH   1   2
BRANCH   1  17
ATOM     17  C   UNL     1      26.747  12.926  41.103  0.00  0.00    +0.000 C 
BRANCH  17  19
ATOM     18  N   UNL     1      27.665  10.925  42.377  0.00  0.00    +0.000 NA
ATOM     19  C   UNL     1      26.570  11.682  41.888  0.00  0.00    +0.000 C 
ATOM     20  O   UNL     1      25.410  11.283  42.132  0.00  0.00    +0.000 OA
BRANCH  18  24
ATOM     21  C   UNL     1      27.354   7.277  44.456  0.00  0.00    +0.000 A 
ATOM     22  C   UNL     1      27.547   7.337  43.094  0.00  0.00    +0.000 A 
ATOM     23  C   UNL     1      27.646   8.542  42.429  0.00  0.00    +0.000 A 
ATOM     24  C   UNL     1      27.554   9.743  43.125  0.00  0.00    +0.000 A 
ATOM     25  C   UNL     1      27.361   9.646  44.479  0.00  0.00    +0.000 A 
ATOM     26  C   UNL     1      27.259   8.456  45.163  0.00  0.00    +0.000 A 
BRANCH  21  27
ATOM     27  O   UNL     1      27.252   6.057  45.132  0.00  0.00    +0.000 OA
BRANCH  27  29
ATOM     28  C   UNL     1      27.267   5.403  47.439  0.00  0.00    +0.000 C 
ATOM     29  C   UNL     1      28.103   5.787  46.226  0.00  0.00    +0.000 C 
ATOM     30  C   UNL     1      29.089   4.699  45.858  0.00  0.00    +0.000 C 
ENDBRANCH  27  29
ENDBRANCH  21  27
ENDBRANCH  18  24
ENDBRANCH  17  19
ENDBRANCH   1  17
TORSDOF 8
ENDMDL
MODEL 9
REMARK VINA RESULT:      -7.1     24.099     27.532
REMARK  Name = 
REMARK  8 active torsions:
REMARK  status: ('A' for Active; 'I' for Inactive)
REMARK    1  A    between atoms: C_2  and  O_4
REMARK    2  A    between atoms: O_4  and  C_5
REMARK    3  A    between atoms: C_8  and  N_9
REMARK    4  A    between atoms: C_10  and  C_12
REMARK    5  A    between atoms: C_12  and  O_13
REMARK    6  A    between atoms: O_13  and  C_14
REMARK    7  A    between atoms: C_17  and  C_18
REMARK    8  A    between atoms: C_18  and  C_21
REMARK                            x       y       z     vdW  Elec       q    Type
REMARK                         _______ _______ _______ _____ _____    ______ ____
ROOT
ATOM      1  O   UNL     1      13.249   1.582  27.703  0.00  0.00    +0.000 OA
ENDROOT
BRANCH   1   2
ATOM      2  C   UNL     1      11.935   1.489  27.299  0.00  0.00    +0.000 A 
ATOM      3  C   UNL     1      11.306   2.565  26.745  0.00  0.00    +0.000 A 
ATOM      4  C   UNL     1      10.011   2.518  26.331  0.00  0.00    +0.000 A 
ATOM      5  C   UNL     1       9.289   1.362  26.461  0.00  0.00    +0.000 A 
ATOM      6  C   UNL     1       9.908   0.262  27.020  0.00  0.00    +0.000 A 
ATOM      7  C   UNL     1      11.215   0.307  27.439  0.00  0.00    +0.000 A 
BRANCH   5   8
ATOM      8  C   UNL     1       7.855   1.273  25.993  0.00  0.00    +0.000 C 
ATOM      9  C   UNL     1       7.823   1.663  24.550  0.00  0.00    +0.000 C 
ATOM     10  C   UNL     1       7.347  -0.131  26.147  0.00  0.00    +0.000 C 
BRANCH   8  11
ATOM     11  C   UNL     1       7.101   2.240  26.833  0.00  0.00    +0.000 A 
ATOM     12  C   UNL     1       7.113   2.238  28.204  0.00  0.00    +0.000 A 
ATOM     13  C   UNL     1       6.374   3.195  28.880  0.00  0.00    +0.000 A 
ATOM     14  C   UNL     1       5.638   4.134  28.220  0.00  0.00    +0.000 A 
ATOM     15  C   UNL     1       5.609   4.157  26.838  0.00  0.00    +0.000 A 
ATOM     16  C   UNL     1       6.350   3.196  26.179  0.00  0.00    +0.000 A 
ENDBRANCH   8  11
ENDBRANCH   5   8
ENDBRANCH   1   2
BRANCH   1  17
ATOM     17  C   UNL     1      13.996   0.470  28.032  0.00  0.00    +0.000 C 
BRANCH  17  19
ATOM     18  N   UNL     1      16.390   0.453  27.172  0.00  0.00    +0.000 NA
ATOM     19  C   UNL     1      15.028   0.081  27.042  0.00  0.00    +0.000 C 
ATOM     20  O   UNL     1      14.685  -0.603  26.053  0.00  0.00    +0.000 OA
BRANCH  18  24
ATOM     21  C   UNL     1      19.451  -0.747  24.542  0.00  0.00    +0.000 A 
ATOM     22  C   UNL     1      18.977  -1.563  25.544  0.00  0.00    +0.000 A 
ATOM     23  C   UNL     1      17.973  -1.152  26.397  0.00  0.00    +0.000 A 
ATOM     24  C   UNL     1      17.405   0.111  26.266  0.00  0.00    +0.000 A 
ATOM     25  C   UNL     1      17.901   0.897  25.258  0.00  0.00    +0.000 A 
ATOM     26  C   UNL     1      18.902   0.509  24.396  0.00  0.00    +0.000 A 
BRANCH  21  27
ATOM     27  O   UNL     1      20.468  -1.159  23.676  0.00  0.00    +0.000 OA
BRANCH  27  29
ATOM     28  C   UNL     1      21.236  -0.612  21.472  0.00  0.00    +0.000 C 
ATOM     29  C   UNL     1      20.192  -1.343  22.304  0.00  0.00    +0.000 C 
ATOM     30  C   UNL     1      20.151  -2.821  21.978  0.00  0.00    +0.000 C 
ENDBRANCH  27  29
ENDBRANCH  21  27
ENDBRANCH  18  24
ENDBRANCH  17  19
ENDBRANCH   1  17
TORSDOF 8
ENDMDL
MODEL 10
REMARK VINA RESULT:      -7.1      1.416      1.931
REMARK  Name = 
REMARK  8 active torsions:
REMARK  status: ('A' for Active; 'I' for Inactive)
REMARK    1  A    between atoms: C_2  and  O_4
REMARK    2  A    between atoms: O_4  and  C_5
REMARK    3  A    between atoms: C_8  and  N_9
REMARK    4  A    between atoms: C_10  and  C_12
REMARK    5  A    between atoms: C_12  and  O_13
REMARK    6  A    between atoms: O_13  and  C_14
REMARK    7  A    between atoms: C_17  and  C_18
REMARK    8  A    between atoms: C_18  and  C_21
REMARK                            x       y       z     vdW  Elec       q    Type
REMARK                         _______ _______ _______ _____ _____    ______ ____
ROOT
ATOM      1  O   UNL     1      37.613   2.138  13.535  0.00  0.00    +0.000 OA
ENDROOT
BRANCH   1   2
ATOM      2  C   UNL     1      37.139   1.275  14.499  0.00  0.00    +0.000 A 
ATOM      3  C   UNL     1      37.940   0.289  14.996  0.00  0.00    +0.000 A 
ATOM      4  C   UNL     1      37.515  -0.584  15.949  0.00  0.00    +0.000 A 
ATOM      5  C   UNL     1      36.243  -0.491  16.448  0.00  0.00    +0.000 A 
ATOM      6  C   UNL     1      35.417   0.499  15.958  0.00  0.00    +0.000 A 
ATOM      7  C   UNL     1      35.843   1.381  14.995  0.00  0.00    +0.000 A 
BRANCH   5   8
ATOM      8  C   UNL     1      35.748  -1.434  17.521  0.00  0.00    +0.000 C 
ATOM      9  C   UNL     1      36.106  -0.842  18.845  0.00  0.00    +0.000 C 
ATOM     10  C   UNL     1      34.259  -1.591  17.424  0.00  0.00    +0.000 C 
BRANCH   8  11
ATOM     11  C   UNL     1      36.465  -2.715  17.287  0.00  0.00    +0.000 A 
ATOM     12  C   UNL     1      36.064  -3.667  16.385  0.00  0.00    +0.000 A 
ATOM     13  C   UNL     1      36.819  -4.820  16.250  0.00  0.00    +0.000 A 
ATOM     14  C   UNL     1      37.945  -5.033  16.989  0.00  0.00    +0.000 A 
ATOM     15  C   UNL     1      38.371  -4.089  17.903  0.00  0.00    +0.000 A 
ATOM     16  C   UNL     1      37.608  -2.945  18.027  0.00  0.00    +0.000 A 
ENDBRANCH   8  11
ENDBRANCH   5   8
ENDBRANCH   1   2
BRANCH   1  17
ATOM     17  C   UNL     1      37.146   3.430  13.415  0.00  0.00    +0.000 C 
BRANCH  17  19
ATOM     18  N   UNL     1      38.703   4.232  15.260  0.00  0.00    +0.000 NA
ATOM     19  C   UNL     1      37.489   4.336  14.536  0.00  0.00    +0.000 C 
ATOM     20  O   UNL     1      36.675   5.231  14.857  0.00  0.00    +0.000 OA
BRANCH  18  24
ATOM     21  C   UNL     1      39.740   6.596  18.585  0.00  0.00    +0.000 A 
ATOM     22  C   UNL     1      39.070   5.401  18.710  0.00  0.00    +0.000 A 
ATOM     23  C   UNL     1      38.737   4.639  17.609  0.00  0.00    +0.000 A 
ATOM     24  C   UNL     1      39.076   5.062  16.327  0.00  0.00    +0.000 A 
ATOM     25  C   UNL     1      39.743   6.257  16.240  0.00  0.00    +0.000 A 
ATOM     26  C   UNL     1      40.084   7.034  17.324  0.00  0.00    +0.000 A 
BRANCH  21  27
ATOM     27  O   UNL     1      40.078   7.371  19.699  0.00  0.00    +0.000 OA
BRANCH  27  29
ATOM     28  C   UNL     1      38.357   8.787  20.584  0.00  0.00    +0.000 C 
ATOM     29  C   UNL     1      39.647   8.713  19.779  0.00  0.00    +0.000 C 
ATOM     30  C   UNL     1      40.737   9.571  20.387  0.00  0.00    +0.000 C 
ENDBRANCH  27  29
ENDBRANCH  21  27
ENDBRANCH  18  24
ENDBRANCH  17  19
ENDBRANCH   1  17
TORSDOF 8
ENDMDL
