MODEL 1
REMARK VINA RESULT:      -6.4      0.000      0.000
REMARK  Name = 
REMARK  5 active torsions:
REMARK  status: ('A' for Active; 'I' for Inactive)
REMARK    1  A    between atoms: C_2  and  C_3
REMARK    2  A    between atoms: C_3  and  C_4
REMARK    3  A    between atoms: C_3  and  C_11
REMARK    4  A    between atoms: C_11  and  C_12
REMARK    5  A    between atoms: C_11  and  C_14
REMARK                            x       y       z     vdW  Elec       q    Type
REMARK                         _______ _______ _______ _____ _____    ______ ____
ROOT
ATOM      1  C   UNL     1      17.644  11.031  36.504  0.00  0.00    +0.000 C 
ENDROOT
BRANCH   1   2
ATOM      2  C   UNL     1      16.144  11.497  36.580  0.00  0.00    +0.000 A 
ATOM      3  C   UNL     1      15.697  12.286  35.529  0.00  0.00    +0.000 A 
ATOM      4  C   UNL     1      14.392  12.727  35.538  0.00  0.00    +0.000 A 
ATOM      5  C   UNL     1      13.557  12.385  36.574  0.00  0.00    +0.000 A 
ATOM      6  O   UNL     1      12.225  12.806  36.630  0.00  0.00    +0.000 OA
ATOM      7  C   UNL     1      14.007  11.604  37.608  0.00  0.00    +0.000 A 
ATOM      8  C   UNL     1      15.312  11.185  37.564  0.00  0.00    +0.000 A 
ENDBRANCH   1   2
BRANCH   1  10
ATOM      9  C   UNL     1      17.821   9.381  34.768  0.00  0.00    +0.000 C 
ATOM     10  C   UNL     1      17.354   9.473  36.209  0.00  0.00    +0.000 C 
ENDBRANCH   1  10
BRANCH   1  11
ATOM     11  C   UNL     1      18.049  10.968  38.147  0.00  0.00    +0.000 C 
BRANCH  11  12
ATOM     12  C   UNL     1      19.552  11.329  38.116  0.00  0.00    +0.000 A 
ATOM     13  C   UNL     1      20.529  10.508  37.699  0.00  0.00    +0.000 A 
ATOM     14  C   UNL     1      21.838  10.904  37.697  0.00  0.00    +0.000 A 
ATOM     15  C   UNL     1      22.183  12.156  38.123  0.00  0.00    +0.000 A 
ATOM     16  O   UNL     1      23.537  12.585  38.126  0.00  0.00    +0.000 OA
ATOM     17  C   UNL     1      21.203  13.023  38.555  0.00  0.00    +0.000 A 
ATOM     18  C   UNL     1      19.857  12.591  38.549  0.00  0.00    +0.000 A 
ENDBRANCH  11  12
BRANCH  11  19
ATOM     19  C   UNL     1      18.269   9.378  38.319  0.00  0.00    +0.000 C 
ATOM     20  C   UNL     1      17.824   9.104  39.717  0.00  0.00    +0.000 C 
ENDBRANCH  11  19
ENDBRANCH   1  11
TORSDOF 5
ENDMDL
MODEL 2
REMARK VINA RESULT:      -6.4      0.134      6.489
REMARK  Name = 
REMARK  5 active torsions:
REMARK  status: ('A' for Active; 'I' for Inactive)
REMARK    1  A    between atoms: C_2  and  C_3
REMARK    2  A    between atoms: C_3  and  C_4
REMARK    3  A    between atoms: C_3  and  C_11
REMARK    4  A    between atoms: C_11  and  C_12
REMARK    5  A    between atoms: C_11  and  C_14
REMARK                            x       y       z     vdW  Elec       q    Type
REMARK                         _______ _______ _______ _____ _____    ______ ____
ROOT
ATOM      1  C   UNL     1      18.066  10.936  38.144  0.00  0.00    +0.000 C 
ENDROOT
BRANCH   1   2
ATOM      2  C   UNL     1      19.543  11.474  38.175  0.00  0.00    +0.000 A 
ATOM      3  C   UNL     1      20.519  10.601  37.713  0.00  0.00    +0.000 A 
ATOM      4  C   UNL     1      21.833  11.014  37.716  0.00  0.00    +0.000 A 
ATOM      5  C   UNL     1      22.160  12.270  38.168  0.00  0.00    +0.000 A 
ATOM      6  O   UNL     1      23.478  12.737  38.191  0.00  0.00    +0.000 OA
ATOM      7  C   UNL     1      21.188  13.126  38.622  0.00  0.00    +0.000 A 
ATOM      8  C   UNL     1      19.892  12.678  38.605  0.00  0.00    +0.000 A 
ENDBRANCH   1   2
BRANCH   1  10
ATOM      9  C   UNL     1      17.896   9.155  39.746  0.00  0.00    +0.000 C 
ATOM     10  C   UNL     1      18.419   9.375  38.339  0.00  0.00    +0.000 C 
ENDBRANCH   1  10
BRANCH   1  11
ATOM     11  C   UNL     1      17.739  10.977  36.484  0.00  0.00    +0.000 C 
BRANCH  11  12
ATOM     12  C   UNL     1      16.287  11.507  36.460  0.00  0.00    +0.000 A 
ATOM     13  C   UNL     1      15.762  12.262  35.480  0.00  0.00    +0.000 A 
ATOM     14  C   UNL     1      14.464  12.689  35.529  0.00  0.00    +0.000 A 
ATOM     15  C   UNL     1      13.665  12.353  36.586  0.00  0.00    +0.000 A 
ATOM     16  O   UNL     1      12.313  12.786  36.652  0.00  0.00    +0.000 OA
ATOM     17  C   UNL     1      14.173  11.579  37.606  0.00  0.00    +0.000 A 
ATOM     18  C   UNL     1      15.518  11.150  37.534  0.00  0.00    +0.000 A 
ENDBRANCH  11  12
BRANCH  11  19
ATOM     19  C   UNL     1      17.349   9.431  36.237  0.00  0.00    +0.000 C 
ATOM     20  C   UNL     1      17.777   9.173  34.830  0.00  0.00    +0.000 C 
ENDBRANCH  11  19
ENDBRANCH   1  11
TORSDOF 5
ENDMDL
MODEL 3
REMARK VINA RESULT:      -6.1     30.561     32.086
REMARK  Name = 
REMARK  5 active torsions:
REMARK  status: ('A' for Active; 'I' for Inactive)
REMARK    1  A    between atoms: C_2  and  C_3
REMARK    2  A    between atoms: C_3  and  C_4
REMARK    3  A    between atoms: C_3  and  C_11
REMARK    4  A    between atoms: C_11  and  C_12
REMARK    5  A    between atoms: C_11  and  C_14
REMARK                            x       y       z     vdW  Elec       q    Type
REMARK                         _______ _______ _______ _____ _____    ______ ____
ROOT
ATOM      1  C   UNL     1      30.674  21.094  10.863  0.00  0.00    +0.000 C 
ENDROOT
BRANCH   1   2
ATOM      2  C   UNL     1      29.713  22.011  11.702  0.00  0.00    +0.000 A 
ATOM      3  C   UNL     1      28.396  22.072  11.268  0.00  0.00    +0.000 A 
ATOM      4  C   UNL     1      27.504  22.860  11.961  0.00  0.00    +0.000 A 
ATOM      5  C   UNL     1      27.922  23.569  13.061  0.00  0.00    +0.000 A 
ATOM      6  O   UNL     1      27.056  24.383  13.800  0.00  0.00    +0.000 OA
ATOM      7  C   UNL     1      29.226  23.502  13.484  0.00  0.00    +0.000 A 
ATOM      8  C   UNL     1      30.083  22.708  12.767  0.00  0.00    +0.000 A 
ENDBRANCH   1   2
BRANCH   1  10
ATOM      9  C   UNL     1      31.325  19.572  12.602  0.00  0.00    +0.000 C 
ATOM     10  C   UNL     1      31.795  20.883  12.002  0.00  0.00    +0.000 C 
ENDBRANCH   1  10
BRANCH   1  11
ATOM     11  C   UNL     1      31.441  22.239   9.879  0.00  0.00    +0.000 C 
BRANCH  11  12
ATOM     12  C   UNL     1      31.150  21.686   8.464  0.00  0.00    +0.000 A 
ATOM     13  C   UNL     1      31.418  22.334   7.318  0.00  0.00    +0.000 A 
ATOM     14  C   UNL     1      31.135  21.775   6.102  0.00  0.00    +0.000 A 
ATOM     15  C   UNL     1      30.571  20.532   6.027  0.00  0.00    +0.000 A 
ATOM     16  O   UNL     1      30.272  19.936   4.772  0.00  0.00    +0.000 OA
ATOM     17  C   UNL     1      30.286  19.842   7.185  0.00  0.00    +0.000 A 
ATOM     18  C   UNL     1      30.585  20.440   8.429  0.00  0.00    +0.000 A 
ENDBRANCH  11  12
BRANCH  11  19
ATOM     19  C   UNL     1      32.960  21.698   9.953  0.00  0.00    +0.000 C 
ATOM     20  C   UNL     1      33.780  22.944  10.036  0.00  0.00    +0.000 C 
ENDBRANCH  11  19
ENDBRANCH   1  11
TORSDOF 5
ENDMDL
MODEL 4
REMARK VINA RESULT:      -5.9     18.747     21.007
REMARK  Name = 
REMARK  5 active torsions:
REMARK  status: ('A' for Active; 'I' for Inactive)
REMARK    1  A    between atoms: C_2  and  C_3
REMARK    2  A    between atoms: C_3  and  C_4
REMARK    3  A    between atoms: C_3  and  C_11
REMARK    4  A    between atoms: C_11  and  C_12
REMARK    5  A    between atoms: C_11  and  C_14
REMARK                            x       y       z     vdW  Elec       q    Type
REMARK                         _______ _______ _______ _____ _____    ______ ____
ROOT
ATOM      1  C   UNL     1      27.982  24.975  25.283  0.00  0.00    +0.000 C 
ENDROOT
BRANCH   1   2
ATOM      2  C   UNL     1      28.485  25.128  23.802  0.00  0.00    +0.000 A 
ATOM      3  C   UNL     1      28.212  24.064  22.952  0.00  0.00    +0.000 A 
ATOM      4  C   UNL     1      28.628  24.137  21.641  0.00  0.00    +0.000 A 
ATOM      5  C   UNL     1      29.299  25.249  21.193  0.00  0.00    +0.000 A 
ATOM      6  O   UNL     1      29.742  25.373  19.873  0.00  0.00    +0.000 OA
ATOM      7  C   UNL     1      29.564  26.296  22.040  0.00  0.00    +0.000 A 
ATOM      8  C   UNL     1      29.135  26.185  23.337  0.00  0.00    +0.000 A 
ENDBRANCH   1   2
BRANCH   1  10
ATOM      9  C   UNL     1      28.615  26.703  26.825  0.00  0.00    +0.000 C 
ATOM     10  C   UNL     1      29.276  25.614  26.000  0.00  0.00    +0.000 C 
ENDBRANCH   1  10
BRANCH   1  11
ATOM     11  C   UNL     1      28.258  23.326  25.552  0.00  0.00    +0.000 C 
BRANCH  11  12
ATOM     12  C   UNL     1      27.687  23.137  26.976  0.00  0.00    +0.000 A 
ATOM     13  C   UNL     1      28.273  22.418  27.948  0.00  0.00    +0.000 A 
ATOM     14  C   UNL     1      27.707  22.303  29.188  0.00  0.00    +0.000 A 
ATOM     15  C   UNL     1      26.522  22.924  29.467  0.00  0.00    +0.000 A 
ATOM     16  O   UNL     1      25.920  22.817  30.750  0.00  0.00    +0.000 OA
ATOM     17  C   UNL     1      25.897  23.671  28.492  0.00  0.00    +0.000 A 
ATOM     18  C   UNL     1      26.501  23.775  27.218  0.00  0.00    +0.000 A 
ENDBRANCH  11  12
BRANCH  11  19
ATOM     19  C   UNL     1      29.807  23.373  26.005  0.00  0.00    +0.000 C 
ATOM     20  C   UNL     1      30.468  22.365  25.124  0.00  0.00    +0.000 C 
ENDBRANCH  11  19
ENDBRANCH   1  11
TORSDOF 5
ENDMDL
MODEL 5
REMARK VINA RESULT:      -5.9     18.724     20.851
REMARK  Name = 
REMARK  5 active torsions:
REMARK  status: ('A' for Active; 'I' for Inactive)
REMARK    1  A    between atoms: C_2  and  C_3
REMARK    2  A    between atoms: C_3  and  C_4
REMARK    3  A    between atoms: C_3  and  C_11
REMARK    4  A    between atoms: C_11  and  C_12
REMARK    5  A    between atoms: C_11  and  C_14
REMARK                            x       y       z     vdW  Elec       q    Type
REMARK                         _______ _______ _______ _____ _____    ______ ____
ROOT
ATOM      1  C   UNL     1      28.265  23.218  25.592  0.00  0.00    +0.000 C 
ENDROOT
BRANCH   1   2
ATOM      2  C   UNL     1      27.660  23.101  27.037  0.00  0.00    +0.000 A 
ATOM      3  C   UNL     1      26.462  23.769  27.253  0.00  0.00    +0.000 A 
ATOM      4  C   UNL     1      25.881  23.705  28.500  0.00  0.00    +0.000 A 
ATOM      5  C   UNL     1      26.486  22.989  29.505  0.00  0.00    +0.000 A 
ATOM      6  O   UNL     1      25.937  22.892  30.788  0.00  0.00    +0.000 OA
ATOM      7  C   UNL     1      27.669  22.331  29.283  0.00  0.00    +0.000 A 
ATOM      8  C   UNL     1      28.216  22.419  28.029  0.00  0.00    +0.000 A 
ENDBRANCH   1   2
BRANCH   1  10
ATOM      9  C   UNL     1      30.436  22.306  25.119  0.00  0.00    +0.000 C 
ATOM     10  C   UNL     1      29.811  23.344  26.032  0.00  0.00    +0.000 C 
ENDBRANCH   1  10
BRANCH   1  11
ATOM     11  C   UNL     1      27.914  24.833  25.222  0.00  0.00    +0.000 C 
BRANCH  11  12
ATOM     12  C   UNL     1      28.391  24.933  23.755  0.00  0.00    +0.000 A 
ATOM     13  C   UNL     1      28.183  23.995  22.815  0.00  0.00    +0.000 A 
ATOM     14  C   UNL     1      28.634  24.160  21.534  0.00  0.00    +0.000 A 
ATOM     15  C   UNL     1      29.310  25.293  21.180  0.00  0.00    +0.000 A 
ATOM     16  O   UNL     1      29.784  25.481  19.853  0.00  0.00    +0.000 OA
ATOM     17  C   UNL     1      29.538  26.274  22.120  0.00  0.00    +0.000 A 
ATOM     18  C   UNL     1      29.064  26.081  23.437  0.00  0.00    +0.000 A 
ENDBRANCH  11  12
BRANCH  11  19
ATOM     19  C   UNL     1      29.207  25.554  25.862  0.00  0.00    +0.000 C 
ATOM     20  C   UNL     1      28.629  26.615  26.739  0.00  0.00    +0.000 C 
ENDBRANCH  11  19
ENDBRANCH   1  11
TORSDOF 5
ENDMDL
MODEL 6
REMARK VINA RESULT:      -5.8      2.036      3.519
REMARK  Name = 
REMARK  5 active torsions:
REMARK  status: ('A' for Active; 'I' for Inactive)
REMARK    1  A    between atoms: C_2  and  C_3
REMARK    2  A    between atoms: C_3  and  C_4
REMARK    3  A    between atoms: C_3  and  C_11
REMARK    4  A    between atoms: C_11  and  C_12
REMARK    5  A    between atoms: C_11  and  C_14
REMARK                            x       y       z     vdW  Elec       q    Type
REMARK                         _______ _______ _______ _____ _____    ______ ____
ROOT
ATOM      1  C   UNL     1      19.070   9.664  37.470  0.00  0.00    +0.000 C 
ENDROOT
BRANCH   1   2
ATOM      2  C   UNL     1      18.009  10.130  36.408  0.00  0.00    +0.000 A 
ATOM      3  C   UNL     1      18.191   9.655  35.116  0.00  0.00    +0.000 A 
ATOM      4  C   UNL     1      17.294  10.028  34.139  0.00  0.00    +0.000 A 
ATOM      5  C   UNL     1      16.242  10.855  34.449  0.00  0.00    +0.000 A 
ATOM      6  O   UNL     1      15.305  11.262  33.494  0.00  0.00    +0.000 OA
ATOM      7  C   UNL     1      16.069  11.319  35.729  0.00  0.00    +0.000 A 
ATOM      8  C   UNL     1      16.983  10.926  36.673  0.00  0.00    +0.000 A 
ENDBRANCH   1   2
BRANCH   1  10
ATOM      9  C   UNL     1      18.095   8.808  39.490  0.00  0.00    +0.000 C 
ATOM     10  C   UNL     1      18.260  10.138  38.781  0.00  0.00    +0.000 C 
ENDBRANCH   1  10
BRANCH   1  11
ATOM     11  C   UNL     1      20.218  10.902  37.347  0.00  0.00    +0.000 C 
BRANCH  11  12
ATOM     12  C   UNL     1      21.523  10.162  37.722  0.00  0.00    +0.000 A 
ATOM     13  C   UNL     1      21.857   9.783  38.967  0.00  0.00    +0.000 A 
ATOM     14  C   UNL     1      23.030   9.125  39.218  0.00  0.00    +0.000 A 
ATOM     15  C   UNL     1      23.894   8.837  38.199  0.00  0.00    +0.000 A 
ATOM     16  O   UNL     1      25.116   8.154  38.442  0.00  0.00    +0.000 OA
ATOM     17  C   UNL     1      23.578   9.212  36.911  0.00  0.00    +0.000 A 
ATOM     18  C   UNL     1      22.361   9.891  36.675  0.00  0.00    +0.000 A 
ENDBRANCH  11  12
BRANCH  11  19
ATOM     19  C   UNL     1      20.018  11.613  38.782  0.00  0.00    +0.000 C 
ATOM     20  C   UNL     1      20.173  13.068  38.487  0.00  0.00    +0.000 C 
ENDBRANCH  11  19
ENDBRANCH   1  11
TORSDOF 5
ENDMDL
MODEL 7
REMARK VINA RESULT:      -5.7      2.839      5.573
REMARK  Name = 
REMARK  5 active torsions:
REMARK  status: ('A' for Active; 'I' for Inactive)
REMARK    1  A    between atoms: C_2  and  C_3
REMARK    2  A    between atoms: C_3  and  C_4
REMARK    3  A    between atoms: C_3  and  C_11
REMARK    4  A    between atoms: C_11  and  C_12
REMARK    5  A    between atoms: C_11  and  C_14
REMARK                            x       y       z     vdW  Elec       q    Type
REMARK                         _______ _______ _______ _____ _____    ______ ____
ROOT
ATOM      1  C   UNL     1      19.470   9.258  39.076  0.00  0.00    +0.000 C 
ENDROOT
BRANCH   1   2
ATOM      2  C   UNL     1      18.302   8.802  40.024  0.00  0.00    +0.000 A 
ATOM      3  C   UNL     1      18.198   7.436  40.249  0.00  0.00    +0.000 A 
ATOM      4  C   UNL     1      17.194   6.973  41.071  0.00  0.00    +0.000 A 
ATOM      5  C   UNL     1      16.318   7.857  41.653  0.00  0.00    +0.000 A 
ATOM      6  O   UNL     1      15.282   7.439  42.495  0.00  0.00    +0.000 OA
ATOM      7  C   UNL     1      16.429   9.206  41.426  0.00  0.00    +0.000 A 
ATOM      8  C   UNL     1      17.441   9.628  40.602  0.00  0.00    +0.000 A 
ENDBRANCH   1   2
BRANCH   1  10
ATOM      9  C   UNL     1      21.616   8.566  39.901  0.00  0.00    +0.000 C 
ATOM     10  C   UNL     1      20.546   9.590  40.230  0.00  0.00    +0.000 C 
ENDBRANCH   1  10
BRANCH   1  11
ATOM     11  C   UNL     1      18.963  10.820  38.664  0.00  0.00    +0.000 C 
BRANCH  11  12
ATOM     12  C   UNL     1      18.313  10.587  37.280  0.00  0.00    +0.000 A 
ATOM     13  C   UNL     1      18.724   9.673  36.385  0.00  0.00    +0.000 A 
ATOM     14  C   UNL     1      18.091   9.523  35.181  0.00  0.00    +0.000 A 
ATOM     15  C   UNL     1      17.017  10.306  34.862  0.00  0.00    +0.000 A 
ATOM     16  O   UNL     1      16.348  10.163  33.617  0.00  0.00    +0.000 OA
ATOM     17  C   UNL     1      16.571  11.251  35.760  0.00  0.00    +0.000 A 
ATOM     18  C   UNL     1      17.241  11.389  36.997  0.00  0.00    +0.000 A 
ENDBRANCH  11  12
BRANCH  11  19
ATOM     19  C   UNL     1      20.348  11.421  38.091  0.00  0.00    +0.000 C 
ATOM     20  C   UNL     1      20.267  12.876  38.413  0.00  0.00    +0.000 C 
ENDBRANCH  11  19
ENDBRANCH   1  11
TORSDOF 5
ENDMDL
MODEL 8
REMARK VINA RESULT:      -5.7      2.860      5.199
REMARK  Name = 
REMARK  5 active torsions:
REMARK  status: ('A' for Active; 'I' for Inactive)
REMARK    1  A    between atoms: C_2  and  C_3
REMARK    2  A    between atoms: C_3  and  C_4
REMARK    3  A    between atoms: C_3  and  C_11
REMARK    4  A    between atoms: C_11  and  C_12
REMARK    5  A    between atoms: C_11  and  C_14
REMARK                            x       y       z     vdW  Elec       q    Type
REMARK                         _______ _______ _______ _____ _____    ______ ____
ROOT
ATOM      1  C   UNL     1      18.903  10.869  38.574  0.00  0.00    +0.000 C 
ENDROOT
BRANCH   1   2
ATOM      2  C   UNL     1      18.258  10.641  37.160  0.00  0.00    +0.000 A 
ATOM      3  C   UNL     1      17.211  11.489  36.823  0.00  0.00    +0.000 A 
ATOM      4  C   UNL     1      16.603  11.339  35.596  0.00  0.00    +0.000 A 
ATOM      5  C   UNL     1      17.033  10.363  34.729  0.00  0.00    +0.000 A 
ATOM      6  O   UNL     1      16.449  10.170  33.473  0.00  0.00    +0.000 OA
ATOM      7  C   UNL     1      18.068   9.530  35.070  0.00  0.00    +0.000 A 
ATOM      8  C   UNL     1      18.648   9.711  36.300  0.00  0.00    +0.000 A 
ENDBRANCH   1   2
BRANCH   1  10
ATOM      9  C   UNL     1      20.157  12.914  38.456  0.00  0.00    +0.000 C 
ATOM     10  C   UNL     1      20.312  11.458  38.058  0.00  0.00    +0.000 C 
ENDBRANCH   1  10
BRANCH   1  11
ATOM     11  C   UNL     1      19.356   9.290  38.984  0.00  0.00    +0.000 C 
BRANCH  11  12
ATOM     12  C   UNL     1      18.206   8.866  39.926  0.00  0.00    +0.000 A 
ATOM     13  C   UNL     1      17.257   9.692  40.398  0.00  0.00    +0.000 A 
ATOM     14  C   UNL     1      16.266   9.238  41.225  0.00  0.00    +0.000 A 
ATOM     15  C   UNL     1      16.220   7.922  41.591  0.00  0.00    +0.000 A 
ATOM     16  O   UNL     1      15.197   7.434  42.449  0.00  0.00    +0.000 OA
ATOM     17  C   UNL     1      17.178   7.050  41.123  0.00  0.00    +0.000 A 
ATOM     18  C   UNL     1      18.192   7.541  40.271  0.00  0.00    +0.000 A 
ENDBRANCH  11  12
BRANCH  11  19
ATOM     19  C   UNL     1      20.419   9.601  40.159  0.00  0.00    +0.000 C 
ATOM     20  C   UNL     1      21.583   8.727  39.828  0.00  0.00    +0.000 C 
ENDBRANCH  11  19
ENDBRANCH   1  11
TORSDOF 5
ENDMDL
MODEL 9
REMARK VINA RESULT:      -5.7     18.428     20.618
REMARK  Name = 
REMARK  5 active torsions:
REMARK  status: ('A' for Active; 'I' for Inactive)
REMARK    1  A    between atoms: C_2  and  C_3
REMARK    2  A    between atoms: C_3  and  C_4
REMARK    3  A    between atoms: C_3  and  C_11
REMARK    4  A    between atoms: C_11  and  C_12
REMARK    5  A    between atoms: C_11  and  C_14
REMARK                            x       y       z     vdW  Elec       q    Type
REMARK                         _______ _______ _______ _____ _____    ______ ____
ROOT
ATOM      1  C   UNL     1      30.048  22.766  26.336  0.00  0.00    +0.000 C 
ENDROOT
BRANCH   1   2
ATOM      2  C   UNL     1      30.554  22.516  27.803  0.00  0.00    +0.000 A 
ATOM      3  C   UNL     1      29.702  22.928  28.819  0.00  0.00    +0.000 A 
ATOM      4  C   UNL     1      30.089  22.738  30.127  0.00  0.00    +0.000 A 
ATOM      5  C   UNL     1      31.298  22.149  30.409  0.00  0.00    +0.000 A 
ATOM      6  O   UNL     1      31.736  21.932  31.720  0.00  0.00    +0.000 OA
ATOM      7  C   UNL     1      32.132  21.744  29.398  0.00  0.00    +0.000 A 
ATOM      8  C   UNL     1      31.713  21.951  28.110  0.00  0.00    +0.000 A 
ENDBRANCH   1   2
BRANCH   1  10
ATOM      9  C   UNL     1      31.696  23.049  24.612  0.00  0.00    +0.000 C 
ATOM     10  C   UNL     1      31.240  23.749  25.879  0.00  0.00    +0.000 C 
ENDBRANCH   1  10
BRANCH   1  11
ATOM     11  C   UNL     1      28.806  23.884  26.605  0.00  0.00    +0.000 C 
BRANCH  11  12
ATOM     12  C   UNL     1      27.875  23.620  25.400  0.00  0.00    +0.000 A 
ATOM     13  C   UNL     1      28.225  23.775  24.112  0.00  0.00    +0.000 A 
ATOM     14  C   UNL     1      27.343  23.514  23.099  0.00  0.00    +0.000 A 
ATOM     15  C   UNL     1      26.076  23.085  23.379  0.00  0.00    +0.000 A 
ATOM     16  O   UNL     1      25.148  22.808  22.339  0.00  0.00    +0.000 OA
ATOM     17  C   UNL     1      25.687  22.914  24.690  0.00  0.00    +0.000 A 
ATOM     18  C   UNL     1      26.615  23.191  25.719  0.00  0.00    +0.000 A 
ENDBRANCH  11  12
BRANCH  11  19
ATOM     19  C   UNL     1      29.488  25.212  25.992  0.00  0.00    +0.000 C 
ATOM     20  C   UNL     1      28.919  26.320  26.815  0.00  0.00    +0.000 C 
ENDBRANCH  11  19
ENDBRANCH   1  11
TORSDOF 5
ENDMDL
MODEL 10
REMARK VINA RESULT:      -5.7     18.331     19.941
REMARK  Name = 
REMARK  5 active torsions:
REMARK  status: ('A' for Active; 'I' for Inactive)
REMARK    1  A    between atoms: C_2  and  C_3
REMARK    2  A    between atoms: C_3  and  C_4
REMARK    3  A    between atoms: C_3  and  C_11
REMARK    4  A    between atoms: C_11  and  C_12
REMARK    5  A    between atoms: C_11  and  C_14
REMARK                            x       y       z     vdW  Elec       q    Type
REMARK                         _______ _______ _______ _____ _____    ______ ____
ROOT
ATOM      1  C   UNL     1      28.844  24.022  26.558  0.00  0.00    +0.000 C 
ENDROOT
BRANCH   1   2
ATOM      2  C   UNL     1      27.862  23.705  25.372  0.00  0.00    +0.000 A 
ATOM      3  C   UNL     1      26.627  23.181  25.728  0.00  0.00    +0.000 A 
ATOM      4  C   UNL     1      25.722  22.880  24.733  0.00  0.00    +0.000 A 
ATOM      5  C   UNL     1      26.047  23.100  23.417  0.00  0.00    +0.000 A 
ATOM      6  O   UNL     1      25.165  22.813  22.370  0.00  0.00    +0.000 OA
ATOM      7  C   UNL     1      27.271  23.619  23.075  0.00  0.00    +0.000 A 
ATOM      8  C   UNL     1      28.144  23.904  24.093  0.00  0.00    +0.000 A 
ENDBRANCH   1   2
BRANCH   1  10
ATOM      9  C   UNL     1      29.103  26.404  26.721  0.00  0.00    +0.000 C 
ATOM     10  C   UNL     1      29.605  25.260  25.860  0.00  0.00    +0.000 C 
ENDBRANCH   1  10
BRANCH   1  11
ATOM     11  C   UNL     1      29.996  22.797  26.364  0.00  0.00    +0.000 C 
BRANCH  11  12
ATOM     12  C   UNL     1      30.460  22.565  27.820  0.00  0.00    +0.000 A 
ATOM     13  C   UNL     1      31.659  22.071  28.173  0.00  0.00    +0.000 A 
ATOM     14  C   UNL     1      31.999  21.900  29.487  0.00  0.00    +0.000 A 
ATOM     15  C   UNL     1      31.118  22.233  30.478  0.00  0.00    +0.000 A 
ATOM     16  O   UNL     1      31.455  22.063  31.848  0.00  0.00    +0.000 OA
ATOM     17  C   UNL     1      29.881  22.743  30.148  0.00  0.00    +0.000 A 
ATOM     18  C   UNL     1      29.552  22.910  28.784  0.00  0.00    +0.000 A 
ENDBRANCH  11  12
BRANCH  11  19
ATOM     19  C   UNL     1      31.273  23.682  25.927  0.00  0.00    +0.000 C 
ATOM     20  C   UNL     1      31.721  23.058  24.646  0.00  0.00    +0.000 C 
ENDBRANCH  11  19
ENDBRANCH   1  11
TORSDOF 5
ENDMDL
