
     RDKit          3D

 37 42  0  0  0  0  0  0  0  0999 V2000
   -1.5377   -0.2705   -1.9921 O   0  0  0  0  0  0  0  0  0  0  0  0
   -1.0222    0.2912   -0.9830 C   0  0  0  0  0  0  0  0  0  0  0  0
    0.2659   -0.1770   -0.5294 C   0  0  0  0  0  0  0  0  0  0  0  0
    0.7869    0.0879    0.7422 C   0  0  0  0  0  0  0  0  0  0  0  0
    2.0388   -0.4088    1.0851 C   0  0  0  0  0  0  0  0  0  0  0  0
    2.8078   -1.1525    0.2463 C   0  0  0  0  0  0  0  0  0  0  0  0
    4.0701   -1.6543    0.5907 O   0  0  0  0  0  0  0  0  0  0  0  0
    4.7977   -2.4307   -0.3637 C   0  0  0  0  0  0  0  0  0  0  0  0
    5.0301   -1.5590   -1.5858 C   0  0  0  0  0  0  0  0  0  0  0  0
    5.8123   -0.3790   -1.2572 N   0  0  0  0  0  0  0  0  0  0  0  0
    7.1888   -0.7481   -0.9349 C   0  0  0  0  0  0  0  0  0  0  0  0
    7.2655   -1.4542    0.4007 C   0  0  0  0  0  0  0  0  0  0  0  0
    6.9621   -0.4558    1.4906 C   0  0  0  0  0  0  0  0  0  0  0  0
    6.2784    0.7288    0.8796 C   0  0  0  0  0  0  0  0  0  0  0  0
    5.2263    0.3701   -0.1502 C   0  0  0  0  0  0  0  0  0  0  0  0
    2.2931   -1.4227   -1.0307 C   0  0  0  0  0  0  0  0  0  0  0  0
    1.0532   -0.9289   -1.3654 C   0  0  0  0  0  0  0  0  0  0  0  0
   -1.7623    1.4032   -0.3147 C   0  0  0  0  0  0  0  0  0  0  0  0
   -2.9867    1.1459    0.2432 C   0  0  0  0  0  0  0  0  0  0  0  0
   -3.7162   -0.1304    0.3034 C   0  0  0  0  0  0  0  0  0  0  0  0
   -4.9845   -0.1033    0.8566 C   0  0  0  0  0  0  0  0  0  0  0  0
   -5.7345   -1.2583    0.9745 C   0  0  0  0  0  0  0  0  0  0  0  0
   -5.1772   -2.4322    0.5238 C   0  0  0  0  0  0  0  0  0  0  0  0
   -5.9469   -3.5767    0.6518 C   0  0  0  0  0  0  0  0  0  0  0  0
   -5.4507   -4.7721    0.2240 C   0  0  0  0  0  0  0  0  0  0  0  0
   -4.1672   -4.8019   -0.3357 C   0  0  0  0  0  0  0  0  0  0  0  0
   -3.3913   -3.6851   -0.4721 C   0  0  0  0  0  0  0  0  0  0  0  0
   -3.9006   -2.4839   -0.0372 C   0  0  0  0  0  0  0  0  0  0  0  0
   -3.2058   -1.3035   -0.1273 C   0  0  0  0  0  0  0  0  0  0  0  0
   -3.4546    2.6761    0.8407 S   0  0  0  0  0  0  0  0  0  0  0  0
   -2.0946    3.5930    0.3724 C   0  0  0  0  0  0  0  0  0  0  0  0
   -1.7115    4.9400    0.5042 C   0  0  0  0  0  0  0  0  0  0  0  0
   -0.4977    5.3886    0.0041 C   0  0  0  0  0  0  0  0  0  0  0  0
   -0.0537    6.6873    0.0928 O   0  0  0  0  0  0  0  0  0  0  0  0
    0.2888    4.4525   -0.6142 C   0  0  0  0  0  0  0  0  0  0  0  0
   -0.0690    3.1563   -0.7472 C   0  0  0  0  0  0  0  0  0  0  0  0
   -1.3011    2.6682   -0.2473 C   0  0  0  0  0  0  0  0  0  0  0  0
  1  2  2  0
  2  3  1  0
  3  4  2  0
  4  5  1  0
  5  6  2  0
  6  7  1  0
  7  8  1  0
  8  9  1  0
  9 10  1  0
 10 11  1  0
 11 12  1  0
 12 13  1  0
 13 14  1  0
 14 15  1  0
  6 16  1  0
 16 17  2  0
  2 18  1  0
 18 19  2  0
 19 20  1  0
 20 21  2  0
 21 22  1  0
 22 23  2  0
 23 24  1  0
 24 25  2  0
 25 26  1  0
 26 27  2  0
 27 28  1  0
 28 29  2  0
 19 30  1  0
 30 31  1  0
 31 32  2  0
 32 33  1  0
 33 34  1  0
 33 35  2  0
 35 36  1  0
 36 37  2  0
 17  3  1  0
 37 18  1  0
 15 10  1  0
 29 20  1  0
 37 31  1  0
 28 23  1  0
M  END
>  <zinc_id>  (1) 
ZINC000001545572

>  <smiles>  (1) 
O=C(c1ccc(OCCN2CCCCC2)cc1)c1c(-c2ccc3ccccc3c2)sc2cc(O)ccc12

$$$$
