
     RDKit          3D

 30 33  0  0  0  0  0  0  0  0999 V2000
    1.4805   -1.4754   -4.2029 C   0  0  0  0  0  0  0  0  0  0  0  0
    1.1008   -1.1077   -2.7787 C   0  0  0  0  0  0  0  0  0  0  0  0
    2.3364   -1.1385   -1.9117 C   0  0  0  0  0  0  0  0  0  0  0  0
    1.9754   -0.7907   -0.5655 N   0  0  0  0  0  0  0  0  0  0  0  0
    2.9783   -0.7472    0.4574 C   0  0  0  0  0  0  0  0  0  0  0  0
    4.0518    0.2182    0.1769 C   0  0  0  0  0  0  0  0  0  0  0  0
    5.1629   -0.1806   -0.5060 C   0  0  0  0  0  0  0  0  0  0  0  0
    6.1717    0.7126   -0.7737 C   0  0  0  0  0  0  0  0  0  0  0  0
    6.0605    2.0247   -0.3482 C   0  0  0  0  0  0  0  0  0  0  0  0
    4.9018    2.3553    0.3400 C   0  0  0  0  0  0  0  0  0  0  0  0
    3.9302    1.4753    0.5923 N   0  0  0  0  0  0  0  0  0  0  0  0
    0.6304   -0.4859   -0.2244 C   0  0  0  0  0  0  0  0  0  0  0  0
    0.2285    0.8450   -0.3134 C   0  0  0  0  0  0  0  0  0  0  0  0
   -1.0488    1.2151   -0.0024 C   0  0  0  0  0  0  0  0  0  0  0  0
   -1.4748    2.6090   -0.0949 C   0  0  0  0  0  0  0  0  0  0  0  0
   -2.4357    3.1116    0.7428 C   0  0  0  0  0  0  0  0  0  0  0  0
   -2.8384    4.4066    0.6633 C   0  0  0  0  0  0  0  0  0  0  0  0
   -2.2992    5.2479   -0.2527 C   0  0  0  0  0  0  0  0  0  0  0  0
   -1.3311    4.7846   -1.1136 C   0  0  0  0  0  0  0  0  0  0  0  0
   -0.9383    3.4746   -1.0176 C   0  0  0  0  0  0  0  0  0  0  0  0
   -1.9154    0.2227    0.4000 C   0  0  0  0  0  0  0  0  0  0  0  0
   -1.5095   -1.0887    0.4849 C   0  0  0  0  0  0  0  0  0  0  0  0
   -2.4472   -2.1492    0.9163 C   0  0  0  0  0  0  0  0  0  0  0  0
   -2.0374   -3.4612    0.9944 C   0  0  0  0  0  0  0  0  0  0  0  0
   -2.8806   -4.4791    1.3921 C   0  0  0  0  0  0  0  0  0  0  0  0
   -4.1950   -4.2054    1.7325 C   0  0  0  0  0  0  0  0  0  0  0  0
   -5.0469   -5.2339    2.1342 O   0  0  0  0  0  0  0  0  0  0  0  0
   -4.6092   -2.8930    1.6557 C   0  0  0  0  0  0  0  0  0  0  0  0
   -3.7511   -1.8684    1.2528 C   0  0  0  0  0  0  0  0  0  0  0  0
   -0.2507   -1.3983    0.1699 N   0  0  0  0  0  0  0  0  0  0  0  0
  1  2  1  0
  2  3  1  0
  3  4  1  0
  4  5  1  0
  5  6  1  0
  6  7  2  0
  7  8  1  0
  8  9  2  0
  9 10  1  0
 10 11  2  0
  4 12  1  0
 12 13  2  0
 13 14  1  0
 14 15  1  0
 15 16  2  0
 16 17  1  0
 17 18  2  0
 18 19  1  0
 19 20  2  0
 14 21  2  0
 21 22  1  0
 22 23  1  0
 23 24  2  0
 24 25  1  0
 25 26  2  0
 26 27  1  0
 26 28  1  0
 28 29  2  0
 22 30  2  0
 11  6  1  0
 30 12  1  0
 20 15  1  0
 29 23  1  0
M  END
>  <zinc_id>  (1) 
ZINC000003815467

>  <smiles>  (1) 
CCCN(Cc1ccccn1)c1cc(-c2ccccc2)cc(-c2ccc(O)cc2)n1

$$$$
