
     RDKit          3D

 29 32  0  0  0  0  0  0  0  0999 V2000
    2.9023    0.9782   -0.7365 C   0  0  0  0  0  0  0  0  0  0  0  0
    1.9470   -0.1195   -0.8352 N   0  0  0  0  0  0  0  0  0  0  0  0
    2.3143   -1.4432   -1.2196 C   0  0  0  0  0  0  0  0  0  0  0  0
    3.1488   -2.1226   -0.1772 C   0  0  0  0  0  0  0  0  0  0  0  0
    4.3968   -1.4047    0.1008 C   0  0  0  0  0  0  0  0  0  0  0  0
    5.4965   -1.7042   -0.6955 C   0  0  0  0  0  0  0  0  0  0  0  0
    6.6945   -1.0807   -0.4808 C   0  0  0  0  0  0  0  0  0  0  0  0
    6.8693   -0.1440    0.5138 C   0  0  0  0  0  0  0  0  0  0  0  0
    5.7530    0.1309    1.2903 C   0  0  0  0  0  0  0  0  0  0  0  0
    4.5515   -0.4800    1.0911 C   0  0  0  0  0  0  0  0  0  0  0  0
    0.5800    0.1356   -0.5447 C   0  0  0  0  0  0  0  0  0  0  0  0
    0.2159    1.4225   -0.2287 C   0  0  0  0  0  0  0  0  0  0  0  0
   -1.0876    1.7064    0.0675 C   0  0  0  0  0  0  0  0  0  0  0  0
   -1.5588    3.0354    0.4074 C   0  0  0  0  0  0  0  0  0  0  0  0
   -1.0166    4.1861   -0.1005 C   0  0  0  0  0  0  0  0  0  0  0  0
   -1.5302    5.4234    0.2766 C   0  0  0  0  0  0  0  0  0  0  0  0
   -2.5870    5.5464    1.1603 C   0  0  0  0  0  0  0  0  0  0  0  0
   -3.1229    4.3841    1.6635 C   0  0  0  0  0  0  0  0  0  0  0  0
   -2.6140    3.1625    1.2899 C   0  0  0  0  0  0  0  0  0  0  0  0
   -2.0053    0.6806    0.0386 C   0  0  0  0  0  0  0  0  0  0  0  0
   -1.6449   -0.6115   -0.2774 C   0  0  0  0  0  0  0  0  0  0  0  0
   -2.6648   -1.6532   -0.2837 C   0  0  0  0  0  0  0  0  0  0  0  0
   -2.3214   -2.9511   -0.5981 C   0  0  0  0  0  0  0  0  0  0  0  0
   -3.2772   -3.9591   -0.6027 C   0  0  0  0  0  0  0  0  0  0  0  0
   -4.6060   -3.7136   -0.2951 C   0  0  0  0  0  0  0  0  0  0  0  0
   -5.5537   -4.7380   -0.3034 O   0  0  0  0  0  0  0  0  0  0  0  0
   -4.9442   -2.4161    0.0184 C   0  0  0  0  0  0  0  0  0  0  0  0
   -3.9808   -1.4041    0.0223 C   0  0  0  0  0  0  0  0  0  0  0  0
   -0.3546   -0.8467   -0.5616 N   0  0  0  0  0  0  0  0  0  0  0  0
  1  2  1  0
  2  3  1  0
  3  4  1  0
  4  5  1  0
  5  6  2  0
  6  7  1  0
  7  8  2  0
  8  9  1  0
  9 10  2  0
  2 11  1  0
 11 12  2  0
 12 13  1  0
 13 14  1  0
 14 15  2  0
 15 16  1  0
 16 17  2  0
 17 18  1  0
 18 19  2  0
 13 20  2  0
 20 21  1  0
 21 22  1  0
 22 23  2  0
 23 24  1  0
 24 25  2  0
 25 26  1  0
 25 27  1  0
 27 28  2  0
 21 29  2  0
 10  5  1  0
 29 11  1  0
 19 14  1  0
 28 22  1  0
M  END
>  <zinc_id>  (1) 
ZINC000003815470

>  <smiles>  (1) 
CN(CCc1ccccc1)c1cc(-c2ccccc2)cc(-c2ccc(O)cc2)n1

$$$$
