
     RDKit          3D

 29 32  0  0  0  0  0  0  0  0999 V2000
   -3.8147    1.9464    0.2860 C   0  0  0  0  0  0  0  0  0  0  0  0
   -3.0674    0.7744   -0.2759 C   0  0  0  0  0  0  0  0  0  0  0  0
   -1.9826    0.0999    0.3008 C   0  0  0  0  0  0  0  0  0  0  0  0
   -1.4622    0.4774    1.6043 C   0  0  0  0  0  0  0  0  0  0  0  0
   -1.9709    1.5776    2.2892 C   0  0  0  0  0  0  0  0  0  0  0  0
   -1.5088    1.9197    3.5382 C   0  0  0  0  0  0  0  0  0  0  0  0
   -0.5193    1.1865    4.1680 C   0  0  0  0  0  0  0  0  0  0  0  0
   -0.0742    1.5598    5.4313 O   0  0  0  0  0  0  0  0  0  0  0  0
    0.0052    0.0915    3.5164 C   0  0  0  0  0  0  0  0  0  0  0  0
   -0.4812   -0.2196    2.2701 C   0  0  0  0  0  0  0  0  0  0  0  0
   -1.6174   -0.8690   -0.5176 N   0  0  0  0  0  0  0  0  0  0  0  0
   -0.5062   -1.7661   -0.3698 C   0  0  0  0  0  0  0  0  0  0  0  0
    0.7108   -1.4407   -1.0947 C   0  0  0  0  0  0  0  0  0  0  0  0
    1.4812   -0.2398   -0.9339 C   0  0  0  0  0  0  0  0  0  0  0  0
    2.1226    0.1140    0.3365 C   0  0  0  0  0  0  0  0  0  0  0  0
    3.1270   -0.8362    0.8820 C   0  0  0  0  0  0  0  0  0  0  0  0
    4.2559   -1.0106   -0.0859 C   0  0  0  0  0  0  0  0  0  0  0  0
    4.9293    0.2422   -0.3572 N   0  0  0  0  0  0  0  0  0  0  0  0
    5.6364    0.7189    0.7913 C   0  0  0  0  0  0  0  0  0  0  0  0
    7.0944    0.3947    0.5565 C   0  0  0  0  0  0  0  0  0  0  0  0
    7.1309   -0.4156   -0.7220 C   0  0  0  0  0  0  0  0  0  0  0  0
    5.8692    0.0712   -1.4230 C   0  0  0  0  0  0  0  0  0  0  0  0
   -2.4126   -0.8843   -1.6283 C   0  0  0  0  0  0  0  0  0  0  0  0
   -2.4351   -1.6890   -2.7501 C   0  0  0  0  0  0  0  0  0  0  0  0
   -3.3792   -1.4557   -3.7286 C   0  0  0  0  0  0  0  0  0  0  0  0
   -4.2932   -0.4318   -3.5942 C   0  0  0  0  0  0  0  0  0  0  0  0
   -5.2675   -0.1519   -4.5510 O   0  0  0  0  0  0  0  0  0  0  0  0
   -4.2607    0.3667   -2.4669 C   0  0  0  0  0  0  0  0  0  0  0  0
   -3.3098    0.1388   -1.4714 C   0  0  0  0  0  0  0  0  0  0  0  0
  1  2  1  0
  2  3  2  0
  3  4  1  0
  4  5  2  0
  5  6  1  0
  6  7  2  0
  7  8  1  0
  7  9  1  0
  9 10  2  0
  3 11  1  0
 11 12  1  0
 12 13  1  0
 13 14  1  0
 14 15  1  0
 15 16  1  0
 16 17  1  0
 17 18  1  0
 18 19  1  0
 19 20  1  0
 20 21  1  0
 21 22  1  0
 11 23  1  0
 23 24  2  0
 24 25  1  0
 25 26  2  0
 26 27  1  0
 26 28  1  0
 28 29  2  0
 29  2  1  0
 10  4  1  0
 22 18  1  0
 29 23  1  0
M  END
>  <zinc_id>  (1) 
ZINC000001914469

>  <smiles>  (1) 
Cc1c(-c2ccc(O)cc2)n(CCCCCCN2CCCC2)c2ccc(O)cc12

$$$$
