
     RDKit          3D

 31 33  0  0  0  0  0  0  0  0999 V2000
    4.5464   -2.0469    5.4983 C   0  0  0  0  0  0  0  0  0  0  0  0
    4.2815   -1.4960    4.1079 C   0  0  0  0  0  0  0  0  0  0  0  0
    3.3693   -2.3354    3.4615 O   0  0  0  0  0  0  0  0  0  0  0  0
    3.0525   -1.9347    2.1893 C   0  0  0  0  0  0  0  0  0  0  0  0
    2.4294   -0.5562    2.1529 C   0  0  0  0  0  0  0  0  0  0  0  0
    2.1410   -0.2458    0.7733 N   0  0  0  0  0  0  0  0  0  0  0  0
    3.2443   -0.0322   -0.1533 C   0  0  0  0  0  0  0  0  0  0  0  0
    2.6999    0.1903   -1.5326 C   0  0  0  0  0  0  0  0  0  0  0  0
    3.7335    0.3943   -2.4119 O   0  0  0  0  0  0  0  0  0  0  0  0
    4.6623   -0.6230   -2.4872 C   0  0  0  0  0  0  0  0  0  0  0  0
    5.3410   -0.8842   -1.1547 C   0  0  0  0  0  0  0  0  0  0  0  0
    0.8057   -0.1431    0.3055 C   0  0  0  0  0  0  0  0  0  0  0  0
    0.1645   -1.1972   -0.2971 C   0  0  0  0  0  0  0  0  0  0  0  0
   -1.1308   -1.1096   -0.7578 C   0  0  0  0  0  0  0  0  0  0  0  0
   -1.8159   -2.2267   -1.4012 C   0  0  0  0  0  0  0  0  0  0  0  0
   -1.1076   -3.1598   -2.1559 C   0  0  0  0  0  0  0  0  0  0  0  0
   -1.8352   -4.2025   -2.7457 C   0  0  0  0  0  0  0  0  0  0  0  0
   -3.1906   -4.3399   -2.6115 C   0  0  0  0  0  0  0  0  0  0  0  0
   -3.8671   -3.3933   -1.8531 C   0  0  0  0  0  0  0  0  0  0  0  0
   -3.1735   -2.3796   -1.2780 C   0  0  0  0  0  0  0  0  0  0  0  0
   -1.7626    0.1024   -0.5835 C   0  0  0  0  0  0  0  0  0  0  0  0
   -1.0840    1.1559    0.0331 C   0  0  0  0  0  0  0  0  0  0  0  0
   -1.7323    2.4350    0.2362 C   0  0  0  0  0  0  0  0  0  0  0  0
   -1.0903    3.4738    0.8593 C   0  0  0  0  0  0  0  0  0  0  0  0
   -1.7341    4.6801    1.0437 C   0  0  0  0  0  0  0  0  0  0  0  0
   -3.0098    4.8561    0.6115 C   0  0  0  0  0  0  0  0  0  0  0  0
   -3.6564    6.0642    0.7943 O   0  0  0  0  0  0  0  0  0  0  0  0
   -3.6790    3.8148   -0.0231 C   0  0  0  0  0  0  0  0  0  0  0  0
   -3.0207    2.6119   -0.2005 C   0  0  0  0  0  0  0  0  0  0  0  0
   -3.7557    1.5050   -0.8839 C   0  0  0  0  0  0  0  0  0  0  0  0
    0.1746    1.0226    0.4641 N   0  0  0  0  0  0  0  0  0  0  0  0
  1  2  1  0
  2  3  1  0
  3  4  1  0
  4  5  1  0
  5  6  1  0
  6  7  1  0
  7  8  1  0
  8  9  1  0
  9 10  1  0
 10 11  1  0
  6 12  1  0
 12 13  2  0
 13 14  1  0
 14 15  1  0
 15 16  2  0
 16 17  1  0
 17 18  2  0
 18 19  1  0
 19 20  2  0
 14 21  2  0
 21 22  1  0
 22 23  1  0
 23 24  2  0
 24 25  1  0
 25 26  2  0
 26 27  1  0
 26 28  1  0
 28 29  2  0
 29 30  1  0
 22 31  2  0
 31 12  1  0
 20 15  1  0
 29 23  1  0
M  END
>  <zinc_id>  (1) 
ZINC000003815476

>  <smiles>  (1) 
CCOCCN(CCOCC)c1cc(-c2ccccc2)cc(-c2ccc(O)cc2C)n1

$$$$
