MODEL 1
REMARK VINA RESULT:      -8.4      0.000      0.000
REMARK  Name = 
REMARK  6 active torsions:
REMARK  status: ('A' for Active; 'I' for Inactive)
REMARK    1  A    between atoms: C_2  and  C_4
REMARK    2  A    between atoms: C_4  and  C_5
REMARK    3  A    between atoms: C_8  and  C_9
REMARK    4  A    between atoms: C_11  and  C_12
REMARK    5  A    between atoms: N_14  and  C_15
REMARK    6  A    between atoms: C_15  and  C_17
REMARK                            x       y       z     vdW  Elec       q    Type
REMARK                         _______ _______ _______ _____ _____    ______ ____
ROOT
ATOM      1  C   UNL     1      39.104   5.037  16.747  0.00  0.00    +0.000 A 
ATOM      2  C   UNL     1      38.130   4.104  17.117  0.00  0.00    +0.000 A 
ATOM      3  C   UNL     1      37.364   3.485  16.165  0.00  0.00    +0.000 A 
ATOM      4  C   UNL     1      37.602   3.825  14.853  0.00  0.00    +0.000 A 
ATOM      5  C   UNL     1      36.853   3.227  13.862  0.00  0.00    +0.000 A 
ATOM      6  C   UNL     1      37.070   3.546  12.543  0.00  0.00    +0.000 A 
ATOM      7  C   UNL     1      38.021   4.459  12.168  0.00  0.00    +0.000 A 
ATOM      8  C   UNL     1      38.777   5.068  13.127  0.00  0.00    +0.000 A 
ATOM      9  C   UNL     1      38.552   4.739  14.453  0.00  0.00    +0.000 A 
ATOM     10  N   UNL     1      39.266   5.306  15.446  0.00  0.00    +0.000 NA
ENDROOT
BRANCH   1  14
ATOM     11  C   UNL     1      41.472   7.000  19.625  0.00  0.00    +0.000 A 
ATOM     12  C   UNL     1      41.951   6.862  18.346  0.00  0.00    +0.000 A 
ATOM     13  C   UNL     1      41.166   6.213  17.391  0.00  0.00    +0.000 A 
ATOM     14  C   UNL     1      39.925   5.714  17.711  0.00  0.00    +0.000 A 
ATOM     15  C   UNL     1      39.484   5.871  18.991  0.00  0.00    +0.000 A 
ATOM     16  C   UNL     1      40.227   6.507  19.971  0.00  0.00    +0.000 A 
BRANCH  11  17
ATOM     17  C   UNL     1      42.336   7.703  20.629  0.00  0.00    +0.000 C 
BRANCH  17  19
ATOM     18  C   UNL     1      43.633   5.769  21.598  0.00  0.00    +0.000 C 
ATOM     19  C   UNL     1      43.670   6.959  20.668  0.00  0.00    +0.000 C 
ATOM     20  C   UNL     1      44.833   7.875  20.928  0.00  0.00    +0.000 C 
ENDBRANCH  17  19
ENDBRANCH  11  17
ENDBRANCH   1  14
BRANCH   3  21
ATOM     21  C   UNL     1      36.314   2.520  16.492  0.00  0.00    +0.000 C 
ATOM     22  O   UNL     1      35.103   2.862  16.458  0.00  0.00    +0.000 OA
ATOM     23  N   UNL     1      36.681   1.237  16.828  0.00  0.00    +0.000 NA
BRANCH  23  24
ATOM     24  C   UNL     1      35.567   0.175  17.175  0.00  0.00    +0.000 C 
ATOM     25  C   UNL     1      35.592  -0.539  15.685  0.00  0.00    +0.000 C 
BRANCH  24  26
ATOM     26  C   UNL     1      36.621  -0.843  17.838  0.00  0.00    +0.000 A 
ATOM     27  C   UNL     1      37.532  -1.394  16.985  0.00  0.00    +0.000 A 
ATOM     28  C   UNL     1      38.460  -2.279  17.493  0.00  0.00    +0.000 A 
ATOM     29  N   UNL     1      38.482  -2.604  18.790  0.00  0.00    +0.000 NA
ATOM     30  C   UNL     1      37.551  -2.025  19.595  0.00  0.00    +0.000 A 
ATOM     31  C   UNL     1      36.601  -1.133  19.135  0.00  0.00    +0.000 A 
ENDBRANCH  24  26
ENDBRANCH  23  24
ENDBRANCH   3  21
TORSDOF 6
ENDMDL
MODEL 2
REMARK VINA RESULT:      -8.3      1.871      2.339
REMARK  Name = 
REMARK  6 active torsions:
REMARK  status: ('A' for Active; 'I' for Inactive)
REMARK    1  A    between atoms: C_2  and  C_4
REMARK    2  A    between atoms: C_4  and  C_5
REMARK    3  A    between atoms: C_8  and  C_9
REMARK    4  A    between atoms: C_11  and  C_12
REMARK    5  A    between atoms: N_14  and  C_15
REMARK    6  A    between atoms: C_15  and  C_17
REMARK                            x       y       z     vdW  Elec       q    Type
REMARK                         _______ _______ _______ _____ _____    ______ ____
ROOT
ATOM      1  C   UNL     1      38.925   5.532  17.046  0.00  0.00    +0.000 A 
ATOM      2  C   UNL     1      38.416   4.230  17.092  0.00  0.00    +0.000 A 
ATOM      3  C   UNL     1      37.465   3.824  16.194  0.00  0.00    +0.000 A 
ATOM      4  C   UNL     1      37.048   4.749  15.264  0.00  0.00    +0.000 A 
ATOM      5  C   UNL     1      36.092   4.383  14.341  0.00  0.00    +0.000 A 
ATOM      6  C   UNL     1      35.657   5.285  13.400  0.00  0.00    +0.000 A 
ATOM      7  C   UNL     1      36.148   6.563  13.345  0.00  0.00    +0.000 A 
ATOM      8  C   UNL     1      37.095   6.955  14.246  0.00  0.00    +0.000 A 
ATOM      9  C   UNL     1      37.527   6.038  15.190  0.00  0.00    +0.000 A 
ATOM     10  N   UNL     1      38.460   6.365  16.107  0.00  0.00    +0.000 NA
ENDROOT
BRANCH   1  14
ATOM     11  C   UNL     1      41.872   6.933  19.710  0.00  0.00    +0.000 A 
ATOM     12  C   UNL     1      40.644   6.568  20.203  0.00  0.00    +0.000 A 
ATOM     13  C   UNL     1      39.668   6.102  19.321  0.00  0.00    +0.000 A 
ATOM     14  C   UNL     1      39.917   6.002  17.972  0.00  0.00    +0.000 A 
ATOM     15  C   UNL     1      41.148   6.374  17.521  0.00  0.00    +0.000 A 
ATOM     16  C   UNL     1      42.147   6.841  18.358  0.00  0.00    +0.000 A 
BRANCH  11  17
ATOM     17  C   UNL     1      42.903   7.429  20.680  0.00  0.00    +0.000 C 
BRANCH  17  19
ATOM     18  C   UNL     1      43.812   6.113  22.630  0.00  0.00    +0.000 C 
ATOM     19  C   UNL     1      43.717   6.215  21.125  0.00  0.00    +0.000 C 
ATOM     20  C   UNL     1      45.054   6.135  20.443  0.00  0.00    +0.000 C 
ENDBRANCH  17  19
ENDBRANCH  11  17
ENDBRANCH   1  14
BRANCH   3  21
ATOM     21  C   UNL     1      36.878   2.484  16.207  0.00  0.00    +0.000 C 
ATOM     22  O   UNL     1      35.742   2.293  16.713  0.00  0.00    +0.000 OA
ATOM     23  N   UNL     1      37.592   1.447  15.651  0.00  0.00    +0.000 NA
BRANCH  23  24
ATOM     24  C   UNL     1      36.976  -0.005  15.643  0.00  0.00    +0.000 C 
ATOM     25  C   UNL     1      36.543   0.039  14.049  0.00  0.00    +0.000 C 
BRANCH  24  26
ATOM     26  C   UNL     1      38.402  -0.703  15.383  0.00  0.00    +0.000 A 
ATOM     27  C   UNL     1      39.284   0.013  14.627  0.00  0.00    +0.000 A 
ATOM     28  C   UNL     1      40.522  -0.534  14.364  0.00  0.00    +0.000 A 
ATOM     29  N   UNL     1      40.871  -1.738  14.830  0.00  0.00    +0.000 NA
ATOM     30  C   UNL     1      39.953  -2.407  15.579  0.00  0.00    +0.000 A 
ATOM     31  C   UNL     1      38.700  -1.903  15.870  0.00  0.00    +0.000 A 
ENDBRANCH  24  26
ENDBRANCH  23  24
ENDBRANCH   3  21
TORSDOF 6
ENDMDL
MODEL 3
REMARK VINA RESULT:      -8.2      3.608      6.709
REMARK  Name = 
REMARK  6 active torsions:
REMARK  status: ('A' for Active; 'I' for Inactive)
REMARK    1  A    between atoms: C_2  and  C_4
REMARK    2  A    between atoms: C_4  and  C_5
REMARK    3  A    between atoms: C_8  and  C_9
REMARK    4  A    between atoms: C_11  and  C_12
REMARK    5  A    between atoms: N_14  and  C_15
REMARK    6  A    between atoms: C_15  and  C_17
REMARK                            x       y       z     vdW  Elec       q    Type
REMARK                         _______ _______ _______ _____ _____    ______ ____
ROOT
ATOM      1  C   UNL     1      38.511   5.230  16.895  0.00  0.00    +0.000 A 
ATOM      2  C   UNL     1      38.090   5.914  15.750  0.00  0.00    +0.000 A 
ATOM      3  C   UNL     1      37.114   5.387  14.947  0.00  0.00    +0.000 A 
ATOM      4  C   UNL     1      36.582   4.174  15.321  0.00  0.00    +0.000 A 
ATOM      5  C   UNL     1      35.598   3.607  14.542  0.00  0.00    +0.000 A 
ATOM      6  C   UNL     1      35.048   2.397  14.892  0.00  0.00    +0.000 A 
ATOM      7  C   UNL     1      35.453   1.718  16.011  0.00  0.00    +0.000 A 
ATOM      8  C   UNL     1      36.426   2.254  16.802  0.00  0.00    +0.000 A 
ATOM      9  C   UNL     1      36.973   3.473  16.441  0.00  0.00    +0.000 A 
ATOM     10  N   UNL     1      37.938   4.055  17.183  0.00  0.00    +0.000 NA
ENDROOT
BRANCH   1  14
ATOM     11  C   UNL     1      41.550   6.751  19.385  0.00  0.00    +0.000 A 
ATOM     12  C   UNL     1      40.344   6.402  19.939  0.00  0.00    +0.000 A 
ATOM     13  C   UNL     1      39.337   5.895  19.115  0.00  0.00    +0.000 A 
ATOM     14  C   UNL     1      39.536   5.742  17.763  0.00  0.00    +0.000 A 
ATOM     15  C   UNL     1      40.746   6.100  17.249  0.00  0.00    +0.000 A 
ATOM     16  C   UNL     1      41.773   6.606  18.028  0.00  0.00    +0.000 A 
BRANCH  11  17
ATOM     17  C   UNL     1      42.614   7.291  20.294  0.00  0.00    +0.000 C 
BRANCH  17  19
ATOM     18  C   UNL     1      43.808   5.658  21.800  0.00  0.00    +0.000 C 
ATOM     19  C   UNL     1      43.696   6.217  20.401  0.00  0.00    +0.000 C 
ATOM     20  C   UNL     1      45.015   6.670  19.839  0.00  0.00    +0.000 C 
ENDBRANCH  17  19
ENDBRANCH  11  17
ENDBRANCH   1  14
BRANCH   3  21
ATOM     21  C   UNL     1      36.649   6.043  13.724  0.00  0.00    +0.000 C 
ATOM     22  O   UNL     1      37.194   5.788  12.620  0.00  0.00    +0.000 OA
ATOM     23  N   UNL     1      35.604   6.935  13.812  0.00  0.00    +0.000 NA
BRANCH  23  24
ATOM     24  C   UNL     1      35.078   7.647  12.507  0.00  0.00    +0.000 C 
ATOM     25  C   UNL     1      33.589   6.930  12.552  0.00  0.00    +0.000 C 
BRANCH  24  26
ATOM     26  C   UNL     1      34.624   8.967  13.306  0.00  0.00    +0.000 A 
ATOM     27  C   UNL     1      34.414   8.808  14.645  0.00  0.00    +0.000 A 
ATOM     28  C   UNL     1      34.019   9.903  15.384  0.00  0.00    +0.000 A 
ATOM     29  N   UNL     1      33.837  11.103  14.820  0.00  0.00    +0.000 NA
ATOM     30  C   UNL     1      34.060  11.203  13.483  0.00  0.00    +0.000 A 
ATOM     31  C   UNL     1      34.458  10.137  12.698  0.00  0.00    +0.000 A 
ENDBRANCH  24  26
ENDBRANCH  23  24
ENDBRANCH   3  21
TORSDOF 6
ENDMDL
MODEL 4
REMARK VINA RESULT:      -8.1      2.124      2.904
REMARK  Name = 
REMARK  6 active torsions:
REMARK  status: ('A' for Active; 'I' for Inactive)
REMARK    1  A    between atoms: C_2  and  C_4
REMARK    2  A    between atoms: C_4  and  C_5
REMARK    3  A    between atoms: C_8  and  C_9
REMARK    4  A    between atoms: C_11  and  C_12
REMARK    5  A    between atoms: N_14  and  C_15
REMARK    6  A    between atoms: C_15  and  C_17
REMARK                            x       y       z     vdW  Elec       q    Type
REMARK                         _______ _______ _______ _____ _____    ______ ____
ROOT
ATOM      1  C   UNL     1      37.782   4.045  16.439  0.00  0.00    +0.000 A 
ATOM      2  C   UNL     1      37.020   3.038  17.041  0.00  0.00    +0.000 A 
ATOM      3  C   UNL     1      36.525   2.002  16.294  0.00  0.00    +0.000 A 
ATOM      4  C   UNL     1      36.815   2.006  14.949  0.00  0.00    +0.000 A 
ATOM      5  C   UNL     1      36.337   0.981  14.161  0.00  0.00    +0.000 A 
ATOM      6  C   UNL     1      36.611   0.959  12.814  0.00  0.00    +0.000 A 
ATOM      7  C   UNL     1      37.356   1.939  12.213  0.00  0.00    +0.000 A 
ATOM      8  C   UNL     1      37.843   2.966  12.968  0.00  0.00    +0.000 A 
ATOM      9  C   UNL     1      37.562   2.980  14.324  0.00  0.00    +0.000 A 
ATOM     10  N   UNL     1      38.014   3.968  15.123  0.00  0.00    +0.000 NA
ENDROOT
BRANCH   1  14
ATOM     11  C   UNL     1      39.373   7.253  18.658  0.00  0.00    +0.000 A 
ATOM     12  C   UNL     1      38.825   7.500  17.424  0.00  0.00    +0.000 A 
ATOM     13  C   UNL     1      38.295   6.437  16.689  0.00  0.00    +0.000 A 
ATOM     14  C   UNL     1      38.314   5.153  17.181  0.00  0.00    +0.000 A 
ATOM     15  C   UNL     1      38.868   4.948  18.410  0.00  0.00    +0.000 A 
ATOM     16  C   UNL     1      39.404   5.970  19.174  0.00  0.00    +0.000 A 
BRANCH  11  17
ATOM     17  C   UNL     1      39.933   8.413  19.426  0.00  0.00    +0.000 C 
BRANCH  17  19
ATOM     18  C   UNL     1      39.373  10.857  19.694  0.00  0.00    +0.000 C 
ATOM     19  C   UNL     1      38.825   9.459  19.524  0.00  0.00    +0.000 C 
ATOM     20  C   UNL     1      37.786   9.104  20.551  0.00  0.00    +0.000 C 
ENDBRANCH  17  19
ENDBRANCH  11  17
ENDBRANCH   1  14
BRANCH   3  21
ATOM     21  C   UNL     1      35.702   0.934  16.863  0.00  0.00    +0.000 C 
ATOM     22  O   UNL     1      34.474   1.117  17.064  0.00  0.00    +0.000 OA
ATOM     23  N   UNL     1      36.299  -0.270  17.162  0.00  0.00    +0.000 NA
BRANCH  23  24
ATOM     24  C   UNL     1      35.431  -1.440  17.766  0.00  0.00    +0.000 C 
ATOM     25  C   UNL     1      34.984  -2.049  16.296  0.00  0.00    +0.000 C 
BRANCH  24  26
ATOM     26  C   UNL     1      36.702  -2.409  17.941  0.00  0.00    +0.000 A 
ATOM     27  C   UNL     1      37.462  -2.196  19.054  0.00  0.00    +0.000 A 
ATOM     28  C   UNL     1      38.570  -2.993  19.258  0.00  0.00    +0.000 A 
ATOM     29  N   UNL     1      38.909  -3.957  18.396  0.00  0.00    +0.000 NA
ATOM     30  C   UNL     1      38.115  -4.125  17.304  0.00  0.00    +0.000 A 
ATOM     31  C   UNL     1      36.996  -3.354  17.054  0.00  0.00    +0.000 A 
ENDBRANCH  24  26
ENDBRANCH  23  24
ENDBRANCH   3  21
TORSDOF 6
ENDMDL
MODEL 5
REMARK VINA RESULT:      -7.8     24.517     27.705
REMARK  Name = 
REMARK  6 active torsions:
REMARK  status: ('A' for Active; 'I' for Inactive)
REMARK    1  A    between atoms: C_2  and  C_4
REMARK    2  A    between atoms: C_4  and  C_5
REMARK    3  A    between atoms: C_8  and  C_9
REMARK    4  A    between atoms: C_11  and  C_12
REMARK    5  A    between atoms: N_14  and  C_15
REMARK    6  A    between atoms: C_15  and  C_17
REMARK                            x       y       z     vdW  Elec       q    Type
REMARK                         _______ _______ _______ _____ _____    ______ ____
ROOT
ATOM      1  C   UNL     1      14.877   0.329  27.454  0.00  0.00    +0.000 A 
ATOM      2  C   UNL     1      14.696   0.053  28.814  0.00  0.00    +0.000 A 
ATOM      3  C   UNL     1      13.460   0.187  29.390  0.00  0.00    +0.000 A 
ATOM      4  C   UNL     1      12.430   0.597  28.575  0.00  0.00    +0.000 A 
ATOM      5  C   UNL     1      11.171   0.745  29.113  0.00  0.00    +0.000 A 
ATOM      6  C   UNL     1      10.123   1.152  28.323  0.00  0.00    +0.000 A 
ATOM      7  C   UNL     1      10.288   1.426  26.990  0.00  0.00    +0.000 A 
ATOM      8  C   UNL     1      11.525   1.289  26.429  0.00  0.00    +0.000 A 
ATOM      9  C   UNL     1      12.573   0.877  27.233  0.00  0.00    +0.000 A 
ATOM     10  N   UNL     1      13.818   0.723  26.737  0.00  0.00    +0.000 NA
ENDROOT
BRANCH   1  14
ATOM     11  C   UNL     1      18.646   0.033  25.596  0.00  0.00    +0.000 A 
ATOM     12  C   UNL     1      17.795  -1.043  25.557  0.00  0.00    +0.000 A 
ATOM     13  C   UNL     1      16.544  -0.945  26.171  0.00  0.00    +0.000 A 
ATOM     14  C   UNL     1      16.155   0.209  26.810  0.00  0.00    +0.000 A 
ATOM     15  C   UNL     1      17.028   1.256  26.827  0.00  0.00    +0.000 A 
ATOM     16  C   UNL     1      18.277   1.204  26.232  0.00  0.00    +0.000 A 
BRANCH  11  17
ATOM     17  C   UNL     1      19.981  -0.100  24.927  0.00  0.00    +0.000 C 
BRANCH  17  19
ATOM     18  C   UNL     1      20.330  -1.293  22.732  0.00  0.00    +0.000 C 
ATOM     19  C   UNL     1      19.729  -0.089  23.420  0.00  0.00    +0.000 C 
ATOM     20  C   UNL     1      20.120   1.213  22.779  0.00  0.00    +0.000 C 
ENDBRANCH  17  19
ENDBRANCH  11  17
ENDBRANCH   1  14
BRANCH   3  21
ATOM     21  C   UNL     1      13.213  -0.063  30.811  0.00  0.00    +0.000 C 
ATOM     22  O   UNL     1      12.883  -1.211  31.206  0.00  0.00    +0.000 OA
ATOM     23  N   UNL     1      13.357   0.980  31.697  0.00  0.00    +0.000 NA
BRANCH  23  24
ATOM     24  C   UNL     1      13.107   0.733  33.235  0.00  0.00    +0.000 C 
ATOM     25  C   UNL     1      14.710   0.598  33.614  0.00  0.00    +0.000 C 
BRANCH  24  26
ATOM     26  C   UNL     1      13.016   2.305  33.561  0.00  0.00    +0.000 A 
ATOM     27  C   UNL     1      14.202   2.978  33.574  0.00  0.00    +0.000 A 
ATOM     28  C   UNL     1      14.191   4.329  33.853  0.00  0.00    +0.000 A 
ATOM     29  N   UNL     1      13.052   4.983  34.108  0.00  0.00    +0.000 NA
ATOM     30  C   UNL     1      11.899   4.262  34.082  0.00  0.00    +0.000 A 
ATOM     31  C   UNL     1      11.858   2.909  33.808  0.00  0.00    +0.000 A 
ENDBRANCH  24  26
ENDBRANCH  23  24
ENDBRANCH   3  21
TORSDOF 6
ENDMDL
MODEL 6
REMARK VINA RESULT:      -7.8      3.612      9.185
REMARK  Name = 
REMARK  6 active torsions:
REMARK  status: ('A' for Active; 'I' for Inactive)
REMARK    1  A    between atoms: C_2  and  C_4
REMARK    2  A    between atoms: C_4  and  C_5
REMARK    3  A    between atoms: C_8  and  C_9
REMARK    4  A    between atoms: C_11  and  C_12
REMARK    5  A    between atoms: N_14  and  C_15
REMARK    6  A    between atoms: C_15  and  C_17
REMARK                            x       y       z     vdW  Elec       q    Type
REMARK                         _______ _______ _______ _____ _____    ______ ____
ROOT
ATOM      1  C   UNL     1      36.803   2.763  16.181  0.00  0.00    +0.000 A 
ATOM      2  C   UNL     1      36.564   3.599  15.085  0.00  0.00    +0.000 A 
ATOM      3  C   UNL     1      37.071   4.871  15.059  0.00  0.00    +0.000 A 
ATOM      4  C   UNL     1      37.813   5.272  16.146  0.00  0.00    +0.000 A 
ATOM      5  C   UNL     1      38.342   6.544  16.161  0.00  0.00    +0.000 A 
ATOM      6  C   UNL     1      39.088   6.972  17.233  0.00  0.00    +0.000 A 
ATOM      7  C   UNL     1      39.329   6.162  18.313  0.00  0.00    +0.000 A 
ATOM      8  C   UNL     1      38.818   4.897  18.326  0.00  0.00    +0.000 A 
ATOM      9  C   UNL     1      38.068   4.476  17.241  0.00  0.00    +0.000 A 
ATOM     10  N   UNL     1      37.537   3.237  17.196  0.00  0.00    +0.000 NA
ENDROOT
BRANCH   1  14
ATOM     11  C   UNL     1      35.246  -1.142  16.445  0.00  0.00    +0.000 A 
ATOM     12  C   UNL     1      36.012  -0.799  15.358  0.00  0.00    +0.000 A 
ATOM     13  C   UNL     1      36.530   0.494  15.272  0.00  0.00    +0.000 A 
ATOM     14  C   UNL     1      36.286   1.425  16.254  0.00  0.00    +0.000 A 
ATOM     15  C   UNL     1      35.522   1.047  17.317  0.00  0.00    +0.000 A 
ATOM     16  C   UNL     1      34.988  -0.223  17.446  0.00  0.00    +0.000 A 
BRANCH  11  17
ATOM     17  C   UNL     1      34.704  -2.538  16.513  0.00  0.00    +0.000 C 
BRANCH  17  19
ATOM     18  C   UNL     1      34.719  -4.176  14.595  0.00  0.00    +0.000 C 
ATOM     19  C   UNL     1      35.558  -3.395  15.579  0.00  0.00    +0.000 C 
ATOM     20  C   UNL     1      36.544  -4.251  16.323  0.00  0.00    +0.000 C 
ENDBRANCH  17  19
ENDBRANCH  11  17
ENDBRANCH   1  14
BRANCH   3  21
ATOM     21  C   UNL     1      36.834   5.800  13.952  0.00  0.00    +0.000 C 
ATOM     22  O   UNL     1      37.644   5.863  12.992  0.00  0.00    +0.000 OA
ATOM     23  N   UNL     1      35.708   6.591  13.986  0.00  0.00    +0.000 NA
BRANCH  23  24
ATOM     24  C   UNL     1      35.426   7.592  12.800  0.00  0.00    +0.000 C 
ATOM     25  C   UNL     1      33.937   6.968  12.448  0.00  0.00    +0.000 C 
BRANCH  24  26
ATOM     26  C   UNL     1      34.870   8.737  13.784  0.00  0.00    +0.000 A 
ATOM     27  C   UNL     1      34.228   8.296  14.904  0.00  0.00    +0.000 A 
ATOM     28  C   UNL     1      33.725   9.231  15.785  0.00  0.00    +0.000 A 
ATOM     29  N   UNL     1      33.851  10.544  15.564  0.00  0.00    +0.000 NA
ATOM     30  C   UNL     1      34.501  10.926  14.431  0.00  0.00    +0.000 A 
ATOM     31  C   UNL     1      35.023  10.030  13.518  0.00  0.00    +0.000 A 
ENDBRANCH  24  26
ENDBRANCH  23  24
ENDBRANCH   3  21
TORSDOF 6
ENDMDL
MODEL 7
REMARK VINA RESULT:      -7.8      2.021      2.611
REMARK  Name = 
REMARK  6 active torsions:
REMARK  status: ('A' for Active; 'I' for Inactive)
REMARK    1  A    between atoms: C_2  and  C_4
REMARK    2  A    between atoms: C_4  and  C_5
REMARK    3  A    between atoms: C_8  and  C_9
REMARK    4  A    between atoms: C_11  and  C_12
REMARK    5  A    between atoms: N_14  and  C_15
REMARK    6  A    between atoms: C_15  and  C_17
REMARK                            x       y       z     vdW  Elec       q    Type
REMARK                         _______ _______ _______ _____ _____    ______ ____
ROOT
ATOM      1  C   UNL     1      38.908   5.541  16.431  0.00  0.00    +0.000 A 
ATOM      2  C   UNL     1      38.898   4.267  15.854  0.00  0.00    +0.000 A 
ATOM      3  C   UNL     1      38.019   3.970  14.846  0.00  0.00    +0.000 A 
ATOM      4  C   UNL     1      37.167   4.972  14.443  0.00  0.00    +0.000 A 
ATOM      5  C   UNL     1      36.266   4.716  13.432  0.00  0.00    +0.000 A 
ATOM      6  C   UNL     1      35.403   5.698  13.008  0.00  0.00    +0.000 A 
ATOM      7  C   UNL     1      35.404   6.950  13.566  0.00  0.00    +0.000 A 
ATOM      8  C   UNL     1      36.285   7.233  14.569  0.00  0.00    +0.000 A 
ATOM      9  C   UNL     1      37.150   6.237  14.989  0.00  0.00    +0.000 A 
ATOM     10  N   UNL     1      38.043   6.455  15.976  0.00  0.00    +0.000 NA
ENDROOT
BRANCH   1  14
ATOM     11  C   UNL     1      41.501   6.557  19.593  0.00  0.00    +0.000 A 
ATOM     12  C   UNL     1      41.986   6.540  18.309  0.00  0.00    +0.000 A 
ATOM     13  C   UNL     1      41.127   6.206  17.261  0.00  0.00    +0.000 A 
ATOM     14  C   UNL     1      39.808   5.895  17.494  0.00  0.00    +0.000 A 
ATOM     15  C   UNL     1      39.363   5.923  18.782  0.00  0.00    +0.000 A 
ATOM     16  C   UNL     1      40.178   6.249  19.853  0.00  0.00    +0.000 A 
BRANCH  11  17
ATOM     17  C   UNL     1      42.446   6.921  20.699  0.00  0.00    +0.000 C 
BRANCH  17  19
ATOM     18  C   UNL     1      44.676   8.090  20.563  0.00  0.00    +0.000 C 
ATOM     19  C   UNL     1      43.201   8.170  20.248  0.00  0.00    +0.000 C 
ATOM     20  C   UNL     1      42.561   9.439  20.739  0.00  0.00    +0.000 C 
ENDBRANCH  17  19
ENDBRANCH  11  17
ENDBRANCH   1  14
BRANCH   3  21
ATOM     21  C   UNL     1      37.943   2.649  14.220  0.00  0.00    +0.000 C 
ATOM     22  O   UNL     1      38.407   2.467  13.065  0.00  0.00    +0.000 OA
ATOM     23  N   UNL     1      37.363   1.619  14.924  0.00  0.00    +0.000 NA
BRANCH  23  24
ATOM     24  C   UNL     1      37.279   0.184  14.275  0.00  0.00    +0.000 C 
ATOM     25  C   UNL     1      38.621  -0.394  15.048  0.00  0.00    +0.000 C 
BRANCH  24  26
ATOM     26  C   UNL     1      36.238  -0.350  15.378  0.00  0.00    +0.000 A 
ATOM     27  C   UNL     1      35.646   0.608  16.148  0.00  0.00    +0.000 A 
ATOM     28  C   UNL     1      34.747   0.212  17.116  0.00  0.00    +0.000 A 
ATOM     29  N   UNL     1      34.448  -1.077  17.312  0.00  0.00    +0.000 NA
ATOM     30  C   UNL     1      35.068  -1.988  16.515  0.00  0.00    +0.000 A 
ATOM     31  C   UNL     1      35.976  -1.644  15.533  0.00  0.00    +0.000 A 
ENDBRANCH  24  26
ENDBRANCH  23  24
ENDBRANCH   3  21
TORSDOF 6
ENDMDL
MODEL 8
REMARK VINA RESULT:      -7.7      2.737      6.208
REMARK  Name = 
REMARK  6 active torsions:
REMARK  status: ('A' for Active; 'I' for Inactive)
REMARK    1  A    between atoms: C_2  and  C_4
REMARK    2  A    between atoms: C_4  and  C_5
REMARK    3  A    between atoms: C_8  and  C_9
REMARK    4  A    between atoms: C_11  and  C_12
REMARK    5  A    between atoms: N_14  and  C_15
REMARK    6  A    between atoms: C_15  and  C_17
REMARK                            x       y       z     vdW  Elec       q    Type
REMARK                         _______ _______ _______ _____ _____    ______ ____
ROOT
ATOM      1  C   UNL     1      38.825   4.904  16.584  0.00  0.00    +0.000 A 
ATOM      2  C   UNL     1      38.943   5.134  15.209  0.00  0.00    +0.000 A 
ATOM      3  C   UNL     1      38.124   4.483  14.324  0.00  0.00    +0.000 A 
ATOM      4  C   UNL     1      37.200   3.610  14.851  0.00  0.00    +0.000 A 
ATOM      5  C   UNL     1      36.357   2.934  13.997  0.00  0.00    +0.000 A 
ATOM      6  C   UNL     1      35.424   2.056  14.496  0.00  0.00    +0.000 A 
ATOM      7  C   UNL     1      35.300   1.823  15.840  0.00  0.00    +0.000 A 
ATOM      8  C   UNL     1      36.122   2.478  16.711  0.00  0.00    +0.000 A 
ATOM      9  C   UNL     1      37.058   3.360  16.199  0.00  0.00    +0.000 A 
ATOM     10  N   UNL     1      37.898   4.037  17.008  0.00  0.00    +0.000 NA
ENDROOT
BRANCH   1  14
ATOM     11  C   UNL     1      41.250   6.804  19.456  0.00  0.00    +0.000 A 
ATOM     12  C   UNL     1      41.735   6.624  18.185  0.00  0.00    +0.000 A 
ATOM     13  C   UNL     1      40.931   5.997  17.232  0.00  0.00    +0.000 A 
ATOM     14  C   UNL     1      39.666   5.559  17.547  0.00  0.00    +0.000 A 
ATOM     15  C   UNL     1      39.220   5.755  18.819  0.00  0.00    +0.000 A 
ATOM     16  C   UNL     1      39.981   6.373  19.796  0.00  0.00    +0.000 A 
BRANCH  11  17
ATOM     17  C   UNL     1      42.135   7.483  20.459  0.00  0.00    +0.000 C 
BRANCH  17  19
ATOM     18  C   UNL     1      43.572   5.741  21.581  0.00  0.00    +0.000 C 
ATOM     19  C   UNL     1      43.470   6.740  20.452  0.00  0.00    +0.000 C 
ATOM     20  C   UNL     1      44.648   7.671  20.379  0.00  0.00    +0.000 C 
ENDBRANCH  17  19
ENDBRANCH  11  17
ENDBRANCH   1  14
BRANCH   3  21
ATOM     21  C   UNL     1      38.216   4.663  12.874  0.00  0.00    +0.000 C 
ATOM     22  O   UNL     1      39.184   4.179  12.234  0.00  0.00    +0.000 OA
ATOM     23  N   UNL     1      37.220   5.366  12.234  0.00  0.00    +0.000 NA
BRANCH  23  24
ATOM     24  C   UNL     1      37.290   5.565  10.671  0.00  0.00    +0.000 C 
ATOM     25  C   UNL     1      36.727   4.053  10.316  0.00  0.00    +0.000 C 
BRANCH  24  26
ATOM     26  C   UNL     1      35.847   6.272  10.609  0.00  0.00    +0.000 A 
ATOM     27  C   UNL     1      35.221   6.451  11.808  0.00  0.00    +0.000 A 
ATOM     28  C   UNL     1      33.978   7.047  11.821  0.00  0.00    +0.000 A 
ATOM     29  N   UNL     1      33.380   7.448  10.692  0.00  0.00    +0.000 NA
ATOM     30  C   UNL     1      34.050   7.245   9.526  0.00  0.00    +0.000 A 
ATOM     31  C   UNL     1      35.297   6.653   9.461  0.00  0.00    +0.000 A 
ENDBRANCH  24  26
ENDBRANCH  23  24
ENDBRANCH   3  21
TORSDOF 6
ENDMDL
MODEL 9
REMARK VINA RESULT:      -7.5     23.964     27.179
REMARK  Name = 
REMARK  6 active torsions:
REMARK  status: ('A' for Active; 'I' for Inactive)
REMARK    1  A    between atoms: C_2  and  C_4
REMARK    2  A    between atoms: C_4  and  C_5
REMARK    3  A    between atoms: C_8  and  C_9
REMARK    4  A    between atoms: C_11  and  C_12
REMARK    5  A    between atoms: N_14  and  C_15
REMARK    6  A    between atoms: C_15  and  C_17
REMARK                            x       y       z     vdW  Elec       q    Type
REMARK                         _______ _______ _______ _____ _____    ______ ____
ROOT
ATOM      1  C   UNL     1      14.906  -0.207  26.793  0.00  0.00    +0.000 A 
ATOM      2  C   UNL     1      14.604   0.179  28.103  0.00  0.00    +0.000 A 
ATOM      3  C   UNL     1      13.319   0.095  28.572  0.00  0.00    +0.000 A 
ATOM      4  C   UNL     1      12.365  -0.380  27.702  0.00  0.00    +0.000 A 
ATOM      5  C   UNL     1      11.060  -0.481  28.133  0.00  0.00    +0.000 A 
ATOM      6  C   UNL     1      10.086  -0.953  27.285  0.00  0.00    +0.000 A 
ATOM      7  C   UNL     1      10.370  -1.333  26.000  0.00  0.00    +0.000 A 
ATOM      8  C   UNL     1      11.654  -1.244  25.545  0.00  0.00    +0.000 A 
ATOM      9  C   UNL     1      12.628  -0.768  26.406  0.00  0.00    +0.000 A 
ATOM     10  N   UNL     1      13.914  -0.657  26.016  0.00  0.00    +0.000 NA
ENDROOT
BRANCH   1  14
ATOM     11  C   UNL     1      18.803  -0.042  25.200  0.00  0.00    +0.000 A 
ATOM     12  C   UNL     1      18.193   1.122  25.599  0.00  0.00    +0.000 A 
ATOM     13  C   UNL     1      16.903   1.067  26.129  0.00  0.00    +0.000 A 
ATOM     14  C   UNL     1      16.237  -0.129  26.257  0.00  0.00    +0.000 A 
ATOM     15  C   UNL     1      16.875  -1.262  25.851  0.00  0.00    +0.000 A 
ATOM     16  C   UNL     1      18.153  -1.257  25.320  0.00  0.00    +0.000 A 
BRANCH  11  17
ATOM     17  C   UNL     1      20.189   0.046  24.636  0.00  0.00    +0.000 C 
BRANCH  17  19
ATOM     18  C   UNL     1      20.961  -1.142  22.550  0.00  0.00    +0.000 C 
ATOM     19  C   UNL     1      20.062  -0.069  23.118  0.00  0.00    +0.000 C 
ATOM     20  C   UNL     1      20.214   1.256  22.424  0.00  0.00    +0.000 C 
ENDBRANCH  17  19
ENDBRANCH  11  17
ENDBRANCH   1  14
BRANCH   3  21
ATOM     21  C   UNL     1      12.937   0.505  29.924  0.00  0.00    +0.000 C 
ATOM     22  O   UNL     1      12.315   1.583  30.108  0.00  0.00    +0.000 OA
ATOM     23  N   UNL     1      13.268  -0.314  30.979  0.00  0.00    +0.000 NA
BRANCH  23  24
ATOM     24  C   UNL     1      12.858   0.101  32.445  0.00  0.00    +0.000 C 
ATOM     25  C   UNL     1      11.555  -0.914  32.514  0.00  0.00    +0.000 C 
BRANCH  24  26
ATOM     26  C   UNL     1      13.883  -0.938  33.119  0.00  0.00    +0.000 A 
ATOM     27  C   UNL     1      14.802  -0.397  33.971  0.00  0.00    +0.000 A 
ATOM     28  C   UNL     1      15.713  -1.236  34.578  0.00  0.00    +0.000 A 
ATOM     29  N   UNL     1      15.713  -2.555  34.349  0.00  0.00    +0.000 NA
ATOM     30  C   UNL     1      14.775  -3.039  33.491  0.00  0.00    +0.000 A 
ATOM     31  C   UNL     1      13.841  -2.240  32.859  0.00  0.00    +0.000 A 
ENDBRANCH  24  26
ENDBRANCH  23  24
ENDBRANCH   3  21
TORSDOF 6
ENDMDL
MODEL 10
REMARK VINA RESULT:      -7.5      4.833      8.888
REMARK  Name = 
REMARK  6 active torsions:
REMARK  status: ('A' for Active; 'I' for Inactive)
REMARK    1  A    between atoms: C_2  and  C_4
REMARK    2  A    between atoms: C_4  and  C_5
REMARK    3  A    between atoms: C_8  and  C_9
REMARK    4  A    between atoms: C_11  and  C_12
REMARK    5  A    between atoms: N_14  and  C_15
REMARK    6  A    between atoms: C_15  and  C_17
REMARK                            x       y       z     vdW  Elec       q    Type
REMARK                         _______ _______ _______ _____ _____    ______ ____
ROOT
ATOM      1  C   UNL     1      40.799  -1.755  14.662  0.00  0.00    +0.000 A 
ATOM      2  C   UNL     1      40.095  -0.584  14.360  0.00  0.00    +0.000 A 
ATOM      3  C   UNL     1      38.921  -0.296  15.004  0.00  0.00    +0.000 A 
ATOM      4  C   UNL     1      38.484  -1.201  15.943  0.00  0.00    +0.000 A 
ATOM      5  C   UNL     1      37.307  -0.950  16.615  0.00  0.00    +0.000 A 
ATOM      6  C   UNL     1      36.846  -1.836  17.560  0.00  0.00    +0.000 A 
ATOM      7  C   UNL     1      37.528  -2.986  17.863  0.00  0.00    +0.000 A 
ATOM      8  C   UNL     1      38.696  -3.261  17.214  0.00  0.00    +0.000 A 
ATOM      9  C   UNL     1      39.152  -2.362  16.265  0.00  0.00    +0.000 A 
ATOM     10  N   UNL     1      40.299  -2.579  15.591  0.00  0.00    +0.000 NA
ENDROOT
BRANCH   1  14
ATOM     11  C   UNL     1      44.443  -2.744  12.794  0.00  0.00    +0.000 A 
ATOM     12  C   UNL     1      43.275  -3.269  12.301  0.00  0.00    +0.000 A 
ATOM     13  C   UNL     1      42.067  -2.940  12.918  0.00  0.00    +0.000 A 
ATOM     14  C   UNL     1      42.031  -2.100  14.007  0.00  0.00    +0.000 A 
ATOM     15  C   UNL     1      43.211  -1.599  14.467  0.00  0.00    +0.000 A 
ATOM     16  C   UNL     1      44.432  -1.897  13.887  0.00  0.00    +0.000 A 
BRANCH  11  17
ATOM     17  C   UNL     1      45.726  -3.113  12.110  0.00  0.00    +0.000 C 
BRANCH  17  19
ATOM     18  C   UNL     1      47.234  -4.645  13.430  0.00  0.00    +0.000 C 
ATOM     19  C   UNL     1      46.043  -4.555  12.504  0.00  0.00    +0.000 C 
ATOM     20  C   UNL     1      46.150  -5.467  11.314  0.00  0.00    +0.000 C 
ENDBRANCH  17  19
ENDBRANCH  11  17
ENDBRANCH   1  14
BRANCH   3  21
ATOM     21  C   UNL     1      38.127   0.899  14.714  0.00  0.00    +0.000 C 
ATOM     22  O   UNL     1      37.273   0.885  13.790  0.00  0.00    +0.000 OA
ATOM     23  N   UNL     1      38.332   2.026  15.476  0.00  0.00    +0.000 NA
BRANCH  23  24
ATOM     24  C   UNL     1      37.482   3.324  15.190  0.00  0.00    +0.000 C 
ATOM     25  C   UNL     1      36.382   3.032  16.388  0.00  0.00    +0.000 C 
BRANCH  24  26
ATOM     26  C   UNL     1      38.434   4.252  16.094  0.00  0.00    +0.000 A 
ATOM     27  C   UNL     1      38.148   4.274  17.428  0.00  0.00    +0.000 A 
ATOM     28  C   UNL     1      38.926   5.056  18.256  0.00  0.00    +0.000 A 
ATOM     29  N   UNL     1      39.943   5.785  17.782  0.00  0.00    +0.000 NA
ATOM     30  C   UNL     1      40.182   5.725  16.444  0.00  0.00    +0.000 A 
ATOM     31  C   UNL     1      39.432   4.958  15.574  0.00  0.00    +0.000 A 
ENDBRANCH  24  26
ENDBRANCH  23  24
ENDBRANCH   3  21
TORSDOF 6
ENDMDL
