MODEL 1
REMARK VINA RESULT:      -6.0      0.000      0.000
REMARK  Name = 
REMARK  4 active torsions:
REMARK  status: ('A' for Active; 'I' for Inactive)
REMARK    1  A    between atoms: C_5  and  C_7
REMARK    2  A    between atoms: C_7  and  O_8
REMARK    3  A    between atoms: O_8  and  C_9
REMARK    4  A    between atoms: C_9  and  C_11
REMARK                            x       y       z     vdW  Elec       q    Type
REMARK                         _______ _______ _______ _____ _____    ______ ____
ROOT
ATOM      1  C   UNL     1      28.337  23.007  24.805  0.00  0.00    +0.000 C 
ENDROOT
BRANCH   1   6
ATOM      2  C   UNL     1      31.677  23.326  27.003  0.00  0.00    +0.000 C 
ATOM      3  C   UNL     1      31.653  24.476  25.830  0.00  0.00    +0.000 C 
ATOM      4  C   UNL     1      31.926  23.410  24.617  0.00  0.00    +0.000 C 
ATOM      5  C   UNL     1      30.713  22.654  24.487  0.00  0.00    +0.000 C 
ATOM      6  C   UNL     1      29.706  23.060  25.492  0.00  0.00    +0.000 C 
ATOM      7  C   UNL     1      29.603  22.203  26.691  0.00  0.00    +0.000 C 
ATOM      8  C   UNL     1      30.023  24.478  25.678  0.00  0.00    +0.000 C 
ATOM      9  C   UNL     1      29.495  25.082  26.935  0.00  0.00    +0.000 C 
ATOM     10  C   UNL     1      29.718  25.264  24.440  0.00  0.00    +0.000 C 
ENDBRANCH   1   6
BRANCH   1  11
ATOM     11  O   UNL     1      27.404  22.646  25.825  0.00  0.00    +0.000 OA
BRANCH  11  12
ATOM     12  C   UNL     1      26.265  23.342  26.103  0.00  0.00    +0.000 C 
ATOM     13  O   UNL     1      25.426  23.547  25.194  0.00  0.00    +0.000 OA
BRANCH  12  14
ATOM     14  C   UNL     1      26.028  23.844  27.464  0.00  0.00    +0.000 A 
ATOM     15  C   UNL     1      25.310  24.994  27.716  0.00  0.00    +0.000 A 
ATOM     16  C   UNL     1      25.115  25.425  29.012  0.00  0.00    +0.000 A 
ATOM     17  C   UNL     1      25.616  24.745  30.104  0.00  0.00    +0.000 A 
ATOM     18  N   UNL     1      25.386  25.235  31.425  0.00  0.00    +0.000 NA
ATOM     19  C   UNL     1      26.333  23.598  29.862  0.00  0.00    +0.000 A 
ATOM     20  C   UNL     1      26.526  23.169  28.565  0.00  0.00    +0.000 A 
ENDBRANCH  12  14
ENDBRANCH  11  12
ENDBRANCH   1  11
TORSDOF 4
ENDMDL
MODEL 2
REMARK VINA RESULT:      -5.9      3.554      5.264
REMARK  Name = 
REMARK  4 active torsions:
REMARK  status: ('A' for Active; 'I' for Inactive)
REMARK    1  A    between atoms: C_5  and  C_7
REMARK    2  A    between atoms: C_7  and  O_8
REMARK    3  A    between atoms: O_8  and  C_9
REMARK    4  A    between atoms: C_9  and  C_11
REMARK                            x       y       z     vdW  Elec       q    Type
REMARK                         _______ _______ _______ _____ _____    ______ ____
ROOT
ATOM      1  C   UNL     1      27.697  23.842  25.424  0.00  0.00    +0.000 C 
ENDROOT
BRANCH   1   6
ATOM      2  C   UNL     1      30.965  22.334  27.196  0.00  0.00    +0.000 C 
ATOM      3  C   UNL     1      31.380  23.552  26.175  0.00  0.00    +0.000 C 
ATOM      4  C   UNL     1      31.070  22.681  24.823  0.00  0.00    +0.000 C 
ATOM      5  C   UNL     1      29.642  22.554  24.764  0.00  0.00    +0.000 C 
ATOM      6  C   UNL     1      28.988  23.189  25.930  0.00  0.00    +0.000 C 
ATOM      7  C   UNL     1      28.592  22.282  27.027  0.00  0.00    +0.000 C 
ATOM      8  C   UNL     1      29.915  24.282  26.235  0.00  0.00    +0.000 C 
ATOM      9  C   UNL     1      29.794  24.845  27.610  0.00  0.00    +0.000 C 
ATOM     10  C   UNL     1      29.913  25.309  25.144  0.00  0.00    +0.000 C 
ENDBRANCH   1   6
BRANCH   1  11
ATOM     11  O   UNL     1      27.219  22.996  24.377  0.00  0.00    +0.000 OA
BRANCH  11  12
ATOM     12  C   UNL     1      26.755  23.449  23.177  0.00  0.00    +0.000 C 
ATOM     13  O   UNL     1      25.670  23.013  22.727  0.00  0.00    +0.000 OA
BRANCH  12  14
ATOM     14  C   UNL     1      27.530  24.445  22.423  0.00  0.00    +0.000 A 
ATOM     15  C   UNL     1      28.675  24.120  21.726  0.00  0.00    +0.000 A 
ATOM     16  C   UNL     1      29.369  25.091  21.034  0.00  0.00    +0.000 A 
ATOM     17  C   UNL     1      28.965  26.411  21.000  0.00  0.00    +0.000 A 
ATOM     18  N   UNL     1      29.720  27.377  20.268  0.00  0.00    +0.000 NA
ATOM     19  C   UNL     1      27.824  26.743  21.692  0.00  0.00    +0.000 A 
ATOM     20  C   UNL     1      27.133  25.770  22.383  0.00  0.00    +0.000 A 
ENDBRANCH  12  14
ENDBRANCH  11  12
ENDBRANCH   1  11
TORSDOF 4
ENDMDL
MODEL 3
REMARK VINA RESULT:      -5.8     28.127     29.744
REMARK  Name = 
REMARK  4 active torsions:
REMARK  status: ('A' for Active; 'I' for Inactive)
REMARK    1  A    between atoms: C_5  and  C_7
REMARK    2  A    between atoms: C_7  and  O_8
REMARK    3  A    between atoms: O_8  and  C_9
REMARK    4  A    between atoms: C_9  and  C_11
REMARK                            x       y       z     vdW  Elec       q    Type
REMARK                         _______ _______ _______ _____ _____    ______ ____
ROOT
ATOM      1  C   UNL     1      33.218  -6.573  32.724  0.00  0.00    +0.000 C 
ENDROOT
BRANCH   1   6
ATOM      2  C   UNL     1      33.353  -7.558  28.838  0.00  0.00    +0.000 C 
ATOM      3  C   UNL     1      34.554  -6.497  29.201  0.00  0.00    +0.000 C 
ATOM      4  C   UNL     1      33.536  -5.227  29.382  0.00  0.00    +0.000 C 
ATOM      5  C   UNL     1      32.819  -5.478  30.599  0.00  0.00    +0.000 C 
ATOM      6  C   UNL     1      33.205  -6.772  31.205  0.00  0.00    +0.000 C 
ATOM      7  C   UNL     1      32.299  -7.909  30.942  0.00  0.00    +0.000 C 
ATOM      8  C   UNL     1      34.605  -6.891  30.789  0.00  0.00    +0.000 C 
ATOM      9  C   UNL     1      35.166  -8.270  30.852  0.00  0.00    +0.000 C 
ATOM     10  C   UNL     1      35.453  -5.849  31.452  0.00  0.00    +0.000 C 
ENDBRANCH   1   6
BRANCH   1  11
ATOM     11  O   UNL     1      32.460  -5.387  32.967  0.00  0.00    +0.000 OA
BRANCH  11  12
ATOM     12  C   UNL     1      32.449  -4.714  34.154  0.00  0.00    +0.000 C 
ATOM     13  O   UNL     1      32.221  -5.338  35.218  0.00  0.00    +0.000 OA
BRANCH  12  14
ATOM     14  C   UNL     1      32.704  -3.267  34.176  0.00  0.00    +0.000 A 
ATOM     15  C   UNL     1      33.666  -2.673  33.387  0.00  0.00    +0.000 A 
ATOM     16  C   UNL     1      33.870  -1.309  33.444  0.00  0.00    +0.000 A 
ATOM     17  C   UNL     1      33.139  -0.483  34.275  0.00  0.00    +0.000 A 
ATOM     18  N   UNL     1      33.389   0.922  34.296  0.00  0.00    +0.000 NA
ATOM     19  C   UNL     1      32.177  -1.068  35.065  0.00  0.00    +0.000 A 
ATOM     20  C   UNL     1      31.976  -2.431  35.005  0.00  0.00    +0.000 A 
ENDBRANCH  12  14
ENDBRANCH  11  12
ENDBRANCH   1  11
TORSDOF 4
ENDMDL
MODEL 4
REMARK VINA RESULT:      -5.8     19.432     22.259
REMARK  Name = 
REMARK  4 active torsions:
REMARK  status: ('A' for Active; 'I' for Inactive)
REMARK    1  A    between atoms: C_5  and  C_7
REMARK    2  A    between atoms: C_7  and  O_8
REMARK    3  A    between atoms: O_8  and  C_9
REMARK    4  A    between atoms: C_9  and  C_11
REMARK                            x       y       z     vdW  Elec       q    Type
REMARK                         _______ _______ _______ _____ _____    ______ ____
ROOT
ATOM      1  C   UNL     1      18.746   9.816  40.372  0.00  0.00    +0.000 C 
ENDROOT
BRANCH   1   6
ATOM      2  C   UNL     1      15.369   7.966  41.494  0.00  0.00    +0.000 C 
ATOM      3  C   UNL     1      16.641   7.416  42.376  0.00  0.00    +0.000 C 
ATOM      4  C   UNL     1      17.300   6.588  41.125  0.00  0.00    +0.000 C 
ATOM      5  C   UNL     1      17.812   7.585  40.229  0.00  0.00    +0.000 C 
ATOM      6  C   UNL     1      17.526   8.954  40.713  0.00  0.00    +0.000 C 
ATOM      7  C   UNL     1      16.359   9.627  40.107  0.00  0.00    +0.000 C 
ATOM      8  C   UNL     1      17.542   8.767  42.166  0.00  0.00    +0.000 C 
ATOM      9  C   UNL     1      16.861   9.839  42.946  0.00  0.00    +0.000 C 
ATOM     10  C   UNL     1      18.920   8.431  42.650  0.00  0.00    +0.000 C 
ENDBRANCH   1   6
BRANCH   1  11
ATOM     11  O   UNL     1      19.238   9.320  39.126  0.00  0.00    +0.000 OA
BRANCH  11  12
ATOM     12  C   UNL     1      19.561  10.107  38.060  0.00  0.00    +0.000 C 
ATOM     13  O   UNL     1      20.650  10.727  38.055  0.00  0.00    +0.000 OA
BRANCH  12  14
ATOM     14  C   UNL     1      18.632  10.219  36.927  0.00  0.00    +0.000 A 
ATOM     15  C   UNL     1      18.672   9.361  35.848  0.00  0.00    +0.000 A 
ATOM     16  C   UNL     1      17.778   9.507  34.806  0.00  0.00    +0.000 A 
ATOM     17  C   UNL     1      16.816  10.498  34.787  0.00  0.00    +0.000 A 
ATOM     18  N   UNL     1      15.915  10.606  33.685  0.00  0.00    +0.000 NA
ATOM     19  C   UNL     1      16.769  11.357  35.860  0.00  0.00    +0.000 A 
ATOM     20  C   UNL     1      17.664  11.208  36.899  0.00  0.00    +0.000 A 
ENDBRANCH  12  14
ENDBRANCH  11  12
ENDBRANCH   1  11
TORSDOF 4
ENDMDL
MODEL 5
REMARK VINA RESULT:      -5.6      2.803      5.786
REMARK  Name = 
REMARK  4 active torsions:
REMARK  status: ('A' for Active; 'I' for Inactive)
REMARK    1  A    between atoms: C_5  and  C_7
REMARK    2  A    between atoms: C_7  and  O_8
REMARK    3  A    between atoms: O_8  and  C_9
REMARK    4  A    between atoms: C_9  and  C_11
REMARK                            x       y       z     vdW  Elec       q    Type
REMARK                         _______ _______ _______ _____ _____    ______ ____
ROOT
ATOM      1  C   UNL     1      25.527  25.528  24.850  0.00  0.00    +0.000 C 
ENDROOT
BRANCH   1   6
ATOM      2  C   UNL     1      24.440  26.054  28.675  0.00  0.00    +0.000 C 
ATOM      3  C   UNL     1      26.055  25.776  28.574  0.00  0.00    +0.000 C 
ATOM      4  C   UNL     1      25.877  24.193  28.193  0.00  0.00    +0.000 C 
ATOM      5  C   UNL     1      25.364  24.173  26.853  0.00  0.00    +0.000 C 
ATOM      6  C   UNL     1      25.141  25.541  26.333  0.00  0.00    +0.000 C 
ATOM      7  C   UNL     1      23.753  26.042  26.397  0.00  0.00    +0.000 C 
ATOM      8  C   UNL     1      26.185  26.300  27.028  0.00  0.00    +0.000 C 
ATOM      9  C   UNL     1      25.967  27.773  27.075  0.00  0.00    +0.000 C 
ATOM     10  C   UNL     1      27.548  25.891  26.560  0.00  0.00    +0.000 C 
ENDBRANCH   1   6
BRANCH   1  11
ATOM     11  O   UNL     1      25.256  24.204  24.389  0.00  0.00    +0.000 OA
BRANCH  11  12
ATOM     12  C   UNL     1      26.036  23.527  23.498  0.00  0.00    +0.000 C 
ATOM     13  O   UNL     1      25.501  22.928  22.536  0.00  0.00    +0.000 OA
BRANCH  12  14
ATOM     14  C   UNL     1      27.495  23.508  23.672  0.00  0.00    +0.000 A 
ATOM     15  C   UNL     1      28.353  24.147  22.802  0.00  0.00    +0.000 A 
ATOM     16  C   UNL     1      29.717  24.099  23.007  0.00  0.00    +0.000 A 
ATOM     17  C   UNL     1      30.285  23.425  24.070  0.00  0.00    +0.000 A 
ATOM     18  N   UNL     1      31.703  23.407  24.236  0.00  0.00    +0.000 NA
ATOM     19  C   UNL     1      29.436  22.786  24.942  0.00  0.00    +0.000 A 
ATOM     20  C   UNL     1      28.074  22.836  24.734  0.00  0.00    +0.000 A 
ENDBRANCH  12  14
ENDBRANCH  11  12
ENDBRANCH   1  11
TORSDOF 4
ENDMDL
MODEL 6
REMARK VINA RESULT:      -5.6     16.877     18.872
REMARK  Name = 
REMARK  4 active torsions:
REMARK  status: ('A' for Active; 'I' for Inactive)
REMARK    1  A    between atoms: C_5  and  C_7
REMARK    2  A    between atoms: C_7  and  O_8
REMARK    3  A    between atoms: O_8  and  C_9
REMARK    4  A    between atoms: C_9  and  C_11
REMARK                            x       y       z     vdW  Elec       q    Type
REMARK                         _______ _______ _______ _____ _____    ______ ____
ROOT
ATOM      1  C   UNL     1      21.524  10.194  37.017  0.00  0.00    +0.000 C 
ENDROOT
BRANCH   1   6
ATOM      2  C   UNL     1      24.902  10.940  39.047  0.00  0.00    +0.000 C 
ATOM      3  C   UNL     1      25.092   9.621  38.086  0.00  0.00    +0.000 C 
ATOM      4  C   UNL     1      24.130   8.667  39.006  0.00  0.00    +0.000 C 
ATOM      5  C   UNL     1      22.795   9.148  38.796  0.00  0.00    +0.000 C 
ATOM      6  C   UNL     1      22.772  10.323  37.896  0.00  0.00    +0.000 C 
ATOM      7  C   UNL     1      22.683  11.643  38.553  0.00  0.00    +0.000 C 
ATOM      8  C   UNL     1      23.922  10.057  37.027  0.00  0.00    +0.000 C 
ATOM      9  C   UNL     1      24.449  11.246  36.299  0.00  0.00    +0.000 C 
ATOM     10  C   UNL     1      23.675   8.861  36.160  0.00  0.00    +0.000 C 
ENDBRANCH   1   6
BRANCH   1  11
ATOM     11  O   UNL     1      20.410  10.305  37.904  0.00  0.00    +0.000 OA
BRANCH  11  12
ATOM     12  C   UNL     1      19.201   9.709  37.696  0.00  0.00    +0.000 C 
ATOM     13  O   UNL     1      18.823   8.790  38.461  0.00  0.00    +0.000 OA
BRANCH  12  14
ATOM     14  C   UNL     1      18.352  10.148  36.580  0.00  0.00    +0.000 A 
ATOM     15  C   UNL     1      18.293   9.470  35.382  0.00  0.00    +0.000 A 
ATOM     16  C   UNL     1      17.481   9.923  34.362  0.00  0.00    +0.000 A 
ATOM     17  C   UNL     1      16.698  11.054  34.483  0.00  0.00    +0.000 A 
ATOM     18  N   UNL     1      15.875  11.480  33.398  0.00  0.00    +0.000 NA
ATOM     19  C   UNL     1      16.751  11.736  35.676  0.00  0.00    +0.000 A 
ATOM     20  C   UNL     1      17.564  11.281  36.692  0.00  0.00    +0.000 A 
ENDBRANCH  12  14
ENDBRANCH  11  12
ENDBRANCH   1  11
TORSDOF 4
ENDMDL
MODEL 7
REMARK VINA RESULT:      -5.6      1.589      2.208
REMARK  Name = 
REMARK  4 active torsions:
REMARK  status: ('A' for Active; 'I' for Inactive)
REMARK    1  A    between atoms: C_5  and  C_7
REMARK    2  A    between atoms: C_7  and  O_8
REMARK    3  A    between atoms: O_8  and  C_9
REMARK    4  A    between atoms: C_9  and  C_11
REMARK                            x       y       z     vdW  Elec       q    Type
REMARK                         _______ _______ _______ _____ _____    ______ ____
ROOT
ATOM      1  C   UNL     1      29.085  23.152  23.936  0.00  0.00    +0.000 C 
ENDROOT
BRANCH   1   6
ATOM      2  C   UNL     1      31.473  23.834  27.086  0.00  0.00    +0.000 C 
ATOM      3  C   UNL     1      31.707  24.980  25.933  0.00  0.00    +0.000 C 
ATOM      4  C   UNL     1      32.474  23.959  24.907  0.00  0.00    +0.000 C 
ATOM      5  C   UNL     1      31.459  23.072  24.416  0.00  0.00    +0.000 C 
ATOM      6  C   UNL     1      30.142  23.355  25.027  0.00  0.00    +0.000 C 
ATOM      7  C   UNL     1      29.748  22.486  26.154  0.00  0.00    +0.000 C 
ATOM      8  C   UNL     1      30.225  24.799  25.261  0.00  0.00    +0.000 C 
ATOM      9  C   UNL     1      29.255  25.333  26.259  0.00  0.00    +0.000 C 
ATOM     10  C   UNL     1      30.256  25.553  23.967  0.00  0.00    +0.000 C 
ENDBRANCH   1   6
BRANCH   1  11
ATOM     11  O   UNL     1      27.891  22.765  24.619  0.00  0.00    +0.000 OA
BRANCH  11  12
ATOM     12  C   UNL     1      26.648  23.236  24.316  0.00  0.00    +0.000 C 
ATOM     13  O   UNL     1      26.137  22.968  23.203  0.00  0.00    +0.000 OA
BRANCH  12  14
ATOM     14  C   UNL     1      25.917  24.051  25.297  0.00  0.00    +0.000 A 
ATOM     15  C   UNL     1      25.920  23.766  26.646  0.00  0.00    +0.000 A 
ATOM     16  C   UNL     1      25.216  24.561  27.529  0.00  0.00    +0.000 A 
ATOM     17  C   UNL     1      24.488  25.660  27.119  0.00  0.00    +0.000 A 
ATOM     18  N   UNL     1      23.778  26.449  28.073  0.00  0.00    +0.000 NA
ATOM     19  C   UNL     1      24.480  25.951  25.776  0.00  0.00    +0.000 A 
ATOM     20  C   UNL     1      25.184  25.155  24.897  0.00  0.00    +0.000 A 
ENDBRANCH  12  14
ENDBRANCH  11  12
ENDBRANCH   1  11
TORSDOF 4
ENDMDL
MODEL 8
REMARK VINA RESULT:      -5.6     17.439     19.098
REMARK  Name = 
REMARK  4 active torsions:
REMARK  status: ('A' for Active; 'I' for Inactive)
REMARK    1  A    between atoms: C_5  and  C_7
REMARK    2  A    between atoms: C_7  and  O_8
REMARK    3  A    between atoms: O_8  and  C_9
REMARK    4  A    between atoms: C_9  and  C_11
REMARK                            x       y       z     vdW  Elec       q    Type
REMARK                         _______ _______ _______ _____ _____    ______ ____
ROOT
ATOM      1  C   UNL     1      20.501   9.831  38.819  0.00  0.00    +0.000 C 
ENDROOT
BRANCH   1   6
ATOM      2  C   UNL     1      23.719  10.877  36.666  0.00  0.00    +0.000 C 
ATOM      3  C   UNL     1      23.932  11.281  38.244  0.00  0.00    +0.000 C 
ATOM      4  C   UNL     1      22.849  12.510  38.196  0.00  0.00    +0.000 C 
ATOM      5  C   UNL     1      21.562  11.886  38.094  0.00  0.00    +0.000 C 
ATOM      6  C   UNL     1      21.672  10.412  38.020  0.00  0.00    +0.000 C 
ATOM      7  C   UNL     1      21.587   9.821  36.669  0.00  0.00    +0.000 C 
ATOM      8  C   UNL     1      22.880  10.162  38.812  0.00  0.00    +0.000 C 
ATOM      9  C   UNL     1      23.524   8.839  38.578  0.00  0.00    +0.000 C 
ATOM     10  C   UNL     1      22.654  10.493  40.255  0.00  0.00    +0.000 C 
ENDBRANCH   1   6
BRANCH   1  11
ATOM     11  O   UNL     1      19.588   9.313  37.850  0.00  0.00    +0.000 OA
BRANCH  11  12
ATOM     12  C   UNL     1      18.286   9.703  37.738  0.00  0.00    +0.000 C 
ATOM     13  O   UNL     1      17.533   9.645  38.738  0.00  0.00    +0.000 OA
BRANCH  12  14
ATOM     14  C   UNL     1      17.778  10.190  36.448  0.00  0.00    +0.000 A 
ATOM     15  C   UNL     1      18.093   9.583  35.250  0.00  0.00    +0.000 A 
ATOM     16  C   UNL     1      17.592  10.078  34.063  0.00  0.00    +0.000 A 
ATOM     17  C   UNL     1      16.766  11.183  34.010  0.00  0.00    +0.000 A 
ATOM     18  N   UNL     1      16.274  11.655  32.756  0.00  0.00    +0.000 NA
ATOM     19  C   UNL     1      16.446  11.794  35.200  0.00  0.00    +0.000 A 
ATOM     20  C   UNL     1      16.949  11.297  36.384  0.00  0.00    +0.000 A 
ENDBRANCH  12  14
ENDBRANCH  11  12
ENDBRANCH   1  11
TORSDOF 4
ENDMDL
MODEL 9
REMARK VINA RESULT:      -5.5      1.739      2.732
REMARK  Name = 
REMARK  4 active torsions:
REMARK  status: ('A' for Active; 'I' for Inactive)
REMARK    1  A    between atoms: C_5  and  C_7
REMARK    2  A    between atoms: C_7  and  O_8
REMARK    3  A    between atoms: O_8  and  C_9
REMARK    4  A    between atoms: C_9  and  C_11
REMARK                            x       y       z     vdW  Elec       q    Type
REMARK                         _______ _______ _______ _____ _____    ______ ____
ROOT
ATOM      1  C   UNL     1      29.063  23.203  28.366  0.00  0.00    +0.000 C 
ENDROOT
BRANCH   1   6
ATOM      2  C   UNL     1      30.867  22.678  24.822  0.00  0.00    +0.000 C 
ATOM      3  C   UNL     1      29.875  23.986  24.769  0.00  0.00    +0.000 C 
ATOM      4  C   UNL     1      28.503  23.091  24.794  0.00  0.00    +0.000 C 
ATOM      5  C   UNL     1      28.416  22.554  26.122  0.00  0.00    +0.000 C 
ATOM      6  C   UNL     1      29.581  22.944  26.947  0.00  0.00    +0.000 C 
ATOM      7  C   UNL     1      30.655  21.938  27.073  0.00  0.00    +0.000 C 
ATOM      8  C   UNL     1      29.921  24.254  26.384  0.00  0.00    +0.000 C 
ATOM      9  C   UNL     1      31.303  24.728  26.681  0.00  0.00    +0.000 C 
ATOM     10  C   UNL     1      28.848  25.259  26.673  0.00  0.00    +0.000 C 
ENDBRANCH   1   6
BRANCH   1  11
ATOM     11  O   UNL     1      27.969  22.302  28.550  0.00  0.00    +0.000 OA
BRANCH  11  12
ATOM     12  C   UNL     1      26.884  22.564  29.332  0.00  0.00    +0.000 C 
ATOM     13  O   UNL     1      26.576  21.770  30.252  0.00  0.00    +0.000 OA
BRANCH  12  14
ATOM     14  C   UNL     1      26.085  23.774  29.093  0.00  0.00    +0.000 A 
ATOM     15  C   UNL     1      25.765  24.662  30.099  0.00  0.00    +0.000 A 
ATOM     16  C   UNL     1      25.011  25.785  29.825  0.00  0.00    +0.000 A 
ATOM     17  C   UNL     1      24.548  26.077  28.558  0.00  0.00    +0.000 A 
ATOM     18  N   UNL     1      23.772  27.253  28.327  0.00  0.00    +0.000 NA
ATOM     19  C   UNL     1      24.863  25.197  27.549  0.00  0.00    +0.000 A 
ATOM     20  C   UNL     1      25.616  24.076  27.826  0.00  0.00    +0.000 A 
ENDBRANCH  12  14
ENDBRANCH  11  12
ENDBRANCH   1  11
TORSDOF 4
ENDMDL
MODEL 10
REMARK VINA RESULT:      -5.5      2.116      3.281
REMARK  Name = 
REMARK  4 active torsions:
REMARK  status: ('A' for Active; 'I' for Inactive)
REMARK    1  A    between atoms: C_5  and  C_7
REMARK    2  A    between atoms: C_7  and  O_8
REMARK    3  A    between atoms: O_8  and  C_9
REMARK    4  A    between atoms: C_9  and  C_11
REMARK                            x       y       z     vdW  Elec       q    Type
REMARK                         _______ _______ _______ _____ _____    ______ ____
ROOT
ATOM      1  C   UNL     1      26.682  26.302  24.222  0.00  0.00    +0.000 C 
ENDROOT
BRANCH   1   6
ATOM      2  C   UNL     1      30.040  24.248  23.451  0.00  0.00    +0.000 C 
ATOM      3  C   UNL     1      29.318  24.708  22.050  0.00  0.00    +0.000 C 
ATOM      4  C   UNL     1      28.080  23.646  22.203  0.00  0.00    +0.000 C 
ATOM      5  C   UNL     1      27.270  24.149  23.276  0.00  0.00    +0.000 C 
ATOM      6  C   UNL     1      27.850  25.375  23.870  0.00  0.00    +0.000 C 
ATOM      7  C   UNL     1      28.623  25.190  25.115  0.00  0.00    +0.000 C 
ATOM      8  C   UNL     1      28.525  25.976  22.717  0.00  0.00    +0.000 C 
ATOM      9  C   UNL     1      29.572  26.982  23.054  0.00  0.00    +0.000 C 
ATOM     10  C   UNL     1      27.533  26.437  21.693  0.00  0.00    +0.000 C 
ENDBRANCH   1   6
BRANCH   1  11
ATOM     11  O   UNL     1      25.590  25.443  24.555  0.00  0.00    +0.000 OA
BRANCH  11  12
ATOM     12  C   UNL     1      24.740  25.653  25.600  0.00  0.00    +0.000 C 
ATOM     13  O   UNL     1      23.655  26.251  25.407  0.00  0.00    +0.000 OA
BRANCH  12  14
ATOM     14  C   UNL     1      25.100  25.175  26.942  0.00  0.00    +0.000 A 
ATOM     15  C   UNL     1      25.777  23.992  27.151  0.00  0.00    +0.000 A 
ATOM     16  C   UNL     1      26.092  23.585  28.431  0.00  0.00    +0.000 A 
ATOM     17  C   UNL     1      25.756  24.323  29.549  0.00  0.00    +0.000 A 
ATOM     18  N   UNL     1      26.105  23.856  30.852  0.00  0.00    +0.000 NA
ATOM     19  C   UNL     1      25.080  25.504  29.350  0.00  0.00    +0.000 A 
ATOM     20  C   UNL     1      24.767  25.907  28.069  0.00  0.00    +0.000 A 
ENDBRANCH  12  14
ENDBRANCH  11  12
ENDBRANCH   1  11
TORSDOF 4
ENDMDL
