MODEL 1
REMARK VINA RESULT:      -6.7      0.000      0.000
REMARK  Name = 
REMARK  3 active torsions:
REMARK  status: ('A' for Active; 'I' for Inactive)
REMARK    1  A    between atoms: C_10  and  N_11
REMARK    2  A    between atoms: C_12  and  C_14
REMARK    3  A    between atoms: C_18  and  N_19
REMARK                            x       y       z     vdW  Elec       q    Type
REMARK                         _______ _______ _______ _____ _____    ______ ____
ROOT
ATOM      1  N   UNL     1      17.400   8.791  39.911  0.00  0.00    +0.000 NA
ATOM      2  C   UNL     1      18.009   9.809  39.134  0.00  0.00    +0.000 C 
ATOM      3  O   UNL     1      18.935  10.501  39.608  0.00  0.00    +0.000 OA
ENDROOT
BRANCH   1  13
ATOM      4  C   UNL     1      16.611   9.922  43.029  0.00  0.00    +0.000 C 
ATOM      5  C   UNL     1      16.594   8.714  42.178  0.00  0.00    +0.000 C 
ATOM      6  C   UNL     1      15.459   8.432  41.351  0.00  0.00    +0.000 C 
ATOM      7  C   UNL     1      16.828   7.434  43.175  0.00  0.00    +0.000 C 
ATOM      8  C   UNL     1      18.436   7.653  43.431  0.00  0.00    +0.000 C 
ATOM      9  C   UNL     1      19.078   6.764  42.471  0.00  0.00    +0.000 C 
ATOM     10  C   UNL     1      18.134   7.018  41.295  0.00  0.00    +0.000 C 
ATOM     11  C   UNL     1      18.706   6.659  40.017  0.00  0.00    +0.000 C 
ATOM     12  C   UNL     1      16.977   6.471  41.854  0.00  0.00    +0.000 C 
ATOM     13  C   UNL     1      18.017   8.664  41.369  0.00  0.00    +0.000 C 
ENDBRANCH   1  13
BRANCH   2  14
ATOM     14  C   UNL     1      17.584  10.083  37.768  0.00  0.00    +0.000 A 
ATOM     15  C   UNL     1      18.286   9.484  36.744  0.00  0.00    +0.000 A 
ATOM     16  C   UNL     1      17.890   9.738  35.452  0.00  0.00    +0.000 A 
ATOM     17  C   UNL     1      16.817  10.570  35.200  0.00  0.00    +0.000 A 
ATOM     18  C   UNL     1      16.099  11.179  36.211  0.00  0.00    +0.000 A 
ATOM     19  C   UNL     1      16.520  10.906  37.496  0.00  0.00    +0.000 A 
BRANCH  18  20
ATOM     20  N   UNL     1      14.996  12.033  35.933  0.00  0.00    +0.000 N 
ATOM     21  O   UNL     1      14.899  12.533  34.798  0.00  0.00    +0.000 OA
ATOM     22  O   UNL     1      14.048  12.320  36.861  0.00  0.00    +0.000 OA
ENDBRANCH  18  20
ENDBRANCH   2  14
TORSDOF 3
ENDMDL
MODEL 2
REMARK VINA RESULT:      -6.6     21.765     23.730
REMARK  Name = 
REMARK  3 active torsions:
REMARK  status: ('A' for Active; 'I' for Inactive)
REMARK    1  A    between atoms: C_10  and  N_11
REMARK    2  A    between atoms: C_12  and  C_14
REMARK    3  A    between atoms: C_18  and  N_19
REMARK                            x       y       z     vdW  Elec       q    Type
REMARK                         _______ _______ _______ _____ _____    ______ ____
ROOT
ATOM      1  N   UNL     1      22.019  -8.460  24.841  0.00  0.00    +0.000 NA
ATOM      2  C   UNL     1      21.740  -9.106  26.072  0.00  0.00    +0.000 C 
ATOM      3  O   UNL     1      22.572  -9.884  26.583  0.00  0.00    +0.000 OA
ENDROOT
BRANCH   1  13
ATOM      4  C   UNL     1      23.340 -11.079  23.101  0.00  0.00    +0.000 C 
ATOM      5  C   UNL     1      22.880  -9.681  22.954  0.00  0.00    +0.000 C 
ATOM      6  C   UNL     1      21.509  -9.404  22.646  0.00  0.00    +0.000 C 
ATOM      7  C   UNL     1      23.811  -9.001  21.789  0.00  0.00    +0.000 C 
ATOM      8  C   UNL     1      25.177  -8.822  22.684  0.00  0.00    +0.000 C 
ATOM      9  C   UNL     1      25.119  -7.444  23.158  0.00  0.00    +0.000 C 
ATOM     10  C   UNL     1      23.621  -7.397  23.463  0.00  0.00    +0.000 C 
ATOM     11  C   UNL     1      23.259  -6.337  24.377  0.00  0.00    +0.000 C 
ATOM     12  C   UNL     1      23.153  -7.544  22.156  0.00  0.00    +0.000 C 
ATOM     13  C   UNL     1      23.440  -8.841  24.243  0.00  0.00    +0.000 C 
ENDBRANCH   1  13
BRANCH   2  14
ATOM     14  C   UNL     1      20.486  -8.886  26.781  0.00  0.00    +0.000 A 
ATOM     15  C   UNL     1      20.098  -9.829  27.709  0.00  0.00    +0.000 A 
ATOM     16  C   UNL     1      18.917  -9.628  28.382  0.00  0.00    +0.000 A 
ATOM     17  C   UNL     1      18.149  -8.509  28.127  0.00  0.00    +0.000 A 
ATOM     18  C   UNL     1      18.518  -7.551  27.203  0.00  0.00    +0.000 A 
ATOM     19  C   UNL     1      19.708  -7.780  26.544  0.00  0.00    +0.000 A 
BRANCH  18  20
ATOM     20  N   UNL     1      17.715  -6.405  26.953  0.00  0.00    +0.000 N 
ATOM     21  O   UNL     1      16.501  -6.456  27.222  0.00  0.00    +0.000 OA
ATOM     22  O   UNL     1      18.226  -5.258  26.434  0.00  0.00    +0.000 OA
ENDBRANCH  18  20
ENDBRANCH   2  14
TORSDOF 3
ENDMDL
MODEL 3
REMARK VINA RESULT:      -6.5     19.922     23.346
REMARK  Name = 
REMARK  3 active torsions:
REMARK  status: ('A' for Active; 'I' for Inactive)
REMARK    1  A    between atoms: C_10  and  N_11
REMARK    2  A    between atoms: C_12  and  C_14
REMARK    3  A    between atoms: C_18  and  N_19
REMARK                            x       y       z     vdW  Elec       q    Type
REMARK                         _______ _______ _______ _____ _____    ______ ____
ROOT
ATOM      1  N   UNL     1      28.268  24.114  25.588  0.00  0.00    +0.000 NA
ATOM      2  C   UNL     1      28.906  23.038  26.257  0.00  0.00    +0.000 C 
ATOM      3  O   UNL     1      29.514  22.160  25.608  0.00  0.00    +0.000 OA
ENDROOT
BRANCH   1  13
ATOM      4  C   UNL     1      26.243  23.405  22.938  0.00  0.00    +0.000 C 
ATOM      5  C   UNL     1      26.897  24.522  23.652  0.00  0.00    +0.000 C 
ATOM      6  C   UNL     1      26.231  25.166  24.745  0.00  0.00    +0.000 C 
ATOM      7  C   UNL     1      27.245  25.661  22.526  0.00  0.00    +0.000 C 
ATOM      8  C   UNL     1      28.525  24.896  21.836  0.00  0.00    +0.000 C 
ATOM      9  C   UNL     1      29.689  25.480  22.492  0.00  0.00    +0.000 C 
ATOM     10  C   UNL     1      29.113  25.547  23.907  0.00  0.00    +0.000 C 
ATOM     11  C   UNL     1      30.129  25.651  24.931  0.00  0.00    +0.000 C 
ATOM     12  C   UNL     1      28.103  26.478  23.660  0.00  0.00    +0.000 C 
ATOM     13  C   UNL     1      28.424  24.050  24.009  0.00  0.00    +0.000 C 
ENDBRANCH   1  13
BRANCH   2  14
ATOM     14  C   UNL     1      28.877  22.917  27.708  0.00  0.00    +0.000 A 
ATOM     15  C   UNL     1      30.084  22.871  28.373  0.00  0.00    +0.000 A 
ATOM     16  C   UNL     1      30.064  22.758  29.743  0.00  0.00    +0.000 A 
ATOM     17  C   UNL     1      28.864  22.694  30.422  0.00  0.00    +0.000 A 
ATOM     18  C   UNL     1      27.643  22.738  29.776  0.00  0.00    +0.000 A 
ATOM     19  C   UNL     1      27.695  22.852  28.402  0.00  0.00    +0.000 A 
BRANCH  18  20
ATOM     20  N   UNL     1      26.416  22.670  30.492  0.00  0.00    +0.000 N 
ATOM     21  O   UNL     1      25.836  23.731  30.784  0.00  0.00    +0.000 OA
ATOM     22  O   UNL     1      25.856  21.491  30.864  0.00  0.00    +0.000 OA
ENDBRANCH  18  20
ENDBRANCH   2  14
TORSDOF 3
ENDMDL
MODEL 4
REMARK VINA RESULT:      -6.4     19.755     23.257
REMARK  Name = 
REMARK  3 active torsions:
REMARK  status: ('A' for Active; 'I' for Inactive)
REMARK    1  A    between atoms: C_10  and  N_11
REMARK    2  A    between atoms: C_12  and  C_14
REMARK    3  A    between atoms: C_18  and  N_19
REMARK                            x       y       z     vdW  Elec       q    Type
REMARK                         _______ _______ _______ _____ _____    ______ ____
ROOT
ATOM      1  N   UNL     1      27.340  24.615  25.603  0.00  0.00    +0.000 NA
ATOM      2  C   UNL     1      26.557  25.482  26.408  0.00  0.00    +0.000 C 
ATOM      3  O   UNL     1      26.101  26.544  25.936  0.00  0.00    +0.000 OA
ENDROOT
BRANCH   1  13
ATOM      4  C   UNL     1      29.666  26.483  23.953  0.00  0.00    +0.000 C 
ATOM      5  C   UNL     1      29.179  25.099  24.127  0.00  0.00    +0.000 C 
ATOM      6  C   UNL     1      29.719  24.272  25.165  0.00  0.00    +0.000 C 
ATOM      7  C   UNL     1      29.411  24.335  22.696  0.00  0.00    +0.000 C 
ATOM      8  C   UNL     1      28.171  25.036  21.876  0.00  0.00    +0.000 C 
ATOM      9  C   UNL     1      27.080  24.074  21.982  0.00  0.00    +0.000 C 
ATOM     10  C   UNL     1      27.310  23.664  23.437  0.00  0.00    +0.000 C 
ATOM     11  C   UNL     1      26.149  23.058  24.049  0.00  0.00    +0.000 C 
ATOM     12  C   UNL     1      28.557  23.058  23.273  0.00  0.00    +0.000 C 
ATOM     13  C   UNL     1      27.542  25.149  24.122  0.00  0.00    +0.000 C 
ENDBRANCH   1  13
BRANCH   2  14
ATOM     14  C   UNL     1      26.257  25.168  27.798  0.00  0.00    +0.000 A 
ATOM     15  C   UNL     1      25.652  26.144  28.561  0.00  0.00    +0.000 A 
ATOM     16  C   UNL     1      25.366  25.854  29.874  0.00  0.00    +0.000 A 
ATOM     17  C   UNL     1      25.680  24.618  30.402  0.00  0.00    +0.000 A 
ATOM     18  C   UNL     1      26.286  23.625  29.656  0.00  0.00    +0.000 A 
ATOM     19  C   UNL     1      26.561  23.945  28.342  0.00  0.00    +0.000 A 
BRANCH  18  20
ATOM     20  N   UNL     1      26.603  22.357  30.216  0.00  0.00    +0.000 N 
ATOM     21  O   UNL     1      27.768  21.933  30.111  0.00  0.00    +0.000 OA
ATOM     22  O   UNL     1      25.681  21.596  30.860  0.00  0.00    +0.000 OA
ENDBRANCH  18  20
ENDBRANCH   2  14
TORSDOF 3
ENDMDL
MODEL 5
REMARK VINA RESULT:      -6.4     21.932     23.850
REMARK  Name = 
REMARK  3 active torsions:
REMARK  status: ('A' for Active; 'I' for Inactive)
REMARK    1  A    between atoms: C_10  and  N_11
REMARK    2  A    between atoms: C_12  and  C_14
REMARK    3  A    between atoms: C_18  and  N_19
REMARK                            x       y       z     vdW  Elec       q    Type
REMARK                         _______ _______ _______ _____ _____    ______ ____
ROOT
ATOM      1  N   UNL     1      30.381  23.952  25.930  0.00  0.00    +0.000 NA
ATOM      2  C   UNL     1      30.520  23.701  24.541  0.00  0.00    +0.000 C 
ATOM      3  O   UNL     1      31.583  23.227  24.086  0.00  0.00    +0.000 OA
ENDROOT
BRANCH   1  13
ATOM      4  C   UNL     1      33.084  25.616  27.175  0.00  0.00    +0.000 C 
ATOM      5  C   UNL     1      31.802  24.996  27.569  0.00  0.00    +0.000 C 
ATOM      6  C   UNL     1      30.595  25.767  27.551  0.00  0.00    +0.000 C 
ATOM      7  C   UNL     1      32.010  24.410  29.086  0.00  0.00    +0.000 C 
ATOM      8  C   UNL     1      32.917  23.100  28.687  0.00  0.00    +0.000 C 
ATOM      9  C   UNL     1      31.957  22.005  28.614  0.00  0.00    +0.000 C 
ATOM     10  C   UNL     1      30.824  22.774  27.933  0.00  0.00    +0.000 C 
ATOM     11  C   UNL     1      29.861  21.913  27.283  0.00  0.00    +0.000 C 
ATOM     12  C   UNL     1      30.550  23.671  28.968  0.00  0.00    +0.000 C 
ATOM     13  C   UNL     1      31.676  23.574  26.767  0.00  0.00    +0.000 C 
ENDBRANCH   1  13
BRANCH   2  14
ATOM     14  C   UNL     1      29.441  23.982  23.604  0.00  0.00    +0.000 A 
ATOM     15  C   UNL     1      29.726  24.779  22.516  0.00  0.00    +0.000 A 
ATOM     16  C   UNL     1      28.712  25.047  21.627  0.00  0.00    +0.000 A 
ATOM     17  C   UNL     1      27.450  24.526  21.828  0.00  0.00    +0.000 A 
ATOM     18  C   UNL     1      27.142  23.724  22.910  0.00  0.00    +0.000 A 
ATOM     19  C   UNL     1      28.179  23.473  23.785  0.00  0.00    +0.000 A 
BRANCH  18  20
ATOM     20  N   UNL     1      25.836  23.196  23.103  0.00  0.00    +0.000 N 
ATOM     21  O   UNL     1      25.234  22.721  22.123  0.00  0.00    +0.000 OA
ATOM     22  O   UNL     1      25.225  23.191  24.315  0.00  0.00    +0.000 OA
ENDBRANCH  18  20
ENDBRANCH   2  14
TORSDOF 3
ENDMDL
MODEL 6
REMARK VINA RESULT:      -6.3     23.296     24.876
REMARK  Name = 
REMARK  3 active torsions:
REMARK  status: ('A' for Active; 'I' for Inactive)
REMARK    1  A    between atoms: C_10  and  N_11
REMARK    2  A    between atoms: C_12  and  C_14
REMARK    3  A    between atoms: C_18  and  N_19
REMARK                            x       y       z     vdW  Elec       q    Type
REMARK                         _______ _______ _______ _____ _____    ______ ____
ROOT
ATOM      1  N   UNL     1      25.394   2.985  17.243  0.00  0.00    +0.000 NA
ATOM      2  C   UNL     1      25.572   4.003  18.214  0.00  0.00    +0.000 C 
ATOM      3  O   UNL     1      24.992   3.934  19.318  0.00  0.00    +0.000 OA
ENDROOT
BRANCH   1  13
ATOM      4  C   UNL     1      22.024   2.565  17.545  0.00  0.00    +0.000 C 
ATOM      5  C   UNL     1      23.185   2.191  16.711  0.00  0.00    +0.000 C 
ATOM      6  C   UNL     1      23.577   3.019  15.610  0.00  0.00    +0.000 C 
ATOM      7  C   UNL     1      22.883   0.687  16.133  0.00  0.00    +0.000 C 
ATOM      8  C   UNL     1      23.177  -0.140  17.523  0.00  0.00    +0.000 C 
ATOM      9  C   UNL     1      24.558  -0.587  17.391  0.00  0.00    +0.000 C 
ATOM     10  C   UNL     1      25.124   0.686  16.758  0.00  0.00    +0.000 C 
ATOM     11  C   UNL     1      26.559   0.799  16.892  0.00  0.00    +0.000 C 
ATOM     12  C   UNL     1      24.417   0.633  15.555  0.00  0.00    +0.000 C 
ATOM     13  C   UNL     1      24.420   1.826  17.722  0.00  0.00    +0.000 C 
ENDBRANCH   1  13
BRANCH   2  14
ATOM     14  C   UNL     1      26.430   5.154  17.964  0.00  0.00    +0.000 A 
ATOM     15  C   UNL     1      27.175   5.641  19.017  0.00  0.00    +0.000 A 
ATOM     16  C   UNL     1      27.986   6.726  18.788  0.00  0.00    +0.000 A 
ATOM     17  C   UNL     1      28.046   7.303  17.535  0.00  0.00    +0.000 A 
ATOM     18  C   UNL     1      27.309   6.831  16.466  0.00  0.00    +0.000 A 
ATOM     19  C   UNL     1      26.504   5.742  16.726  0.00  0.00    +0.000 A 
BRANCH  18  20
ATOM     20  N   UNL     1      27.382   7.438  15.182  0.00  0.00    +0.000 N 
ATOM     21  O   UNL     1      26.398   7.352  14.424  0.00  0.00    +0.000 OA
ATOM     22  O   UNL     1      28.484   8.107  14.755  0.00  0.00    +0.000 OA
ENDBRANCH  18  20
ENDBRANCH   2  14
TORSDOF 3
ENDMDL
MODEL 7
REMARK VINA RESULT:      -6.2     21.193     23.187
REMARK  Name = 
REMARK  3 active torsions:
REMARK  status: ('A' for Active; 'I' for Inactive)
REMARK    1  A    between atoms: C_10  and  N_11
REMARK    2  A    between atoms: C_12  and  C_14
REMARK    3  A    between atoms: C_18  and  N_19
REMARK                            x       y       z     vdW  Elec       q    Type
REMARK                         _______ _______ _______ _____ _____    ______ ____
ROOT
ATOM      1  N   UNL     1      25.671  25.483  24.846  0.00  0.00    +0.000 NA
ATOM      2  C   UNL     1      25.126  25.748  26.128  0.00  0.00    +0.000 C 
ATOM      3  O   UNL     1      25.840  25.664  27.150  0.00  0.00    +0.000 OA
ENDROOT
BRANCH   1  13
ATOM      4  C   UNL     1      27.489  22.735  25.722  0.00  0.00    +0.000 C 
ATOM      5  C   UNL     1      27.004  23.500  24.554  0.00  0.00    +0.000 C 
ATOM      6  C   UNL     1      25.728  23.200  23.978  0.00  0.00    +0.000 C 
ATOM      7  C   UNL     1      28.141  23.342  23.384  0.00  0.00    +0.000 C 
ATOM      8  C   UNL     1      29.254  24.365  24.028  0.00  0.00    +0.000 C 
ATOM      9  C   UNL     1      29.018  25.632  23.345  0.00  0.00    +0.000 C 
ATOM     10  C   UNL     1      27.489  25.575  23.336  0.00  0.00    +0.000 C 
ATOM     11  C   UNL     1      26.873  26.869  23.144  0.00  0.00    +0.000 C 
ATOM     12  C   UNL     1      27.342  24.468  22.497  0.00  0.00    +0.000 C 
ATOM     13  C   UNL     1      27.209  25.090  24.889  0.00  0.00    +0.000 C 
ENDBRANCH   1  13
BRANCH   2  14
ATOM     14  C   UNL     1      23.730  26.126  26.300  0.00  0.00    +0.000 A 
ATOM     15  C   UNL     1      23.042  26.569  25.190  0.00  0.00    +0.000 A 
ATOM     16  C   UNL     1      21.724  26.927  25.346  0.00  0.00    +0.000 A 
ATOM     17  C   UNL     1      21.117  26.840  26.583  0.00  0.00    +0.000 A 
ATOM     18  C   UNL     1      21.786  26.398  27.708  0.00  0.00    +0.000 A 
ATOM     19  C   UNL     1      23.107  26.046  27.521  0.00  0.00    +0.000 A 
BRANCH  18  20
ATOM     20  N   UNL     1      21.146  26.315  28.974  0.00  0.00    +0.000 N 
ATOM     21  O   UNL     1      21.786  26.641  29.990  0.00  0.00    +0.000 OA
ATOM     22  O   UNL     1      19.862  25.894  29.114  0.00  0.00    +0.000 OA
ENDBRANCH  18  20
ENDBRANCH   2  14
TORSDOF 3
ENDMDL
MODEL 8
REMARK VINA RESULT:      -6.2     23.527     26.479
REMARK  Name = 
REMARK  3 active torsions:
REMARK  status: ('A' for Active; 'I' for Inactive)
REMARK    1  A    between atoms: C_10  and  N_11
REMARK    2  A    between atoms: C_12  and  C_14
REMARK    3  A    between atoms: C_18  and  N_19
REMARK                            x       y       z     vdW  Elec       q    Type
REMARK                         _______ _______ _______ _____ _____    ______ ____
ROOT
ATOM      1  N   UNL     1      28.905  25.091  23.366  0.00  0.00    +0.000 NA
ATOM      2  C   UNL     1      29.107  25.013  21.965  0.00  0.00    +0.000 C 
ATOM      3  O   UNL     1      29.502  23.951  21.439  0.00  0.00    +0.000 OA
ENDROOT
BRANCH   1  13
ATOM      4  C   UNL     1      31.714  23.470  24.419  0.00  0.00    +0.000 C 
ATOM      5  C   UNL     1      30.568  24.270  24.901  0.00  0.00    +0.000 C 
ATOM      6  C   UNL     1      30.660  25.698  24.954  0.00  0.00    +0.000 C 
ATOM      7  C   UNL     1      30.215  23.726  26.406  0.00  0.00    +0.000 C 
ATOM      8  C   UNL     1      29.490  22.320  25.962  0.00  0.00    +0.000 C 
ATOM      9  C   UNL     1      28.066  22.633  25.961  0.00  0.00    +0.000 C 
ATOM     10  C   UNL     1      28.166  24.031  25.347  0.00  0.00    +0.000 C 
ATOM     11  C   UNL     1      26.923  24.489  24.769  0.00  0.00    +0.000 C 
ATOM     12  C   UNL     1      28.859  24.650  26.389  0.00  0.00    +0.000 C 
ATOM     13  C   UNL     1      29.232  23.733  24.121  0.00  0.00    +0.000 C 
ENDBRANCH   1  13
BRANCH   2  14
ATOM     14  C   UNL     1      28.862  26.156  21.094  0.00  0.00    +0.000 A 
ATOM     15  C   UNL     1      27.667  26.829  21.238  0.00  0.00    +0.000 A 
ATOM     16  C   UNL     1      27.430  27.908  20.420  0.00  0.00    +0.000 A 
ATOM     17  C   UNL     1      28.369  28.297  19.486  0.00  0.00    +0.000 A 
ATOM     18  C   UNL     1      29.573  27.638  19.325  0.00  0.00    +0.000 A 
ATOM     19  C   UNL     1      29.783  26.559  20.160  0.00  0.00    +0.000 A 
BRANCH  18  20
ATOM     20  N   UNL     1      30.529  28.052  18.358  0.00  0.00    +0.000 N 
ATOM     21  O   UNL     1      30.402  29.175  17.836  0.00  0.00    +0.000 OA
ATOM     22  O   UNL     1      31.573  27.268  17.985  0.00  0.00    +0.000 OA
ENDBRANCH  18  20
ENDBRANCH   2  14
TORSDOF 3
ENDMDL
MODEL 9
REMARK VINA RESULT:      -6.2     34.468     36.294
REMARK  Name = 
REMARK  3 active torsions:
REMARK  status: ('A' for Active; 'I' for Inactive)
REMARK    1  A    between atoms: C_10  and  N_11
REMARK    2  A    between atoms: C_12  and  C_14
REMARK    3  A    between atoms: C_18  and  N_19
REMARK                            x       y       z     vdW  Elec       q    Type
REMARK                         _______ _______ _______ _____ _____    ______ ____
ROOT
ATOM      1  N   UNL     1      31.255  20.432   8.271  0.00  0.00    +0.000 NA
ATOM      2  C   UNL     1      30.901  20.835   6.958  0.00  0.00    +0.000 C 
ATOM      3  O   UNL     1      31.125  22.002   6.571  0.00  0.00    +0.000 OA
ENDROOT
BRANCH   1  13
ATOM      4  C   UNL     1      30.166  22.970  10.272  0.00  0.00    +0.000 C 
ATOM      5  C   UNL     1      30.797  21.633  10.306  0.00  0.00    +0.000 C 
ATOM      6  C   UNL     1      29.984  20.455  10.357  0.00  0.00    +0.000 C 
ATOM      7  C   UNL     1      31.796  21.619  11.605  0.00  0.00    +0.000 C 
ATOM      8  C   UNL     1      32.992  22.548  10.967  0.00  0.00    +0.000 C 
ATOM      9  C   UNL     1      33.965  21.586  10.462  0.00  0.00    +0.000 C 
ATOM     10  C   UNL     1      32.971  20.572   9.892  0.00  0.00    +0.000 C 
ATOM     11  C   UNL     1      33.558  19.692   8.907  0.00  0.00    +0.000 C 
ATOM     12  C   UNL     1      32.387  20.175  11.097  0.00  0.00    +0.000 C 
ATOM     13  C   UNL     1      31.927  21.593   9.122  0.00  0.00    +0.000 C 
ENDBRANCH   1  13
BRANCH   2  14
ATOM     14  C   UNL     1      30.272  19.914   6.021  0.00  0.00    +0.000 A 
ATOM     15  C   UNL     1      29.362  20.431   5.123  0.00  0.00    +0.000 A 
ATOM     16  C   UNL     1      28.766  19.567   4.236  0.00  0.00    +0.000 A 
ATOM     17  C   UNL     1      29.078  18.223   4.252  0.00  0.00    +0.000 A 
ATOM     18  C   UNL     1      29.987  17.683   5.142  0.00  0.00    +0.000 A 
ATOM     19  C   UNL     1      30.569  18.574   6.020  0.00  0.00    +0.000 A 
BRANCH  18  20
ATOM     20  N   UNL     1      30.297  16.295   5.144  0.00  0.00    +0.000 N 
ATOM     21  O   UNL     1      29.376  15.478   4.967  0.00  0.00    +0.000 OA
ATOM     22  O   UNL     1      31.559  15.832   5.333  0.00  0.00    +0.000 OA
ENDBRANCH  18  20
ENDBRANCH   2  14
TORSDOF 3
ENDMDL
MODEL 10
REMARK VINA RESULT:      -6.1     21.861     23.718
REMARK  Name = 
REMARK  3 active torsions:
REMARK  status: ('A' for Active; 'I' for Inactive)
REMARK    1  A    between atoms: C_10  and  N_11
REMARK    2  A    between atoms: C_12  and  C_14
REMARK    3  A    between atoms: C_18  and  N_19
REMARK                            x       y       z     vdW  Elec       q    Type
REMARK                         _______ _______ _______ _____ _____    ______ ____
ROOT
ATOM      1  N   UNL     1      22.144  -7.834  24.437  0.00  0.00    +0.000 NA
ATOM      2  C   UNL     1      21.381  -8.151  25.590  0.00  0.00    +0.000 C 
ATOM      3  O   UNL     1      21.767  -9.036  26.383  0.00  0.00    +0.000 OA
ENDROOT
BRANCH   1  13
ATOM      4  C   UNL     1      22.915 -11.011  23.468  0.00  0.00    +0.000 C 
ATOM      5  C   UNL     1      22.969  -9.601  23.026  0.00  0.00    +0.000 C 
ATOM      6  C   UNL     1      21.861  -9.025  22.323  0.00  0.00    +0.000 C 
ATOM      7  C   UNL     1      24.302  -9.455  22.084  0.00  0.00    +0.000 C 
ATOM      8  C   UNL     1      25.419  -9.481  23.288  0.00  0.00    +0.000 C 
ATOM      9  C   UNL     1      25.699  -8.074  23.552  0.00  0.00    +0.000 C 
ATOM     10  C   UNL     1      24.265  -7.556  23.427  0.00  0.00    +0.000 C 
ATOM     11  C   UNL     1      24.065  -6.275  24.068  0.00  0.00    +0.000 C 
ATOM     12  C   UNL     1      24.077  -7.829  22.071  0.00  0.00    +0.000 C 
ATOM     13  C   UNL     1      23.465  -8.705  24.303  0.00  0.00    +0.000 C 
ENDBRANCH   1  13
BRANCH   2  14
ATOM     14  C   UNL     1      20.134  -7.461  25.892  0.00  0.00    +0.000 A 
ATOM     15  C   UNL     1      20.170  -6.088  26.009  0.00  0.00    +0.000 A 
ATOM     16  C   UNL     1      18.996  -5.432  26.293  0.00  0.00    +0.000 A 
ATOM     17  C   UNL     1      17.821  -6.138  26.454  0.00  0.00    +0.000 A 
ATOM     18  C   UNL     1      17.761  -7.514  26.341  0.00  0.00    +0.000 A 
ATOM     19  C   UNL     1      18.955  -8.145  26.055  0.00  0.00    +0.000 A 
BRANCH  18  20
ATOM     20  N   UNL     1      16.542  -8.226  26.510  0.00  0.00    +0.000 N 
ATOM     21  O   UNL     1      15.501  -7.753  26.019  0.00  0.00    +0.000 OA
ATOM     22  O   UNL     1      16.475  -9.402  27.184  0.00  0.00    +0.000 OA
ENDBRANCH  18  20
ENDBRANCH   2  14
TORSDOF 3
ENDMDL
