MODEL 1
REMARK VINA RESULT:      -7.2      0.000      0.000
REMARK  Name = 
REMARK  7 active torsions:
REMARK  status: ('A' for Active; 'I' for Inactive)
REMARK    1  A    between atoms: O_2  and  C_3
REMARK    2  A    between atoms: C_8  and  N_9
REMARK    3  A    between atoms: C_12  and  N_13
REMARK    4  A    between atoms: N_13  and  C_14
REMARK    5  A    between atoms: C_17  and  C_18
REMARK    6  A    between atoms: C_23  and  S_24
REMARK    7  A    between atoms: S_24  and  C_25
REMARK                            x       y       z     vdW  Elec       q    Type
REMARK                         _______ _______ _______ _____ _____    ______ ____
ROOT
ATOM      1  N   UNL     1      38.231   4.043  16.065  0.00  0.00    +0.000 N 
ATOM      2  C   UNL     1      37.143   3.126  16.103  0.00  0.00    +0.000 C 
ATOM      3  O   UNL     1      36.222   3.174  16.955  0.00  0.00    +0.000 OA
ATOM      4  C   UNL     1      37.294   2.177  15.026  0.00  0.00    +0.000 C 
ATOM      5  C   UNL     1      38.396   2.476  14.361  0.00  0.00    +0.000 C 
ATOM      6  C   UNL     1      39.030   3.634  14.961  0.00  0.00    +0.000 C 
ATOM      7  O   UNL     1      40.084   4.194  14.598  0.00  0.00    +0.000 OA
ENDROOT
BRANCH   1  13
ATOM      8  C   UNL     1      38.077   6.407  16.627  0.00  0.00    +0.000 A 
ATOM      9  C   UNL     1      38.259   7.481  17.468  0.00  0.00    +0.000 A 
ATOM     10  C   UNL     1      38.825   7.270  18.705  0.00  0.00    +0.000 A 
ATOM     11  C   UNL     1      39.189   6.001  19.062  0.00  0.00    +0.000 A 
ATOM     12  C   UNL     1      38.999   4.927  18.201  0.00  0.00    +0.000 A 
ATOM     13  C   UNL     1      38.435   5.122  16.962  0.00  0.00    +0.000 A 
BRANCH   8  15
ATOM     14  C   UNL     1      38.196   7.385  14.394  0.00  0.00    +0.000 C 
ATOM     15  O   UNL     1      37.505   6.587  15.360  0.00  0.00    +0.000 OA
ENDBRANCH   8  15
ENDBRANCH   1  13
BRANCH   4  16
ATOM     16  N   UNL     1      36.362   1.124  14.790  0.00  0.00    +0.000 NA
BRANCH  16  17
ATOM     17  C   UNL     1      36.563  -0.169  15.366  0.00  0.00    +0.000 A 
ATOM     18  C   UNL     1      36.966  -0.295  16.676  0.00  0.00    +0.000 A 
ATOM     19  C   UNL     1      37.144  -1.582  17.177  0.00  0.00    +0.000 A 
ATOM     20  C   UNL     1      36.922  -2.674  16.387  0.00  0.00    +0.000 A 
ATOM     21  C   UNL     1      36.517  -2.533  15.073  0.00  0.00    +0.000 A 
ATOM     22  C   UNL     1      36.343  -1.280  14.581  0.00  0.00    +0.000 A 
BRANCH  20  23
ATOM     23  C   UNL     1      37.105  -4.052  16.897  0.00  0.00    +0.000 C 
ATOM     24  C   UNL     1      36.416  -4.981  15.904  0.00  0.00    +0.000 C 
ATOM     25  C   UNL     1      38.597  -4.331  16.962  0.00  0.00    +0.000 C 
ENDBRANCH  20  23
ENDBRANCH  16  17
ENDBRANCH   4  16
BRANCH   5  26
ATOM     26  S   UNL     1      38.940   1.531  12.945  0.00  0.00    +0.000 S 
BRANCH  26  27
ATOM     27  C   UNL     1      39.475  -0.101  13.421  0.00  0.00    +0.000 A 
ATOM     28  C   UNL     1      40.085  -0.396  14.621  0.00  0.00    +0.000 A 
ATOM     29  C   UNL     1      40.478  -1.706  14.920  0.00  0.00    +0.000 A 
ATOM     30  C   UNL     1      40.267  -2.732  14.031  0.00  0.00    +0.000 A 
ATOM     31  C   UNL     1      39.656  -2.433  12.833  0.00  0.00    +0.000 A 
ATOM     32  C   UNL     1      39.267  -1.138  12.536  0.00  0.00    +0.000 A 
ENDBRANCH  26  27
ENDBRANCH   5  26
TORSDOF 7
ENDMDL
MODEL 2
REMARK VINA RESULT:      -7.1      2.590      8.039
REMARK  Name = 
REMARK  7 active torsions:
REMARK  status: ('A' for Active; 'I' for Inactive)
REMARK    1  A    between atoms: O_2  and  C_3
REMARK    2  A    between atoms: C_8  and  N_9
REMARK    3  A    between atoms: C_12  and  N_13
REMARK    4  A    between atoms: N_13  and  C_14
REMARK    5  A    between atoms: C_17  and  C_18
REMARK    6  A    between atoms: C_23  and  S_24
REMARK    7  A    between atoms: S_24  and  C_25
REMARK                            x       y       z     vdW  Elec       q    Type
REMARK                         _______ _______ _______ _____ _____    ______ ____
ROOT
ATOM      1  N   UNL     1      37.591   1.108  14.556  0.00  0.00    +0.000 N 
ATOM      2  C   UNL     1      38.652   2.044  14.714  0.00  0.00    +0.000 C 
ATOM      3  O   UNL     1      39.854   1.715  14.865  0.00  0.00    +0.000 OA
ATOM      4  C   UNL     1      38.107   3.380  14.668  0.00  0.00    +0.000 C 
ATOM      5  C   UNL     1      36.799   3.289  14.495  0.00  0.00    +0.000 C 
ATOM      6  C   UNL     1      36.413   1.894  14.417  0.00  0.00    +0.000 C 
ATOM      7  O   UNL     1      35.264   1.433  14.257  0.00  0.00    +0.000 OA
ENDROOT
BRANCH   1  13
ATOM      8  C   UNL     1      37.540  -1.047  15.688  0.00  0.00    +0.000 A 
ATOM      9  C   UNL     1      37.664  -2.417  15.720  0.00  0.00    +0.000 A 
ATOM     10  C   UNL     1      37.991  -3.084  14.561  0.00  0.00    +0.000 A 
ATOM     11  C   UNL     1      38.182  -2.366  13.412  0.00  0.00    +0.000 A 
ATOM     12  C   UNL     1      38.054  -0.983  13.396  0.00  0.00    +0.000 A 
ATOM     13  C   UNL     1      37.728  -0.303  14.546  0.00  0.00    +0.000 A 
BRANCH   8  15
ATOM     14  C   UNL     1      36.885  -1.065  18.038  0.00  0.00    +0.000 C 
ATOM     15  O   UNL     1      37.209  -0.337  16.850  0.00  0.00    +0.000 OA
ENDBRANCH   8  15
ENDBRANCH   1  13
BRANCH   4  16
ATOM     16  N   UNL     1      38.914   4.548  14.796  0.00  0.00    +0.000 NA
BRANCH  16  17
ATOM     17  C   UNL     1      39.317   5.017  16.085  0.00  0.00    +0.000 A 
ATOM     18  C   UNL     1      40.411   5.842  16.217  0.00  0.00    +0.000 A 
ATOM     19  C   UNL     1      40.751   6.264  17.500  0.00  0.00    +0.000 A 
ATOM     20  C   UNL     1      40.017   5.868  18.582  0.00  0.00    +0.000 A 
ATOM     21  C   UNL     1      38.921   5.039  18.435  0.00  0.00    +0.000 A 
ATOM     22  C   UNL     1      38.586   4.625  17.186  0.00  0.00    +0.000 A 
BRANCH  20  23
ATOM     23  C   UNL     1      40.360   6.303  19.954  0.00  0.00    +0.000 C 
ATOM     24  C   UNL     1      41.810   6.774  19.914  0.00  0.00    +0.000 C 
ATOM     25  C   UNL     1      39.426   7.441  20.330  0.00  0.00    +0.000 C 
ENDBRANCH  20  23
ENDBRANCH  16  17
ENDBRANCH   4  16
BRANCH   5  26
ATOM     26  S   UNL     1      35.750   4.732  14.385  0.00  0.00    +0.000 S 
BRANCH  26  27
ATOM     27  C   UNL     1      35.740   5.402  12.734  0.00  0.00    +0.000 A 
ATOM     28  C   UNL     1      36.541   4.947  11.708  0.00  0.00    +0.000 A 
ATOM     29  C   UNL     1      36.473   5.528  10.436  0.00  0.00    +0.000 A 
ATOM     30  C   UNL     1      35.611   6.565  10.174  0.00  0.00    +0.000 A 
ATOM     31  C   UNL     1      34.812   7.017  11.201  0.00  0.00    +0.000 A 
ATOM     32  C   UNL     1      34.878   6.442  12.459  0.00  0.00    +0.000 A 
ENDBRANCH  26  27
ENDBRANCH   5  26
TORSDOF 7
ENDMDL
MODEL 3
REMARK VINA RESULT:      -7.0      2.703      8.038
REMARK  Name = 
REMARK  7 active torsions:
REMARK  status: ('A' for Active; 'I' for Inactive)
REMARK    1  A    between atoms: O_2  and  C_3
REMARK    2  A    between atoms: C_8  and  N_9
REMARK    3  A    between atoms: C_12  and  N_13
REMARK    4  A    between atoms: N_13  and  C_14
REMARK    5  A    between atoms: C_17  and  C_18
REMARK    6  A    between atoms: C_23  and  S_24
REMARK    7  A    between atoms: S_24  and  C_25
REMARK                            x       y       z     vdW  Elec       q    Type
REMARK                         _______ _______ _______ _____ _____    ______ ____
ROOT
ATOM      1  N   UNL     1      36.998   1.810  15.355  0.00  0.00    +0.000 N 
ATOM      2  C   UNL     1      37.123   2.874  16.292  0.00  0.00    +0.000 C 
ATOM      3  O   UNL     1      37.051   2.718  17.536  0.00  0.00    +0.000 OA
ATOM      4  C   UNL     1      37.338   4.107  15.574  0.00  0.00    +0.000 C 
ATOM      5  C   UNL     1      37.347   3.837  14.279  0.00  0.00    +0.000 C 
ATOM      6  C   UNL     1      37.139   2.417  14.076  0.00  0.00    +0.000 C 
ATOM      7  O   UNL     1      37.088   1.807  12.988  0.00  0.00    +0.000 OA
ENDROOT
BRANCH   1  13
ATOM      8  C   UNL     1      37.816  -0.456  15.711  0.00  0.00    +0.000 A 
ATOM      9  C   UNL     1      37.644  -1.787  16.017  0.00  0.00    +0.000 A 
ATOM     10  C   UNL     1      36.378  -2.246  16.304  0.00  0.00    +0.000 A 
ATOM     11  C   UNL     1      35.330  -1.368  16.277  0.00  0.00    +0.000 A 
ATOM     12  C   UNL     1      35.519  -0.027  15.966  0.00  0.00    +0.000 A 
ATOM     13  C   UNL     1      36.778   0.446  15.676  0.00  0.00    +0.000 A 
BRANCH   8  15
ATOM     14  C   UNL     1      39.924  -0.679  14.503  0.00  0.00    +0.000 C 
ATOM     15  O   UNL     1      39.090   0.045  15.413  0.00  0.00    +0.000 OA
ENDBRANCH   8  15
ENDBRANCH   1  13
BRANCH   4  16
ATOM     16  N   UNL     1      37.505   5.362  16.228  0.00  0.00    +0.000 NA
BRANCH  16  17
ATOM     17  C   UNL     1      38.705   5.655  16.949  0.00  0.00    +0.000 A 
ATOM     18  C   UNL     1      39.883   5.890  16.277  0.00  0.00    +0.000 A 
ATOM     19  C   UNL     1      41.016   6.169  17.038  0.00  0.00    +0.000 A 
ATOM     20  C   UNL     1      40.949   6.205  18.402  0.00  0.00    +0.000 A 
ATOM     21  C   UNL     1      39.759   5.967  19.063  0.00  0.00    +0.000 A 
ATOM     22  C   UNL     1      38.652   5.695  18.325  0.00  0.00    +0.000 A 
BRANCH  20  23
ATOM     23  C   UNL     1      42.139   6.499  19.230  0.00  0.00    +0.000 C 
ATOM     24  C   UNL     1      43.245   6.927  18.271  0.00  0.00    +0.000 C 
ATOM     25  C   UNL     1      41.778   7.624  20.185  0.00  0.00    +0.000 C 
ENDBRANCH  20  23
ENDBRANCH  16  17
ENDBRANCH   4  16
BRANCH   5  26
ATOM     26  S   UNL     1      37.588   5.105  13.044  0.00  0.00    +0.000 S 
BRANCH  26  27
ATOM     27  C   UNL     1      36.051   5.905  12.628  0.00  0.00    +0.000 A 
ATOM     28  C   UNL     1      35.055   6.191  13.537  0.00  0.00    +0.000 A 
ATOM     29  C   UNL     1      33.874   6.822  13.130  0.00  0.00    +0.000 A 
ATOM     30  C   UNL     1      33.673   7.175  11.818  0.00  0.00    +0.000 A 
ATOM     31  C   UNL     1      34.671   6.889  10.912  0.00  0.00    +0.000 A 
ATOM     32  C   UNL     1      35.839   6.265  11.314  0.00  0.00    +0.000 A 
ENDBRANCH  26  27
ENDBRANCH   5  26
TORSDOF 7
ENDMDL
MODEL 4
REMARK VINA RESULT:      -6.9      1.443      3.539
REMARK  Name = 
REMARK  7 active torsions:
REMARK  status: ('A' for Active; 'I' for Inactive)
REMARK    1  A    between atoms: O_2  and  C_3
REMARK    2  A    between atoms: C_8  and  N_9
REMARK    3  A    between atoms: C_12  and  N_13
REMARK    4  A    between atoms: N_13  and  C_14
REMARK    5  A    between atoms: C_17  and  C_18
REMARK    6  A    between atoms: C_23  and  S_24
REMARK    7  A    between atoms: S_24  and  C_25
REMARK                            x       y       z     vdW  Elec       q    Type
REMARK                         _______ _______ _______ _____ _____    ______ ____
ROOT
ATOM      1  N   UNL     1      38.271   4.189  16.115  0.00  0.00    +0.000 N 
ATOM      2  C   UNL     1      39.076   3.926  14.972  0.00  0.00    +0.000 C 
ATOM      3  O   UNL     1      40.095   4.594  14.670  0.00  0.00    +0.000 OA
ATOM      4  C   UNL     1      38.524   2.797  14.262  0.00  0.00    +0.000 C 
ATOM      5  C   UNL     1      37.450   2.382  14.911  0.00  0.00    +0.000 C 
ATOM      6  C   UNL     1      37.236   3.213  16.081  0.00  0.00    +0.000 C 
ATOM      7  O   UNL     1      36.322   3.114  16.924  0.00  0.00    +0.000 OA
ENDROOT
BRANCH   1  13
ATOM      8  C   UNL     1      38.102   6.517  16.811  0.00  0.00    +0.000 A 
ATOM      9  C   UNL     1      38.298   7.546  17.704  0.00  0.00    +0.000 A 
ATOM     10  C   UNL     1      38.911   7.277  18.906  0.00  0.00    +0.000 A 
ATOM     11  C   UNL     1      39.307   5.997  19.180  0.00  0.00    +0.000 A 
ATOM     12  C   UNL     1      39.102   4.968  18.268  0.00  0.00    +0.000 A 
ATOM     13  C   UNL     1      38.491   5.222  17.062  0.00  0.00    +0.000 A 
BRANCH   8  15
ATOM     14  C   UNL     1      38.105   7.650  14.651  0.00  0.00    +0.000 C 
ATOM     15  O   UNL     1      37.482   6.756  15.578  0.00  0.00    +0.000 OA
ENDBRANCH   8  15
ENDBRANCH   1  13
BRANCH   4  16
ATOM     16  N   UNL     1      39.103   2.279  13.067  0.00  0.00    +0.000 NA
BRANCH  16  17
ATOM     17  C   UNL     1      39.819   1.041  13.082  0.00  0.00    +0.000 A 
ATOM     18  C   UNL     1      39.718   0.163  12.026  0.00  0.00    +0.000 A 
ATOM     19  C   UNL     1      40.441  -1.025  12.103  0.00  0.00    +0.000 A 
ATOM     20  C   UNL     1      41.220  -1.299  13.191  0.00  0.00    +0.000 A 
ATOM     21  C   UNL     1      41.312  -0.409  14.243  0.00  0.00    +0.000 A 
ATOM     22  C   UNL     1      40.609   0.751  14.174  0.00  0.00    +0.000 A 
BRANCH  20  23
ATOM     23  C   UNL     1      41.995  -2.555  13.294  0.00  0.00    +0.000 C 
ATOM     24  C   UNL     1      41.417  -3.513  12.257  0.00  0.00    +0.000 C 
ATOM     25  C   UNL     1      43.449  -2.233  12.989  0.00  0.00    +0.000 C 
ENDBRANCH  20  23
ENDBRANCH  16  17
ENDBRANCH   4  16
BRANCH   5  26
ATOM     26  S   UNL     1      36.473   0.995  14.350  0.00  0.00    +0.000 S 
BRANCH  26  27
ATOM     27  C   UNL     1      37.258  -0.554  14.748  0.00  0.00    +0.000 A 
ATOM     28  C   UNL     1      37.932  -0.801  15.925  0.00  0.00    +0.000 A 
ATOM     29  C   UNL     1      38.523  -2.047  16.162  0.00  0.00    +0.000 A 
ATOM     30  C   UNL     1      38.450  -3.057  15.234  0.00  0.00    +0.000 A 
ATOM     31  C   UNL     1      37.775  -2.807  14.060  0.00  0.00    +0.000 A 
ATOM     32  C   UNL     1      37.189  -1.575  13.824  0.00  0.00    +0.000 A 
ENDBRANCH  26  27
ENDBRANCH   5  26
TORSDOF 7
ENDMDL
MODEL 5
REMARK VINA RESULT:      -6.8      2.683      7.524
REMARK  Name = 
REMARK  7 active torsions:
REMARK  status: ('A' for Active; 'I' for Inactive)
REMARK    1  A    between atoms: O_2  and  C_3
REMARK    2  A    between atoms: C_8  and  N_9
REMARK    3  A    between atoms: C_12  and  N_13
REMARK    4  A    between atoms: N_13  and  C_14
REMARK    5  A    between atoms: C_17  and  C_18
REMARK    6  A    between atoms: C_23  and  S_24
REMARK    7  A    between atoms: S_24  and  C_25
REMARK                            x       y       z     vdW  Elec       q    Type
REMARK                         _______ _______ _______ _____ _____    ______ ____
ROOT
ATOM      1  N   UNL     1      39.417   0.770  13.720  0.00  0.00    +0.000 N 
ATOM      2  C   UNL     1      39.565   2.171  13.923  0.00  0.00    +0.000 C 
ATOM      3  O   UNL     1      40.595   2.815  13.608  0.00  0.00    +0.000 OA
ATOM      4  C   UNL     1      38.360   2.685  14.529  0.00  0.00    +0.000 C 
ATOM      5  C   UNL     1      37.517   1.680  14.696  0.00  0.00    +0.000 C 
ATOM      6  C   UNL     1      38.119   0.453  14.210  0.00  0.00    +0.000 C 
ATOM      7  O   UNL     1      37.616  -0.689  14.207  0.00  0.00    +0.000 OA
ENDROOT
BRANCH   1  13
ATOM      8  C   UNL     1      40.370  -0.396  11.806  0.00  0.00    +0.000 A 
ATOM      9  C   UNL     1      41.294  -1.225  11.213  0.00  0.00    +0.000 A 
ATOM     10  C   UNL     1      42.287  -1.779  11.988  0.00  0.00    +0.000 A 
ATOM     11  C   UNL     1      42.328  -1.489  13.324  0.00  0.00    +0.000 A 
ATOM     12  C   UNL     1      41.388  -0.649  13.909  0.00  0.00    +0.000 A 
ATOM     13  C   UNL     1      40.389  -0.089  13.147  0.00  0.00    +0.000 A 
BRANCH   8  15
ATOM     14  C   UNL     1      39.630   0.613   9.712  0.00  0.00    +0.000 C 
ATOM     15  O   UNL     1      39.345   0.184  11.047  0.00  0.00    +0.000 OA
ENDBRANCH   8  15
ENDBRANCH   1  13
BRANCH   4  16
ATOM     16  N   UNL     1      38.188   4.061  14.860  0.00  0.00    +0.000 NA
BRANCH  16  17
ATOM     17  C   UNL     1      38.694   4.582  16.092  0.00  0.00    +0.000 A 
ATOM     18  C   UNL     1      38.108   4.238  17.289  0.00  0.00    +0.000 A 
ATOM     19  C   UNL     1      38.648   4.780  18.452  0.00  0.00    +0.000 A 
ATOM     20  C   UNL     1      39.722   5.622  18.396  0.00  0.00    +0.000 A 
ATOM     21  C   UNL     1      40.301   5.959  17.187  0.00  0.00    +0.000 A 
ATOM     22  C   UNL     1      39.777   5.433  16.050  0.00  0.00    +0.000 A 
BRANCH  20  23
ATOM     23  C   UNL     1      40.313   6.211  19.619  0.00  0.00    +0.000 C 
ATOM     24  C   UNL     1      41.650   6.819  19.210  0.00  0.00    +0.000 C 
ATOM     25  C   UNL     1      39.360   7.279  20.129  0.00  0.00    +0.000 C 
ENDBRANCH  20  23
ENDBRANCH  16  17
ENDBRANCH   4  16
BRANCH   5  26
ATOM     26  S   UNL     1      35.900   1.902  15.422  0.00  0.00    +0.000 S 
BRANCH  26  27
ATOM     27  C   UNL     1      35.677   0.851  16.843  0.00  0.00    +0.000 A 
ATOM     28  C   UNL     1      36.182   1.124  18.096  0.00  0.00    +0.000 A 
ATOM     29  C   UNL     1      35.963   0.245  19.163  0.00  0.00    +0.000 A 
ATOM     30  C   UNL     1      35.241  -0.911  18.994  0.00  0.00    +0.000 A 
ATOM     31  C   UNL     1      34.737  -1.180  17.741  0.00  0.00    +0.000 A 
ATOM     32  C   UNL     1      34.953  -0.312  16.685  0.00  0.00    +0.000 A 
ENDBRANCH  26  27
ENDBRANCH   5  26
TORSDOF 7
ENDMDL
MODEL 6
REMARK VINA RESULT:      -6.7      3.271      8.257
REMARK  Name = 
REMARK  7 active torsions:
REMARK  status: ('A' for Active; 'I' for Inactive)
REMARK    1  A    between atoms: O_2  and  C_3
REMARK    2  A    between atoms: C_8  and  N_9
REMARK    3  A    between atoms: C_12  and  N_13
REMARK    4  A    between atoms: N_13  and  C_14
REMARK    5  A    between atoms: C_17  and  C_18
REMARK    6  A    between atoms: C_23  and  S_24
REMARK    7  A    between atoms: S_24  and  C_25
REMARK                            x       y       z     vdW  Elec       q    Type
REMARK                         _______ _______ _______ _____ _____    ______ ____
ROOT
ATOM      1  N   UNL     1      36.839   2.161  15.059  0.00  0.00    +0.000 N 
ATOM      2  C   UNL     1      35.772   3.064  14.795  0.00  0.00    +0.000 C 
ATOM      3  O   UNL     1      34.582   2.703  14.620  0.00  0.00    +0.000 OA
ATOM      4  C   UNL     1      36.293   4.410  14.769  0.00  0.00    +0.000 C 
ATOM      5  C   UNL     1      37.594   4.355  14.999  0.00  0.00    +0.000 C 
ATOM      6  C   UNL     1      37.999   2.976  15.189  0.00  0.00    +0.000 C 
ATOM      7  O   UNL     1      39.147   2.549  15.425  0.00  0.00    +0.000 OA
ENDROOT
BRANCH   1  13
ATOM      8  C   UNL     1      36.498   0.139  16.372  0.00  0.00    +0.000 A 
ATOM      9  C   UNL     1      36.380  -1.226  16.513  0.00  0.00    +0.000 A 
ATOM     10  C   UNL     1      36.493  -2.023  15.396  0.00  0.00    +0.000 A 
ATOM     11  C   UNL     1      36.717  -1.437  14.180  0.00  0.00    +0.000 A 
ATOM     12  C   UNL     1      36.833  -0.058  14.054  0.00  0.00    +0.000 A 
ATOM     13  C   UNL     1      36.724   0.751  15.161  0.00  0.00    +0.000 A 
BRANCH   8  15
ATOM     14  C   UNL     1      36.201   0.395  18.780  0.00  0.00    +0.000 C 
ATOM     15  O   UNL     1      36.390   0.979  17.488  0.00  0.00    +0.000 OA
ENDBRANCH   8  15
ENDBRANCH   1  13
BRANCH   4  16
ATOM     16  N   UNL     1      35.474   5.551  14.529  0.00  0.00    +0.000 NA
BRANCH  16  17
ATOM     17  C   UNL     1      35.204   5.986  13.194  0.00  0.00    +0.000 A 
ATOM     18  C   UNL     1      36.053   5.648  12.164  0.00  0.00    +0.000 A 
ATOM     19  C   UNL     1      35.734   6.104  10.888  0.00  0.00    +0.000 A 
ATOM     20  C   UNL     1      34.615   6.858  10.675  0.00  0.00    +0.000 A 
ATOM     21  C   UNL     1      33.771   7.189  11.718  0.00  0.00    +0.000 A 
ATOM     22  C   UNL     1      34.078   6.747  12.965  0.00  0.00    +0.000 A 
BRANCH  20  23
ATOM     23  C   UNL     1      34.257   7.354   9.328  0.00  0.00    +0.000 C 
ATOM     24  C   UNL     1      34.949   8.702   9.159  0.00  0.00    +0.000 C 
ATOM     25  C   UNL     1      34.765   6.347   8.310  0.00  0.00    +0.000 C 
ENDBRANCH  20  23
ENDBRANCH  16  17
ENDBRANCH   4  16
BRANCH   5  26
ATOM     26  S   UNL     1      38.615   5.821  15.050  0.00  0.00    +0.000 S 
BRANCH  26  27
ATOM     27  C   UNL     1      39.443   5.981  16.619  0.00  0.00    +0.000 A 
ATOM     28  C   UNL     1      40.760   6.362  16.765  0.00  0.00    +0.000 A 
ATOM     29  C   UNL     1      41.339   6.463  18.035  0.00  0.00    +0.000 A 
ATOM     30  C   UNL     1      40.615   6.188  19.170  0.00  0.00    +0.000 A 
ATOM     31  C   UNL     1      39.299   5.808  19.020  0.00  0.00    +0.000 A 
ATOM     32  C   UNL     1      38.726   5.707  17.764  0.00  0.00    +0.000 A 
ENDBRANCH  26  27
ENDBRANCH   5  26
TORSDOF 7
ENDMDL
MODEL 7
REMARK VINA RESULT:      -6.7     25.353     27.624
REMARK  Name = 
REMARK  7 active torsions:
REMARK  status: ('A' for Active; 'I' for Inactive)
REMARK    1  A    between atoms: O_2  and  C_3
REMARK    2  A    between atoms: C_8  and  N_9
REMARK    3  A    between atoms: C_12  and  N_13
REMARK    4  A    between atoms: N_13  and  C_14
REMARK    5  A    between atoms: C_17  and  C_18
REMARK    6  A    between atoms: C_23  and  S_24
REMARK    7  A    between atoms: S_24  and  C_25
REMARK                            x       y       z     vdW  Elec       q    Type
REMARK                         _______ _______ _______ _____ _____    ______ ____
ROOT
ATOM      1  N   UNL     1      27.169  15.614  35.939  0.00  0.00    +0.000 N 
ATOM      2  C   UNL     1      26.709  15.347  37.259  0.00  0.00    +0.000 C 
ATOM      3  O   UNL     1      25.511  15.104  37.543  0.00  0.00    +0.000 OA
ATOM      4  C   UNL     1      27.831  15.405  38.166  0.00  0.00    +0.000 C 
ATOM      5  C   UNL     1      28.916  15.689  37.466  0.00  0.00    +0.000 C 
ATOM      6  C   UNL     1      28.570  15.832  36.065  0.00  0.00    +0.000 C 
ATOM      7  O   UNL     1      29.337  16.098  35.118  0.00  0.00    +0.000 OA
ENDROOT
BRANCH   1  13
ATOM      8  C   UNL     1      25.830  16.825  34.305  0.00  0.00    +0.000 A 
ATOM      9  C   UNL     1      25.043  16.899  33.178  0.00  0.00    +0.000 A 
ATOM     10  C   UNL     1      24.771  15.744  32.480  0.00  0.00    +0.000 A 
ATOM     11  C   UNL     1      25.290  14.560  32.925  0.00  0.00    +0.000 A 
ATOM     12  C   UNL     1      26.083  14.502  34.064  0.00  0.00    +0.000 A 
ATOM     13  C   UNL     1      26.363  15.647  34.773  0.00  0.00    +0.000 A 
BRANCH   8  15
ATOM     14  C   UNL     1      26.822  19.053  34.397  0.00  0.00    +0.000 C 
ATOM     15  O   UNL     1      26.126  17.981  35.041  0.00  0.00    +0.000 OA
ENDBRANCH   8  15
ENDBRANCH   1  13
BRANCH   4  16
ATOM     16  N   UNL     1      27.703  15.180  39.567  0.00  0.00    +0.000 NA
BRANCH  16  17
ATOM     17  C   UNL     1      27.754  13.854  40.100  0.00  0.00    +0.000 A 
ATOM     18  C   UNL     1      26.593  13.172  40.387  0.00  0.00    +0.000 A 
ATOM     19  C   UNL     1      26.712  11.885  40.904  0.00  0.00    +0.000 A 
ATOM     20  C   UNL     1      27.941  11.328  41.114  0.00  0.00    +0.000 A 
ATOM     21  C   UNL     1      29.098  12.024  40.821  0.00  0.00    +0.000 A 
ATOM     22  C   UNL     1      28.988  13.280  40.317  0.00  0.00    +0.000 A 
BRANCH  20  23
ATOM     23  C   UNL     1      28.091   9.961  41.664  0.00  0.00    +0.000 C 
ATOM     24  C   UNL     1      26.828   9.196  41.283  0.00  0.00    +0.000 C 
ATOM     25  C   UNL     1      29.321   9.335  41.029  0.00  0.00    +0.000 C 
ENDBRANCH  20  23
ENDBRANCH  16  17
ENDBRANCH   4  16
BRANCH   5  26
ATOM     26  S   UNL     1      30.525  15.850  38.226  0.00  0.00    +0.000 S 
BRANCH  26  27
ATOM     27  C   UNL     1      31.472  14.349  38.064  0.00  0.00    +0.000 A 
ATOM     28  C   UNL     1      31.369  13.479  37.000  0.00  0.00    +0.000 A 
ATOM     29  C   UNL     1      32.149  12.318  36.948  0.00  0.00    +0.000 A 
ATOM     30  C   UNL     1      33.037  12.013  37.950  0.00  0.00    +0.000 A 
ATOM     31  C   UNL     1      33.138  12.885  39.012  0.00  0.00    +0.000 A 
ATOM     32  C   UNL     1      32.367  14.033  39.065  0.00  0.00    +0.000 A 
ENDBRANCH  26  27
ENDBRANCH   5  26
TORSDOF 7
ENDMDL
MODEL 8
REMARK VINA RESULT:      -6.7      3.741      6.349
REMARK  Name = 
REMARK  7 active torsions:
REMARK  status: ('A' for Active; 'I' for Inactive)
REMARK    1  A    between atoms: O_2  and  C_3
REMARK    2  A    between atoms: C_8  and  N_9
REMARK    3  A    between atoms: C_12  and  N_13
REMARK    4  A    between atoms: N_13  and  C_14
REMARK    5  A    between atoms: C_17  and  C_18
REMARK    6  A    between atoms: C_23  and  S_24
REMARK    7  A    between atoms: S_24  and  C_25
REMARK                            x       y       z     vdW  Elec       q    Type
REMARK                         _______ _______ _______ _____ _____    ______ ____
ROOT
ATOM      1  N   UNL     1      37.509  -0.489  15.338  0.00  0.00    +0.000 N 
ATOM      2  C   UNL     1      37.590  -1.559  14.404  0.00  0.00    +0.000 C 
ATOM      3  O   UNL     1      37.021  -2.667  14.564  0.00  0.00    +0.000 OA
ATOM      4  C   UNL     1      38.409  -1.145  13.290  0.00  0.00    +0.000 C 
ATOM      5  C   UNL     1      38.814   0.094  13.510  0.00  0.00    +0.000 C 
ATOM      6  C   UNL     1      38.285   0.563  14.776  0.00  0.00    +0.000 C 
ATOM      7  O   UNL     1      38.461   1.680  15.303  0.00  0.00    +0.000 OA
ENDROOT
BRANCH   1  13
ATOM      8  C   UNL     1      37.331  -1.077  17.695  0.00  0.00    +0.000 A 
ATOM      9  C   UNL     1      36.669  -1.119  18.901  0.00  0.00    +0.000 A 
ATOM     10  C   UNL     1      35.408  -0.573  18.988  0.00  0.00    +0.000 A 
ATOM     11  C   UNL     1      34.852  -0.004  17.875  0.00  0.00    +0.000 A 
ATOM     12  C   UNL     1      35.533   0.031  16.665  0.00  0.00    +0.000 A 
ATOM     13  C   UNL     1      36.793  -0.511  16.562  0.00  0.00    +0.000 A 
BRANCH   8  15
ATOM     14  C   UNL     1      38.785  -3.036  17.735  0.00  0.00    +0.000 C 
ATOM     15  O   UNL     1      38.615  -1.625  17.571  0.00  0.00    +0.000 OA
ENDBRANCH   8  15
ENDBRANCH   1  13
BRANCH   4  16
ATOM     16  N   UNL     1      38.685  -1.993  12.178  0.00  0.00    +0.000 NA
BRANCH  16  17
ATOM     17  C   UNL     1      40.016  -2.450  11.923  0.00  0.00    +0.000 A 
ATOM     18  C   UNL     1      40.542  -2.393  10.652  0.00  0.00    +0.000 A 
ATOM     19  C   UNL     1      41.844  -2.853  10.470  0.00  0.00    +0.000 A 
ATOM     20  C   UNL     1      42.565  -3.341  11.523  0.00  0.00    +0.000 A 
ATOM     21  C   UNL     1      42.025  -3.391  12.794  0.00  0.00    +0.000 A 
ATOM     22  C   UNL     1      40.756  -2.944  12.976  0.00  0.00    +0.000 A 
BRANCH  20  23
ATOM     23  C   UNL     1      43.949  -3.835  11.353  0.00  0.00    +0.000 C 
ATOM     24  C   UNL     1      44.607  -2.943  10.305  0.00  0.00    +0.000 C 
ATOM     25  C   UNL     1      44.656  -3.716  12.693  0.00  0.00    +0.000 C 
ENDBRANCH  20  23
ENDBRANCH  16  17
ENDBRANCH   4  16
BRANCH   5  26
ATOM     26  S   UNL     1      39.858   0.974  12.356  0.00  0.00    +0.000 S 
BRANCH  26  27
ATOM     27  C   UNL     1      41.578   0.589  12.614  0.00  0.00    +0.000 A 
ATOM     28  C   UNL     1      42.532   0.603  11.619  0.00  0.00    +0.000 A 
ATOM     29  C   UNL     1      43.866   0.286  11.903  0.00  0.00    +0.000 A 
ATOM     30  C   UNL     1      44.262  -0.046  13.176  0.00  0.00    +0.000 A 
ATOM     31  C   UNL     1      43.306  -0.058  14.167  0.00  0.00    +0.000 A 
ATOM     32  C   UNL     1      41.987   0.255  13.887  0.00  0.00    +0.000 A 
ENDBRANCH  26  27
ENDBRANCH   5  26
TORSDOF 7
ENDMDL
MODEL 9
REMARK VINA RESULT:      -6.7      2.478      5.157
REMARK  Name = 
REMARK  7 active torsions:
REMARK  status: ('A' for Active; 'I' for Inactive)
REMARK    1  A    between atoms: O_2  and  C_3
REMARK    2  A    between atoms: C_8  and  N_9
REMARK    3  A    between atoms: C_12  and  N_13
REMARK    4  A    between atoms: N_13  and  C_14
REMARK    5  A    between atoms: C_17  and  C_18
REMARK    6  A    between atoms: C_23  and  S_24
REMARK    7  A    between atoms: S_24  and  C_25
REMARK                            x       y       z     vdW  Elec       q    Type
REMARK                         _______ _______ _______ _____ _____    ______ ____
ROOT
ATOM      1  N   UNL     1      38.917   5.811  17.002  0.00  0.00    +0.000 N 
ATOM      2  C   UNL     1      38.241   4.559  16.961  0.00  0.00    +0.000 C 
ATOM      3  O   UNL     1      38.138   3.791  17.948  0.00  0.00    +0.000 OA
ATOM      4  C   UNL     1      37.719   4.353  15.630  0.00  0.00    +0.000 C 
ATOM      5  C   UNL     1      38.046   5.399  14.890  0.00  0.00    +0.000 C 
ATOM      6  C   UNL     1      38.797   6.347  15.689  0.00  0.00    +0.000 C 
ATOM      7  O   UNL     1      39.265   7.444  15.322  0.00  0.00    +0.000 OA
ENDROOT
BRANCH   1  13
ATOM      8  C   UNL     1      38.902   7.220  18.988  0.00  0.00    +0.000 A 
ATOM      9  C   UNL     1      39.493   7.779  20.098  0.00  0.00    +0.000 A 
ATOM     10  C   UNL     1      40.806   7.475  20.378  0.00  0.00    +0.000 A 
ATOM     11  C   UNL     1      41.484   6.627  19.546  0.00  0.00    +0.000 A 
ATOM     12  C   UNL     1      40.874   6.071  18.429  0.00  0.00    +0.000 A 
ATOM     13  C   UNL     1      39.563   6.365  18.136  0.00  0.00    +0.000 A 
BRANCH   8  15
ATOM     14  C   UNL     1      36.930   8.620  19.309  0.00  0.00    +0.000 C 
ATOM     15  O   UNL     1      37.567   7.508  18.672  0.00  0.00    +0.000 OA
ENDBRANCH   8  15
ENDBRANCH   1  13
BRANCH   4  16
ATOM     16  N   UNL     1      36.986   3.188  15.261  0.00  0.00    +0.000 NA
BRANCH  16  17
ATOM     17  C   UNL     1      37.641   1.923  15.138  0.00  0.00    +0.000 A 
ATOM     18  C   UNL     1      37.012   0.769  15.546  0.00  0.00    +0.000 A 
ATOM     19  C   UNL     1      37.704  -0.431  15.400  0.00  0.00    +0.000 A 
ATOM     20  C   UNL     1      38.962  -0.450  14.868  0.00  0.00    +0.000 A 
ATOM     21  C   UNL     1      39.582   0.717  14.463  0.00  0.00    +0.000 A 
ATOM     22  C   UNL     1      38.910   1.889  14.604  0.00  0.00    +0.000 A 
BRANCH  20  23
ATOM     23  C   UNL     1      39.717  -1.712  14.704  0.00  0.00    +0.000 C 
ATOM     24  C   UNL     1      41.181  -1.325  14.520  0.00  0.00    +0.000 C 
ATOM     25  C   UNL     1      39.524  -2.539  15.964  0.00  0.00    +0.000 C 
ENDBRANCH  20  23
ENDBRANCH  16  17
ENDBRANCH   4  16
BRANCH   5  26
ATOM     26  S   UNL     1      37.582   5.529  13.169  0.00  0.00    +0.000 S 
BRANCH  26  27
ATOM     27  C   UNL     1      35.923   6.152  12.990  0.00  0.00    +0.000 A 
ATOM     28  C   UNL     1      35.031   6.293  14.032  0.00  0.00    +0.000 A 
ATOM     29  C   UNL     1      33.742   6.790  13.808  0.00  0.00    +0.000 A 
ATOM     30  C   UNL     1      33.329   7.153  12.549  0.00  0.00    +0.000 A 
ATOM     31  C   UNL     1      34.223   7.012  11.510  0.00  0.00    +0.000 A 
ATOM     32  C   UNL     1      35.498   6.520  11.731  0.00  0.00    +0.000 A 
ENDBRANCH  26  27
ENDBRANCH   5  26
TORSDOF 7
ENDMDL
MODEL 10
REMARK VINA RESULT:      -6.6      3.035      8.711
REMARK  Name = 
REMARK  7 active torsions:
REMARK  status: ('A' for Active; 'I' for Inactive)
REMARK    1  A    between atoms: O_2  and  C_3
REMARK    2  A    between atoms: C_8  and  N_9
REMARK    3  A    between atoms: C_12  and  N_13
REMARK    4  A    between atoms: N_13  and  C_14
REMARK    5  A    between atoms: C_17  and  C_18
REMARK    6  A    between atoms: C_23  and  S_24
REMARK    7  A    between atoms: S_24  and  C_25
REMARK                            x       y       z     vdW  Elec       q    Type
REMARK                         _______ _______ _______ _____ _____    ______ ____
ROOT
ATOM      1  N   UNL     1      37.641   3.863  15.640  0.00  0.00    +0.000 N 
ATOM      2  C   UNL     1      38.021   4.426  16.890  0.00  0.00    +0.000 C 
ATOM      3  O   UNL     1      38.191   3.751  17.935  0.00  0.00    +0.000 OA
ATOM      4  C   UNL     1      38.168   5.854  16.735  0.00  0.00    +0.000 C 
ATOM      5  C   UNL     1      37.899   6.164  15.478  0.00  0.00    +0.000 C 
ATOM      6  C   UNL     1      37.561   4.963  14.740  0.00  0.00    +0.000 C 
ATOM      7  O   UNL     1      37.252   4.875  13.534  0.00  0.00    +0.000 OA
ENDROOT
BRANCH   1  13
ATOM      8  C   UNL     1      36.187   1.910  15.682  0.00  0.00    +0.000 A 
ATOM      9  C   UNL     1      35.915   0.580  15.456  0.00  0.00    +0.000 A 
ATOM     10  C   UNL     1      36.897  -0.218  14.913  0.00  0.00    +0.000 A 
ATOM     11  C   UNL     1      38.112   0.334  14.613  0.00  0.00    +0.000 A 
ATOM     12  C   UNL     1      38.371   1.679  14.848  0.00  0.00    +0.000 A 
ATOM     13  C   UNL     1      37.401   2.488  15.391  0.00  0.00    +0.000 A 
BRANCH   8  15
ATOM     14  C   UNL     1      34.169   3.250  15.392  0.00  0.00    +0.000 C 
ATOM     15  O   UNL     1      35.211   2.750  16.235  0.00  0.00    +0.000 OA
ENDBRANCH   8  15
ENDBRANCH   1  13
BRANCH   4  16
ATOM     16  N   UNL     1      38.545   6.712  17.808  0.00  0.00    +0.000 NA
BRANCH  16  17
ATOM     17  C   UNL     1      39.859   6.645  18.368  0.00  0.00    +0.000 A 
ATOM     18  C   UNL     1      40.967   6.667  17.553  0.00  0.00    +0.000 A 
ATOM     19  C   UNL     1      42.218   6.598  18.161  0.00  0.00    +0.000 A 
ATOM     20  C   UNL     1      42.330   6.512  19.520  0.00  0.00    +0.000 A 
ATOM     21  C   UNL     1      41.208   6.491  20.326  0.00  0.00    +0.000 A 
ATOM     22  C   UNL     1      39.986   6.559  19.738  0.00  0.00    +0.000 A 
BRANCH  20  23
ATOM     23  C   UNL     1      43.648   6.437  20.188  0.00  0.00    +0.000 C 
ATOM     24  C   UNL     1      44.276   7.822  20.073  0.00  0.00    +0.000 C 
ATOM     25  C   UNL     1      43.414   6.062  21.641  0.00  0.00    +0.000 C 
ENDBRANCH  20  23
ENDBRANCH  16  17
ENDBRANCH   4  16
BRANCH   5  26
ATOM     26  S   UNL     1      37.968   7.845  14.876  0.00  0.00    +0.000 S 
BRANCH  26  27
ATOM     27  C   UNL     1      36.376   8.638  14.981  0.00  0.00    +0.000 A 
ATOM     28  C   UNL     1      36.183   9.935  15.406  0.00  0.00    +0.000 A 
ATOM     29  C   UNL     1      34.897  10.486  15.461  0.00  0.00    +0.000 A 
ATOM     30  C   UNL     1      33.794   9.754  15.093  0.00  0.00    +0.000 A 
ATOM     31  C   UNL     1      33.992   8.458  14.668  0.00  0.00    +0.000 A 
ATOM     32  C   UNL     1      35.262   7.913  14.614  0.00  0.00    +0.000 A 
ENDBRANCH  26  27
ENDBRANCH   5  26
TORSDOF 7
ENDMDL
