MODEL 1
REMARK VINA RESULT:      -7.4      0.000      0.000
REMARK  Name = 
REMARK  3 active torsions:
REMARK  status: ('A' for Active; 'I' for Inactive)
REMARK    1  A    between atoms: C_6  and  N_7
REMARK    2  A    between atoms: C_8  and  C_10
REMARK    3  A    between atoms: C_15  and  N_16
REMARK                            x       y       z     vdW  Elec       q    Type
REMARK                         _______ _______ _______ _____ _____    ______ ____
ROOT
ATOM      1  N   UNL     1      15.845  10.879  36.058  0.00  0.00    +0.000 NA
ATOM      2  C   UNL     1      16.902  11.316  36.921  0.00  0.00    +0.000 C 
ATOM      3  O   UNL     1      17.461  12.420  36.721  0.00  0.00    +0.000 OA
ENDROOT
BRANCH   1   9
ATOM      4  C   UNL     1      13.777  14.141  31.904  0.00  0.00    +0.000 C 
ATOM      5  C   UNL     1      14.371  13.244  32.956  0.00  0.00    +0.000 A 
ATOM      6  C   UNL     1      15.343  12.319  32.676  0.00  0.00    +0.000 A 
ATOM      7  C   UNL     1      15.851  11.525  33.680  0.00  0.00    +0.000 A 
ATOM      8  C   UNL     1      16.910  10.508  33.416  0.00  0.00    +0.000 C 
ATOM      9  C   UNL     1      15.385  11.655  34.958  0.00  0.00    +0.000 A 
ATOM     10  C   UNL     1      14.395  12.598  35.235  0.00  0.00    +0.000 A 
ATOM     11  C   UNL     1      13.887  12.738  36.637  0.00  0.00    +0.000 C 
ATOM     12  C   UNL     1      13.877  13.403  34.239  0.00  0.00    +0.000 A 
ENDBRANCH   1   9
BRANCH   2  13
ATOM     13  C   UNL     1      17.286  10.435  38.014  0.00  0.00    +0.000 A 
ATOM     14  C   UNL     1      16.454  10.313  39.143  0.00  0.00    +0.000 A 
ATOM     15  C   UNL     1      16.736   9.509  40.198  0.00  0.00    +0.000 A 
ATOM     16  C   UNL     1      17.886   8.760  40.192  0.00  0.00    +0.000 A 
ATOM     17  C   UNL     1      18.718   8.860  39.103  0.00  0.00    +0.000 A 
ATOM     18  C   UNL     1      18.436   9.689  38.010  0.00  0.00    +0.000 A 
BRANCH  18  19
ATOM     19  N   UNL     1      19.320   9.765  36.909  0.00  0.00    +0.000 N 
ATOM     20  O   UNL     1      20.444  10.313  37.130  0.00  0.00    +0.000 OA
ATOM     21  O   UNL     1      19.105   9.322  35.653  0.00  0.00    +0.000 OA
ENDBRANCH  18  19
ENDBRANCH   2  13
TORSDOF 3
ENDMDL
MODEL 2
REMARK VINA RESULT:      -7.1      0.868      2.056
REMARK  Name = 
REMARK  3 active torsions:
REMARK  status: ('A' for Active; 'I' for Inactive)
REMARK    1  A    between atoms: C_6  and  N_7
REMARK    2  A    between atoms: C_8  and  C_10
REMARK    3  A    between atoms: C_15  and  N_16
REMARK                            x       y       z     vdW  Elec       q    Type
REMARK                         _______ _______ _______ _____ _____    ______ ____
ROOT
ATOM      1  N   UNL     1      16.446  10.509  36.398  0.00  0.00    +0.000 NA
ATOM      2  C   UNL     1      17.384  11.105  37.304  0.00  0.00    +0.000 C 
ATOM      3  O   UNL     1      17.754  12.291  37.136  0.00  0.00    +0.000 OA
ENDROOT
BRANCH   1   9
ATOM      4  C   UNL     1      14.527  13.159  31.766  0.00  0.00    +0.000 C 
ATOM      5  C   UNL     1      14.983  12.491  33.034  0.00  0.00    +0.000 A 
ATOM      6  C   UNL     1      14.383  12.716  34.246  0.00  0.00    +0.000 A 
ATOM      7  C   UNL     1      14.843  12.075  35.375  0.00  0.00    +0.000 A 
ATOM      8  C   UNL     1      14.216  12.293  36.711  0.00  0.00    +0.000 C 
ATOM      9  C   UNL     1      15.900  11.214  35.290  0.00  0.00    +0.000 A 
ATOM     10  C   UNL     1      16.506  10.989  34.053  0.00  0.00    +0.000 A 
ATOM     11  C   UNL     1      17.665  10.044  33.964  0.00  0.00    +0.000 C 
ATOM     12  C   UNL     1      16.055  11.625  32.912  0.00  0.00    +0.000 A 
ENDBRANCH   1   9
BRANCH   2  13
ATOM     13  C   UNL     1      17.874  10.284  38.402  0.00  0.00    +0.000 A 
ATOM     14  C   UNL     1      16.999   9.897  39.434  0.00  0.00    +0.000 A 
ATOM     15  C   UNL     1      17.375   9.127  40.485  0.00  0.00    +0.000 A 
ATOM     16  C   UNL     1      18.671   8.686  40.574  0.00  0.00    +0.000 A 
ATOM     17  C   UNL     1      19.548   9.049  39.581  0.00  0.00    +0.000 A 
ATOM     18  C   UNL     1      19.169   9.845  38.491  0.00  0.00    +0.000 A 
BRANCH  18  19
ATOM     19  N   UNL     1      20.104  10.199  37.491  0.00  0.00    +0.000 N 
ATOM     20  O   UNL     1      20.861  11.184  37.754  0.00  0.00    +0.000 OA
ATOM     21  O   UNL     1      20.281   9.609  36.291  0.00  0.00    +0.000 OA
ENDBRANCH  18  19
ENDBRANCH   2  13
TORSDOF 3
ENDMDL
MODEL 3
REMARK VINA RESULT:      -6.8      1.839      6.720
REMARK  Name = 
REMARK  3 active torsions:
REMARK  status: ('A' for Active; 'I' for Inactive)
REMARK    1  A    between atoms: C_6  and  N_7
REMARK    2  A    between atoms: C_8  and  C_10
REMARK    3  A    between atoms: C_15  and  N_16
REMARK                            x       y       z     vdW  Elec       q    Type
REMARK                         _______ _______ _______ _____ _____    ______ ____
ROOT
ATOM      1  N   UNL     1      16.819  10.191  36.072  0.00  0.00    +0.000 NA
ATOM      2  C   UNL     1      16.759  11.454  35.398  0.00  0.00    +0.000 C 
ATOM      3  O   UNL     1      17.223  12.482  35.946  0.00  0.00    +0.000 OA
ENDROOT
BRANCH   1   9
ATOM      4  C   UNL     1      19.423   9.497  41.063  0.00  0.00    +0.000 C 
ATOM      5  C   UNL     1      18.670   9.699  39.776  0.00  0.00    +0.000 A 
ATOM      6  C   UNL     1      17.347  10.056  39.741  0.00  0.00    +0.000 A 
ATOM      7  C   UNL     1      16.708  10.227  38.533  0.00  0.00    +0.000 A 
ATOM      8  C   UNL     1      15.270  10.616  38.454  0.00  0.00    +0.000 C 
ATOM      9  C   UNL     1      17.392  10.040  37.366  0.00  0.00    +0.000 A 
ATOM     10  C   UNL     1      18.738   9.677  37.408  0.00  0.00    +0.000 A 
ATOM     11  C   UNL     1      19.485   9.473  36.125  0.00  0.00    +0.000 C 
ATOM     12  C   UNL     1      19.392   9.502  38.612  0.00  0.00    +0.000 A 
ENDBRANCH   1   9
BRANCH   2  13
ATOM     13  C   UNL     1      16.149  11.484  34.077  0.00  0.00    +0.000 A 
ATOM     14  C   UNL     1      16.768  10.818  33.001  0.00  0.00    +0.000 A 
ATOM     15  C   UNL     1      16.259  10.791  31.745  0.00  0.00    +0.000 A 
ATOM     16  C   UNL     1      15.078  11.437  31.477  0.00  0.00    +0.000 A 
ATOM     17  C   UNL     1      14.451  12.095  32.507  0.00  0.00    +0.000 A 
ATOM     18  C   UNL     1      14.970  12.130  33.808  0.00  0.00    +0.000 A 
BRANCH  18  19
ATOM     19  N   UNL     1      14.295  12.822  34.841  0.00  0.00    +0.000 N 
ATOM     20  O   UNL     1      14.103  14.062  34.652  0.00  0.00    +0.000 OA
ATOM     21  O   UNL     1      13.833  12.312  36.001  0.00  0.00    +0.000 OA
ENDBRANCH  18  19
ENDBRANCH   2  13
TORSDOF 3
ENDMDL
MODEL 4
REMARK VINA RESULT:      -6.4     18.614     19.798
REMARK  Name = 
REMARK  3 active torsions:
REMARK  status: ('A' for Active; 'I' for Inactive)
REMARK    1  A    between atoms: C_6  and  N_7
REMARK    2  A    between atoms: C_8  and  C_10
REMARK    3  A    between atoms: C_15  and  N_16
REMARK                            x       y       z     vdW  Elec       q    Type
REMARK                         _______ _______ _______ _____ _____    ______ ____
ROOT
ATOM      1  N   UNL     1      29.502  22.295  26.841  0.00  0.00    +0.000 NA
ATOM      2  C   UNL     1      30.140  23.187  27.764  0.00  0.00    +0.000 C 
ATOM      3  O   UNL     1      30.114  24.424  27.562  0.00  0.00    +0.000 OA
ENDROOT
BRANCH   1   9
ATOM      4  C   UNL     1      27.116  24.093  22.021  0.00  0.00    +0.000 C 
ATOM      5  C   UNL     1      27.683  23.624  23.333  0.00  0.00    +0.000 A 
ATOM      6  C   UNL     1      26.931  23.539  24.475  0.00  0.00    +0.000 A 
ATOM      7  C   UNL     1      27.503  23.102  25.649  0.00  0.00    +0.000 A 
ATOM      8  C   UNL     1      26.717  22.996  26.913  0.00  0.00    +0.000 C 
ATOM      9  C   UNL     1      28.823  22.754  25.678  0.00  0.00    +0.000 A 
ATOM     10  C   UNL     1      29.583  22.842  24.512  0.00  0.00    +0.000 A 
ATOM     11  C   UNL     1      31.031  22.459  24.548  0.00  0.00    +0.000 C 
ATOM     12  C   UNL     1      29.023  23.278  23.327  0.00  0.00    +0.000 A 
ENDBRANCH   1   9
BRANCH   2  13
ATOM     13  C   UNL     1      30.804  22.600  28.919  0.00  0.00    +0.000 A 
ATOM     14  C   UNL     1      32.096  22.057  28.786  0.00  0.00    +0.000 A 
ATOM     15  C   UNL     1      32.785  21.502  29.813  0.00  0.00    +0.000 A 
ATOM     16  C   UNL     1      32.218  21.454  31.062  0.00  0.00    +0.000 A 
ATOM     17  C   UNL     1      30.957  21.975  31.222  0.00  0.00    +0.000 A 
ATOM     18  C   UNL     1      30.238  22.550  30.165  0.00  0.00    +0.000 A 
BRANCH  18  19
ATOM     19  N   UNL     1      28.940  23.074  30.371  0.00  0.00    +0.000 N 
ATOM     20  O   UNL     1      27.982  22.244  30.298  0.00  0.00    +0.000 OA
ATOM     21  O   UNL     1      28.606  24.354  30.636  0.00  0.00    +0.000 OA
ENDBRANCH  18  19
ENDBRANCH   2  13
TORSDOF 3
ENDMDL
MODEL 5
REMARK VINA RESULT:      -6.4     18.910     19.974
REMARK  Name = 
REMARK  3 active torsions:
REMARK  status: ('A' for Active; 'I' for Inactive)
REMARK    1  A    between atoms: C_6  and  N_7
REMARK    2  A    between atoms: C_8  and  C_10
REMARK    3  A    between atoms: C_15  and  N_16
REMARK                            x       y       z     vdW  Elec       q    Type
REMARK                         _______ _______ _______ _____ _____    ______ ____
ROOT
ATOM      1  N   UNL     1      30.155  22.238  26.799  0.00  0.00    +0.000 NA
ATOM      2  C   UNL     1      30.609  23.109  27.843  0.00  0.00    +0.000 C 
ATOM      3  O   UNL     1      30.487  24.351  27.723  0.00  0.00    +0.000 OA
ENDROOT
BRANCH   1   9
ATOM      4  C   UNL     1      27.439  24.115  22.188  0.00  0.00    +0.000 C 
ATOM      5  C   UNL     1      28.223  23.630  23.376  0.00  0.00    +0.000 A 
ATOM      6  C   UNL     1      29.594  23.585  23.389  0.00  0.00    +0.000 A 
ATOM      7  C   UNL     1      30.260  23.131  24.506  0.00  0.00    +0.000 A 
ATOM      8  C   UNL     1      31.749  23.068  24.559  0.00  0.00    +0.000 C 
ATOM      9  C   UNL     1      29.556  22.724  25.603  0.00  0.00    +0.000 A 
ATOM     10  C   UNL     1      28.162  22.772  25.584  0.00  0.00    +0.000 A 
ATOM     11  C   UNL     1      27.395  22.324  26.790  0.00  0.00    +0.000 C 
ATOM     12  C   UNL     1      27.480  23.225  24.471  0.00  0.00    +0.000 A 
ENDBRANCH   1   9
BRANCH   2  13
ATOM     13  C   UNL     1      31.205  22.495  29.021  0.00  0.00    +0.000 A 
ATOM     14  C   UNL     1      32.503  21.954  28.950  0.00  0.00    +0.000 A 
ATOM     15  C   UNL     1      33.131  21.375  30.002  0.00  0.00    +0.000 A 
ATOM     16  C   UNL     1      32.493  21.299  31.215  0.00  0.00    +0.000 A 
ATOM     17  C   UNL     1      31.226  21.819  31.314  0.00  0.00    +0.000 A 
ATOM     18  C   UNL     1      30.568  22.418  30.231  0.00  0.00    +0.000 A 
BRANCH  18  19
ATOM     19  N   UNL     1      29.261  22.939  30.374  0.00  0.00    +0.000 N 
ATOM     20  O   UNL     1      29.178  24.145  30.762  0.00  0.00    +0.000 OA
ATOM     21  O   UNL     1      28.095  22.301  30.144  0.00  0.00    +0.000 OA
ENDBRANCH  18  19
ENDBRANCH   2  13
TORSDOF 3
ENDMDL
MODEL 6
REMARK VINA RESULT:      -6.4      3.075      5.300
REMARK  Name = 
REMARK  3 active torsions:
REMARK  status: ('A' for Active; 'I' for Inactive)
REMARK    1  A    between atoms: C_6  and  N_7
REMARK    2  A    between atoms: C_8  and  C_10
REMARK    3  A    between atoms: C_15  and  N_16
REMARK                            x       y       z     vdW  Elec       q    Type
REMARK                         _______ _______ _______ _____ _____    ______ ____
ROOT
ATOM      1  N   UNL     1      19.167   9.592  37.693  0.00  0.00    +0.000 NA
ATOM      2  C   UNL     1      20.274  10.489  37.843  0.00  0.00    +0.000 C 
ATOM      3  O   UNL     1      20.074  11.694  38.128  0.00  0.00    +0.000 OA
ENDROOT
BRANCH   1   9
ATOM      4  C   UNL     1      13.774  11.325  37.976  0.00  0.00    +0.000 C 
ATOM      5  C   UNL     1      15.202  10.853  37.974  0.00  0.00    +0.000 A 
ATOM      6  C   UNL     1      15.852  10.457  39.115  0.00  0.00    +0.000 A 
ATOM      7  C   UNL     1      17.161  10.034  39.053  0.00  0.00    +0.000 A 
ATOM      8  C   UNL     1      17.901   9.594  40.272  0.00  0.00    +0.000 C 
ATOM      9  C   UNL     1      17.816  10.009  37.855  0.00  0.00    +0.000 A 
ATOM     10  C   UNL     1      17.150  10.414  36.699  0.00  0.00    +0.000 A 
ATOM     11  C   UNL     1      17.872  10.386  35.387  0.00  0.00    +0.000 C 
ATOM     12  C   UNL     1      15.836  10.840  36.745  0.00  0.00    +0.000 A 
ENDBRANCH   1   9
BRANCH   2  13
ATOM     13  C   UNL     1      21.611   9.947  37.653  0.00  0.00    +0.000 A 
ATOM     14  C   UNL     1      22.212   9.988  36.380  0.00  0.00    +0.000 A 
ATOM     15  C   UNL     1      23.455   9.513  36.122  0.00  0.00    +0.000 A 
ATOM     16  C   UNL     1      24.193   8.958  37.138  0.00  0.00    +0.000 A 
ATOM     17  C   UNL     1      23.633   8.904  38.391  0.00  0.00    +0.000 A 
ATOM     18  C   UNL     1      22.348   9.391  38.666  0.00  0.00    +0.000 A 
BRANCH  18  19
ATOM     19  N   UNL     1      21.806   9.314  39.970  0.00  0.00    +0.000 N 
ATOM     20  O   UNL     1      21.286   8.202  40.296  0.00  0.00    +0.000 OA
ATOM     21  O   UNL     1      21.779  10.286  40.904  0.00  0.00    +0.000 OA
ENDBRANCH  18  19
ENDBRANCH   2  13
TORSDOF 3
ENDMDL
MODEL 7
REMARK VINA RESULT:      -6.2     19.285     20.913
REMARK  Name = 
REMARK  3 active torsions:
REMARK  status: ('A' for Active; 'I' for Inactive)
REMARK    1  A    between atoms: C_6  and  N_7
REMARK    2  A    between atoms: C_8  and  C_10
REMARK    3  A    between atoms: C_15  and  N_16
REMARK                            x       y       z     vdW  Elec       q    Type
REMARK                         _______ _______ _______ _____ _____    ______ ____
ROOT
ATOM      1  N   UNL     1      12.317  23.167  20.322  0.00  0.00    +0.000 NA
ATOM      2  C   UNL     1      11.374  22.444  21.123  0.00  0.00    +0.000 C 
ATOM      3  O   UNL     1      11.168  22.784  22.312  0.00  0.00    +0.000 OA
ENDROOT
BRANCH   1   9
ATOM      4  C   UNL     1      15.523  27.368  22.381  0.00  0.00    +0.000 C 
ATOM      5  C   UNL     1      14.619  26.303  21.822  0.00  0.00    +0.000 A 
ATOM      6  C   UNL     1      13.349  26.570  21.379  0.00  0.00    +0.000 A 
ATOM      7  C   UNL     1      12.565  25.555  20.877  0.00  0.00    +0.000 A 
ATOM      8  C   UNL     1      11.180  25.805  20.384  0.00  0.00    +0.000 C 
ATOM      9  C   UNL     1      13.051  24.279  20.820  0.00  0.00    +0.000 A 
ATOM     10  C   UNL     1      14.344  24.015  21.273  0.00  0.00    +0.000 A 
ATOM     11  C   UNL     1      14.872  22.615  21.210  0.00  0.00    +0.000 C 
ATOM     12  C   UNL     1      15.141  25.023  21.779  0.00  0.00    +0.000 A 
ENDBRANCH   1   9
BRANCH   2  13
ATOM     13  C   UNL     1      10.682  21.323  20.503  0.00  0.00    +0.000 A 
ATOM     14  C   UNL     1      11.274  20.046  20.503  0.00  0.00    +0.000 A 
ATOM     15  C   UNL     1      10.692  18.951  19.956  0.00  0.00    +0.000 A 
ATOM     16  C   UNL     1       9.459  19.062  19.364  0.00  0.00    +0.000 A 
ATOM     17  C   UNL     1       8.857  20.297  19.349  0.00  0.00    +0.000 A 
ATOM     18  C   UNL     1       9.452  21.435  19.911  0.00  0.00    +0.000 A 
BRANCH  18  19
ATOM     19  N   UNL     1       8.799  22.689  19.872  0.00  0.00    +0.000 N 
ATOM     20  O   UNL     1       8.987  23.386  18.827  0.00  0.00    +0.000 OA
ATOM     21  O   UNL     1       8.002  23.227  20.817  0.00  0.00    +0.000 OA
ENDBRANCH  18  19
ENDBRANCH   2  13
TORSDOF 3
ENDMDL
MODEL 8
REMARK VINA RESULT:      -6.2     18.991     21.121
REMARK  Name = 
REMARK  3 active torsions:
REMARK  status: ('A' for Active; 'I' for Inactive)
REMARK    1  A    between atoms: C_6  and  N_7
REMARK    2  A    between atoms: C_8  and  C_10
REMARK    3  A    between atoms: C_15  and  N_16
REMARK                            x       y       z     vdW  Elec       q    Type
REMARK                         _______ _______ _______ _____ _____    ______ ____
ROOT
ATOM      1  N   UNL     1      27.583  24.846  25.948  0.00  0.00    +0.000 NA
ATOM      2  C   UNL     1      26.904  24.662  24.699  0.00  0.00    +0.000 C 
ATOM      3  O   UNL     1      26.078  23.728  24.564  0.00  0.00    +0.000 OA
ENDROOT
BRANCH   1   9
ATOM      4  C   UNL     1      26.434  21.708  30.530  0.00  0.00    +0.000 C 
ATOM      5  C   UNL     1      26.792  22.492  29.297  0.00  0.00    +0.000 A 
ATOM      6  C   UNL     1      27.802  22.115  28.449  0.00  0.00    +0.000 A 
ATOM      7  C   UNL     1      28.086  22.872  27.334  0.00  0.00    +0.000 A 
ATOM      8  C   UNL     1      29.175  22.495  26.387  0.00  0.00    +0.000 C 
ATOM      9  C   UNL     1      27.362  24.000  27.071  0.00  0.00    +0.000 A 
ATOM     10  C   UNL     1      26.337  24.377  27.938  0.00  0.00    +0.000 A 
ATOM     11  C   UNL     1      25.546  25.616  27.645  0.00  0.00    +0.000 C 
ATOM     12  C   UNL     1      26.040  23.628  29.060  0.00  0.00    +0.000 A 
ENDBRANCH   1   9
BRANCH   2  13
ATOM     13  C   UNL     1      27.212  25.591  23.622  0.00  0.00    +0.000 A 
ATOM     14  C   UNL     1      26.630  26.873  23.610  0.00  0.00    +0.000 A 
ATOM     15  C   UNL     1      26.872  27.797  22.649  0.00  0.00    +0.000 A 
ATOM     16  C   UNL     1      27.729  27.497  21.620  0.00  0.00    +0.000 A 
ATOM     17  C   UNL     1      28.312  26.253  21.604  0.00  0.00    +0.000 A 
ATOM     18  C   UNL     1      28.066  25.290  22.593  0.00  0.00    +0.000 A 
BRANCH  18  19
ATOM     19  N   UNL     1      28.685  24.020  22.539  0.00  0.00    +0.000 N 
ATOM     20  O   UNL     1      28.052  23.115  21.912  0.00  0.00    +0.000 OA
ATOM     21  O   UNL     1      29.869  23.662  23.077  0.00  0.00    +0.000 OA
ENDBRANCH  18  19
ENDBRANCH   2  13
TORSDOF 3
ENDMDL
MODEL 9
REMARK VINA RESULT:      -6.1     18.712     20.238
REMARK  Name = 
REMARK  3 active torsions:
REMARK  status: ('A' for Active; 'I' for Inactive)
REMARK    1  A    between atoms: C_6  and  N_7
REMARK    2  A    between atoms: C_8  and  C_10
REMARK    3  A    between atoms: C_15  and  N_16
REMARK                            x       y       z     vdW  Elec       q    Type
REMARK                         _______ _______ _______ _____ _____    ______ ____
ROOT
ATOM      1  N   UNL     1      28.233  24.393  25.994  0.00  0.00    +0.000 NA
ATOM      2  C   UNL     1      27.193  23.482  26.372  0.00  0.00    +0.000 C 
ATOM      3  O   UNL     1      26.538  22.874  25.493  0.00  0.00    +0.000 OA
ENDROOT
BRANCH   1   9
ATOM      4  C   UNL     1      29.342  25.703  20.588  0.00  0.00    +0.000 C 
ATOM      5  C   UNL     1      29.094  25.297  22.015  0.00  0.00    +0.000 A 
ATOM      6  C   UNL     1      29.686  24.200  22.586  0.00  0.00    +0.000 A 
ATOM      7  C   UNL     1      29.422  23.877  23.898  0.00  0.00    +0.000 A 
ATOM      8  C   UNL     1      30.047  22.692  24.555  0.00  0.00    +0.000 C 
ATOM      9  C   UNL     1      28.568  24.648  24.635  0.00  0.00    +0.000 A 
ATOM     10  C   UNL     1      27.970  25.763  24.048  0.00  0.00    +0.000 A 
ATOM     11  C   UNL     1      27.034  26.606  24.859  0.00  0.00    +0.000 C 
ATOM     12  C   UNL     1      28.225  26.100  22.733  0.00  0.00    +0.000 A 
ENDBRANCH   1   9
BRANCH   2  13
ATOM     13  C   UNL     1      26.940  23.303  27.795  0.00  0.00    +0.000 A 
ATOM     14  C   UNL     1      27.590  22.272  28.499  0.00  0.00    +0.000 A 
ATOM     15  C   UNL     1      27.417  22.044  29.824  0.00  0.00    +0.000 A 
ATOM     16  C   UNL     1      26.568  22.847  30.545  0.00  0.00    +0.000 A 
ATOM     17  C   UNL     1      25.919  23.861  29.884  0.00  0.00    +0.000 A 
ATOM     18  C   UNL     1      26.091  24.103  28.514  0.00  0.00    +0.000 A 
BRANCH  18  19
ATOM     19  N   UNL     1      25.401  25.156  27.870  0.00  0.00    +0.000 N 
ATOM     20  O   UNL     1      25.844  26.327  28.081  0.00  0.00    +0.000 OA
ATOM     21  O   UNL     1      24.329  25.057  27.058  0.00  0.00    +0.000 OA
ENDBRANCH  18  19
ENDBRANCH   2  13
TORSDOF 3
ENDMDL
MODEL 10
REMARK VINA RESULT:      -6.0     18.732     20.648
REMARK  Name = 
REMARK  3 active torsions:
REMARK  status: ('A' for Active; 'I' for Inactive)
REMARK    1  A    between atoms: C_6  and  N_7
REMARK    2  A    between atoms: C_8  and  C_10
REMARK    3  A    between atoms: C_15  and  N_16
REMARK                            x       y       z     vdW  Elec       q    Type
REMARK                         _______ _______ _______ _____ _____    ______ ____
ROOT
ATOM      1  N   UNL     1      28.348  22.663  26.884  0.00  0.00    +0.000 NA
ATOM      2  C   UNL     1      28.017  23.871  26.187  0.00  0.00    +0.000 C 
ATOM      3  O   UNL     1      28.172  24.982  26.746  0.00  0.00    +0.000 OA
ENDROOT
BRANCH   1   9
ATOM      4  C   UNL     1      30.716  22.634  32.038  0.00  0.00    +0.000 C 
ATOM      5  C   UNL     1      30.021  22.646  30.704  0.00  0.00    +0.000 A 
ATOM      6  C   UNL     1      28.657  22.702  30.581  0.00  0.00    +0.000 A 
ATOM      7  C   UNL     1      28.075  22.710  29.333  0.00  0.00    +0.000 A 
ATOM      8  C   UNL     1      26.595  22.772  29.157  0.00  0.00    +0.000 C 
ATOM      9  C   UNL     1      28.857  22.662  28.213  0.00  0.00    +0.000 A 
ATOM     10  C   UNL     1      30.244  22.605  28.346  0.00  0.00    +0.000 A 
ATOM     11  C   UNL     1      31.098  22.551  27.115  0.00  0.00    +0.000 C 
ATOM     12  C   UNL     1      30.842  22.596  29.591  0.00  0.00    +0.000 A 
ENDBRANCH   1   9
BRANCH   2  13
ATOM     13  C   UNL     1      27.505  23.746  24.830  0.00  0.00    +0.000 A 
ATOM     14  C   UNL     1      26.161  23.383  24.617  0.00  0.00    +0.000 A 
ATOM     15  C   UNL     1      25.606  23.255  23.387  0.00  0.00    +0.000 A 
ATOM     16  C   UNL     1      26.370  23.487  22.270  0.00  0.00    +0.000 A 
ATOM     17  C   UNL     1      27.685  23.842  22.448  0.00  0.00    +0.000 A 
ATOM     18  C   UNL     1      28.268  23.975  23.715  0.00  0.00    +0.000 A 
BRANCH  18  19
ATOM     19  N   UNL     1      29.627  24.340  23.855  0.00  0.00    +0.000 N 
ATOM     20  O   UNL     1      30.474  23.403  23.734  0.00  0.00    +0.000 OA
ATOM     21  O   UNL     1      30.123  25.570  24.101  0.00  0.00    +0.000 OA
ENDBRANCH  18  19
ENDBRANCH   2  13
TORSDOF 3
ENDMDL
