MODEL 1
REMARK VINA RESULT:      -6.4      0.000      0.000
REMARK  Name = 
REMARK  3 active torsions:
REMARK  status: ('A' for Active; 'I' for Inactive)
REMARK    1  A    between atoms: C_11  and  S_12
REMARK    2  A    between atoms: S_12  and  C_13
REMARK    3  A    between atoms: C_13  and  C_14
REMARK                            x       y       z     vdW  Elec       q    Type
REMARK                         _______ _______ _______ _____ _____    ______ ____
ROOT
ATOM      1  C   UNL     1      24.557   9.755  36.475  0.00  0.00    +0.000 A 
ATOM      2  C   UNL     1      23.289   9.252  36.306  0.00  0.00    +0.000 A 
ATOM      3  C   UNL     1      22.181   9.894  36.776  0.00  0.00    +0.000 A 
ATOM      4  C   UNL     1      22.339  11.091  37.444  0.00  0.00    +0.000 A 
ATOM      5  C   UNL     1      23.615  11.623  37.628  0.00  0.00    +0.000 A 
ATOM      6  C   UNL     1      24.710  10.941  37.136  0.00  0.00    +0.000 A 
ATOM      7  N   UNL     1      23.459  12.774  38.299  0.00  0.00    +0.000 NA
ATOM      8  C   UNL     1      22.129  12.934  38.514  0.00  0.00    +0.000 A 
ATOM      9  N   UNL     1      21.262  13.799  39.089  0.00  0.00    +0.000 NA
ATOM     10  N   UNL     1      20.050  13.322  38.930  0.00  0.00    +0.000 NA
ATOM     11  C   UNL     1      20.112  12.154  38.258  0.00  0.00    +0.000 A 
ATOM     12  N   UNL     1      21.414  11.931  38.009  0.00  0.00    +0.000 N 
ENDROOT
BRANCH  11  13
ATOM     13  S   UNL     1      18.741  11.106  37.789  0.00  0.00    +0.000 S 
BRANCH  13  14
ATOM     14  C   UNL     1      17.522  12.082  36.885  0.00  0.00    +0.000 C 
BRANCH  14  15
ATOM     15  C   UNL     1      16.494  11.134  36.308  0.00  0.00    +0.000 C 
ATOM     16  C   UNL     1      15.387  11.841  35.585  0.00  0.00    +0.000 C 
ATOM     17  C   UNL     1      15.280  11.418  34.134  0.00  0.00    +0.000 C 
ATOM     18  C   UNL     1      16.613  11.354  33.453  0.00  0.00    +0.000 C 
ATOM     19  C   UNL     1      17.575  10.437  34.164  0.00  0.00    +0.000 C 
ATOM     20  C   UNL     1      17.110  10.014  35.518  0.00  0.00    +0.000 C 
ENDBRANCH  14  15
ENDBRANCH  13  14
ENDBRANCH  11  13
TORSDOF 3
ENDMDL
MODEL 2
REMARK VINA RESULT:      -6.3     21.245     22.715
REMARK  Name = 
REMARK  3 active torsions:
REMARK  status: ('A' for Active; 'I' for Inactive)
REMARK    1  A    between atoms: C_11  and  S_12
REMARK    2  A    between atoms: S_12  and  C_13
REMARK    3  A    between atoms: C_13  and  C_14
REMARK                            x       y       z     vdW  Elec       q    Type
REMARK                         _______ _______ _______ _____ _____    ______ ____
ROOT
ATOM      1  C   UNL     1      22.783  -8.273  24.862  0.00  0.00    +0.000 A 
ATOM      2  C   UNL     1      22.031  -9.206  25.535  0.00  0.00    +0.000 A 
ATOM      3  C   UNL     1      20.833  -8.900  26.113  0.00  0.00    +0.000 A 
ATOM      4  C   UNL     1      20.360  -7.607  26.017  0.00  0.00    +0.000 A 
ATOM      5  C   UNL     1      21.103  -6.641  25.339  0.00  0.00    +0.000 A 
ATOM      6  C   UNL     1      22.311  -6.994  24.769  0.00  0.00    +0.000 A 
ATOM      7  N   UNL     1      20.405  -5.498  25.409  0.00  0.00    +0.000 NA
ATOM      8  C   UNL     1      19.272  -5.764  26.108  0.00  0.00    +0.000 A 
ATOM      9  N   UNL     1      18.155  -5.148  26.556  0.00  0.00    +0.000 NA
ATOM     10  N   UNL     1      17.435  -6.036  27.199  0.00  0.00    +0.000 NA
ATOM     11  C   UNL     1      18.067  -7.227  27.179  0.00  0.00    +0.000 A 
ATOM     12  N   UNL     1      19.209  -7.036  26.495  0.00  0.00    +0.000 N 
ENDROOT
BRANCH  11  13
ATOM     13  S   UNL     1      17.506  -8.759  27.912  0.00  0.00    +0.000 S 
BRANCH  13  14
ATOM     14  C   UNL     1      18.715  -9.320  29.128  0.00  0.00    +0.000 C 
BRANCH  14  15
ATOM     15  C   UNL     1      18.542 -10.812  29.310  0.00  0.00    +0.000 C 
ATOM     16  C   UNL     1      18.248 -11.528  28.026  0.00  0.00    +0.000 C 
ATOM     17  C   UNL     1      19.280 -12.592  27.707  0.00  0.00    +0.000 C 
ATOM     18  C   UNL     1      20.683 -12.114  27.920  0.00  0.00    +0.000 C 
ATOM     19  C   UNL     1      20.909 -11.614  29.324  0.00  0.00    +0.000 C 
ATOM     20  C   UNL     1      19.651 -11.437  30.108  0.00  0.00    +0.000 C 
ENDBRANCH  14  15
ENDBRANCH  13  14
ENDBRANCH  11  13
TORSDOF 3
ENDMDL
MODEL 3
REMARK VINA RESULT:      -6.3     21.261     22.638
REMARK  Name = 
REMARK  3 active torsions:
REMARK  status: ('A' for Active; 'I' for Inactive)
REMARK    1  A    between atoms: C_11  and  S_12
REMARK    2  A    between atoms: S_12  and  C_13
REMARK    3  A    between atoms: C_13  and  C_14
REMARK                            x       y       z     vdW  Elec       q    Type
REMARK                         _______ _______ _______ _____ _____    ______ ____
ROOT
ATOM      1  C   UNL     1      22.760  -8.228  24.718  0.00  0.00    +0.000 A 
ATOM      2  C   UNL     1      22.033  -9.175  25.400  0.00  0.00    +0.000 A 
ATOM      3  C   UNL     1      20.852  -8.884  26.017  0.00  0.00    +0.000 A 
ATOM      4  C   UNL     1      20.369  -7.593  25.955  0.00  0.00    +0.000 A 
ATOM      5  C   UNL     1      21.087  -6.613  25.270  0.00  0.00    +0.000 A 
ATOM      6  C   UNL     1      22.279  -6.950  24.658  0.00  0.00    +0.000 A 
ATOM      7  N   UNL     1      20.386  -5.475  25.378  0.00  0.00    +0.000 NA
ATOM      8  C   UNL     1      19.276  -5.757  26.106  0.00  0.00    +0.000 A 
ATOM      9  N   UNL     1      18.170  -5.155  26.597  0.00  0.00    +0.000 NA
ATOM     10  N   UNL     1      17.473  -6.056  27.248  0.00  0.00    +0.000 NA
ATOM     11  C   UNL     1      18.111  -7.243  27.191  0.00  0.00    +0.000 A 
ATOM     12  N   UNL     1      19.231  -7.035  26.476  0.00  0.00    +0.000 N 
ENDROOT
BRANCH  11  13
ATOM     13  S   UNL     1      17.580  -8.789  27.918  0.00  0.00    +0.000 S 
BRANCH  13  14
ATOM     14  C   UNL     1      16.376  -9.579  26.832  0.00  0.00    +0.000 C 
BRANCH  14  15
ATOM     15  C   UNL     1      16.525  -8.982  25.450  0.00  0.00    +0.000 C 
ATOM     16  C   UNL     1      17.337  -9.839  24.526  0.00  0.00    +0.000 C 
ATOM     17  C   UNL     1      16.565 -10.250  23.289  0.00  0.00    +0.000 C 
ATOM     18  C   UNL     1      15.174 -10.709  23.605  0.00  0.00    +0.000 C 
ATOM     19  C   UNL     1      14.385  -9.666  24.354  0.00  0.00    +0.000 C 
ATOM     20  C   UNL     1      15.216  -8.535  24.862  0.00  0.00    +0.000 C 
ENDBRANCH  14  15
ENDBRANCH  13  14
ENDBRANCH  11  13
TORSDOF 3
ENDMDL
MODEL 4
REMARK VINA RESULT:      -6.2     21.523     23.431
REMARK  Name = 
REMARK  3 active torsions:
REMARK  status: ('A' for Active; 'I' for Inactive)
REMARK    1  A    between atoms: C_11  and  S_12
REMARK    2  A    between atoms: S_12  and  C_13
REMARK    3  A    between atoms: C_13  and  C_14
REMARK                            x       y       z     vdW  Elec       q    Type
REMARK                         _______ _______ _______ _____ _____    ______ ____
ROOT
ATOM      1  C   UNL     1      18.404  -5.164  26.561  0.00  0.00    +0.000 A 
ATOM      2  C   UNL     1      19.609  -5.292  25.910  0.00  0.00    +0.000 A 
ATOM      3  C   UNL     1      20.292  -6.472  25.868  0.00  0.00    +0.000 A 
ATOM      4  C   UNL     1      19.756  -7.575  26.500  0.00  0.00    +0.000 A 
ATOM      5  C   UNL     1      18.535  -7.471  27.167  0.00  0.00    +0.000 A 
ATOM      6  C   UNL     1      17.875  -6.258  27.185  0.00  0.00    +0.000 A 
ATOM      7  N   UNL     1      18.270  -8.683  27.677  0.00  0.00    +0.000 NA
ATOM      8  C   UNL     1      19.298  -9.497  27.328  0.00  0.00    +0.000 A 
ATOM      9  N   UNL     1      19.710 -10.777  27.472  0.00  0.00    +0.000 NA
ATOM     10  N   UNL     1      20.860 -10.904  26.853  0.00  0.00    +0.000 NA
ATOM     11  C   UNL     1      21.207  -9.721  26.305  0.00  0.00    +0.000 A 
ATOM     12  N   UNL     1      20.222  -8.859  26.613  0.00  0.00    +0.000 N 
ENDROOT
BRANCH  11  13
ATOM     13  S   UNL     1      22.681  -9.364  25.357  0.00  0.00    +0.000 S 
BRANCH  13  14
ATOM     14  C   UNL     1      22.263  -9.291  23.604  0.00  0.00    +0.000 C 
BRANCH  14  15
ATOM     15  C   UNL     1      22.766  -7.974  23.054  0.00  0.00    +0.000 C 
ATOM     16  C   UNL     1      23.380  -7.098  24.104  0.00  0.00    +0.000 C 
ATOM     17  C   UNL     1      24.823  -6.752  23.799  0.00  0.00    +0.000 C 
ATOM     18  C   UNL     1      25.616  -7.940  23.348  0.00  0.00    +0.000 C 
ATOM     19  C   UNL     1      25.006  -8.611  22.145  0.00  0.00    +0.000 C 
ATOM     20  C   UNL     1      23.624  -8.141  21.831  0.00  0.00    +0.000 C 
ENDBRANCH  14  15
ENDBRANCH  13  14
ENDBRANCH  11  13
TORSDOF 3
ENDMDL
MODEL 5
REMARK VINA RESULT:      -6.2     15.527     17.724
REMARK  Name = 
REMARK  3 active torsions:
REMARK  status: ('A' for Active; 'I' for Inactive)
REMARK    1  A    between atoms: C_11  and  S_12
REMARK    2  A    between atoms: S_12  and  C_13
REMARK    3  A    between atoms: C_13  and  C_14
REMARK                            x       y       z     vdW  Elec       q    Type
REMARK                         _______ _______ _______ _____ _____    ______ ____
ROOT
ATOM      1  C   UNL     1      33.885  -2.240  34.847  0.00  0.00    +0.000 A 
ATOM      2  C   UNL     1      33.952  -1.503  36.006  0.00  0.00    +0.000 A 
ATOM      3  C   UNL     1      33.937  -0.138  36.005  0.00  0.00    +0.000 A 
ATOM      4  C   UNL     1      33.849   0.525  34.799  0.00  0.00    +0.000 A 
ATOM      5  C   UNL     1      33.779  -0.199  33.609  0.00  0.00    +0.000 A 
ATOM      6  C   UNL     1      33.798  -1.579  33.654  0.00  0.00    +0.000 A 
ATOM      7  N   UNL     1      33.704   0.699  32.615  0.00  0.00    +0.000 NA
ATOM      8  C   UNL     1      33.726   1.929  33.186  0.00  0.00    +0.000 A 
ATOM      9  N   UNL     1      33.690   3.237  32.846  0.00  0.00    +0.000 NA
ATOM     10  N   UNL     1      33.754   3.944  33.950  0.00  0.00    +0.000 NA
ATOM     11  C   UNL     1      33.834   3.114  35.010  0.00  0.00    +0.000 A 
ATOM     12  N   UNL     1      33.815   1.865  34.513  0.00  0.00    +0.000 N 
ENDROOT
BRANCH  11  13
ATOM     13  S   UNL     1      33.942   3.576  36.735  0.00  0.00    +0.000 S 
BRANCH  13  14
ATOM     14  C   UNL     1      33.603   5.339  36.906  0.00  0.00    +0.000 C 
BRANCH  14  15
ATOM     15  C   UNL     1      34.887   6.028  37.313  0.00  0.00    +0.000 C 
ATOM     16  C   UNL     1      35.990   5.066  37.637  0.00  0.00    +0.000 C 
ATOM     17  C   UNL     1      37.211   5.267  36.762  0.00  0.00    +0.000 C 
ATOM     18  C   UNL     1      36.858   5.446  35.317  0.00  0.00    +0.000 C 
ATOM     19  C   UNL     1      35.901   6.589  35.098  0.00  0.00    +0.000 C 
ATOM     20  C   UNL     1      35.296   7.114  36.358  0.00  0.00    +0.000 C 
ENDBRANCH  14  15
ENDBRANCH  13  14
ENDBRANCH  11  13
TORSDOF 3
ENDMDL
MODEL 6
REMARK VINA RESULT:      -6.1     22.588     23.528
REMARK  Name = 
REMARK  3 active torsions:
REMARK  status: ('A' for Active; 'I' for Inactive)
REMARK    1  A    between atoms: C_11  and  S_12
REMARK    2  A    between atoms: S_12  and  C_13
REMARK    3  A    between atoms: C_13  and  C_14
REMARK                            x       y       z     vdW  Elec       q    Type
REMARK                         _______ _______ _______ _____ _____    ______ ____
ROOT
ATOM      1  C   UNL     1      25.783  24.030  25.389  0.00  0.00    +0.000 A 
ATOM      2  C   UNL     1      25.753  25.353  25.015  0.00  0.00    +0.000 A 
ATOM      3  C   UNL     1      26.512  25.839  23.991  0.00  0.00    +0.000 A 
ATOM      4  C   UNL     1      27.339  24.972  23.306  0.00  0.00    +0.000 A 
ATOM      5  C   UNL     1      27.387  23.626  23.665  0.00  0.00    +0.000 A 
ATOM      6  C   UNL     1      26.602  23.174  24.707  0.00  0.00    +0.000 A 
ATOM      7  N   UNL     1      28.263  23.038  22.837  0.00  0.00    +0.000 NA
ATOM      8  C   UNL     1      28.731  23.999  22.001  0.00  0.00    +0.000 A 
ATOM      9  N   UNL     1      29.588  24.155  20.967  0.00  0.00    +0.000 NA
ATOM     10  N   UNL     1      29.562  25.417  20.608  0.00  0.00    +0.000 NA
ATOM     11  C   UNL     1      28.699  26.090  21.395  0.00  0.00    +0.000 A 
ATOM     12  N   UNL     1      28.193  25.189  22.256  0.00  0.00    +0.000 N 
ENDROOT
BRANCH  11  13
ATOM     13  S   UNL     1      28.302  27.833  21.317  0.00  0.00    +0.000 S 
BRANCH  13  14
ATOM     14  C   UNL     1      27.806  28.259  19.636  0.00  0.00    +0.000 C 
BRANCH  14  15
ATOM     15  C   UNL     1      28.872  29.154  19.043  0.00  0.00    +0.000 C 
ATOM     16  C   UNL     1      30.245  28.852  19.564  0.00  0.00    +0.000 C 
ATOM     17  C   UNL     1      31.214  28.475  18.461  0.00  0.00    +0.000 C 
ATOM     18  C   UNL     1      30.622  27.506  17.483  0.00  0.00    +0.000 C 
ATOM     19  C   UNL     1      29.349  28.023  16.865  0.00  0.00    +0.000 C 
ATOM     20  C   UNL     1      28.801  29.234  17.544  0.00  0.00    +0.000 C 
ENDBRANCH  14  15
ENDBRANCH  13  14
ENDBRANCH  11  13
TORSDOF 3
ENDMDL
MODEL 7
REMARK VINA RESULT:      -6.1     18.454     19.366
REMARK  Name = 
REMARK  3 active torsions:
REMARK  status: ('A' for Active; 'I' for Inactive)
REMARK    1  A    between atoms: C_11  and  S_12
REMARK    2  A    between atoms: S_12  and  C_13
REMARK    3  A    between atoms: C_13  and  C_14
REMARK                            x       y       z     vdW  Elec       q    Type
REMARK                         _______ _______ _______ _____ _____    ______ ____
ROOT
ATOM      1  C   UNL     1      30.385  22.292  27.307  0.00  0.00    +0.000 A 
ATOM      2  C   UNL     1      29.019  22.177  27.197  0.00  0.00    +0.000 A 
ATOM      3  C   UNL     1      28.347  22.533  26.064  0.00  0.00    +0.000 A 
ATOM      4  C   UNL     1      29.063  23.025  24.992  0.00  0.00    +0.000 A 
ATOM      5  C   UNL     1      30.449  23.151  25.079  0.00  0.00    +0.000 A 
ATOM      6  C   UNL     1      31.091  22.778  26.244  0.00  0.00    +0.000 A 
ATOM      7  N   UNL     1      30.865  23.647  23.904  0.00  0.00    +0.000 NA
ATOM      8  C   UNL     1      29.765  23.816  23.129  0.00  0.00    +0.000 A 
ATOM      9  N   UNL     1      29.414  24.247  21.897  0.00  0.00    +0.000 NA
ATOM     10  N   UNL     1      28.110  24.140  21.787  0.00  0.00    +0.000 NA
ATOM     11  C   UNL     1      27.603  23.644  22.934  0.00  0.00    +0.000 A 
ATOM     12  N   UNL     1      28.649  23.449  23.756  0.00  0.00    +0.000 N 
ENDROOT
BRANCH  11  13
ATOM     13  S   UNL     1      25.884  23.308  23.296  0.00  0.00    +0.000 S 
BRANCH  13  14
ATOM     14  C   UNL     1      25.485  23.932  24.941  0.00  0.00    +0.000 C 
BRANCH  14  15
ATOM     15  C   UNL     1      25.599  25.440  24.913  0.00  0.00    +0.000 C 
ATOM     16  C   UNL     1      24.311  26.131  25.246  0.00  0.00    +0.000 C 
ATOM     17  C   UNL     1      24.437  27.039  26.454  0.00  0.00    +0.000 C 
ATOM     18  C   UNL     1      25.183  26.395  27.582  0.00  0.00    +0.000 C 
ATOM     19  C   UNL     1      26.556  25.932  27.169  0.00  0.00    +0.000 C 
ATOM     20  C   UNL     1      26.777  25.952  25.693  0.00  0.00    +0.000 C 
ENDBRANCH  14  15
ENDBRANCH  13  14
ENDBRANCH  11  13
TORSDOF 3
ENDMDL
MODEL 8
REMARK VINA RESULT:      -6.0     17.762     18.901
REMARK  Name = 
REMARK  3 active torsions:
REMARK  status: ('A' for Active; 'I' for Inactive)
REMARK    1  A    between atoms: C_11  and  S_12
REMARK    2  A    between atoms: S_12  and  C_13
REMARK    3  A    between atoms: C_13  and  C_14
REMARK                            x       y       z     vdW  Elec       q    Type
REMARK                         _______ _______ _______ _____ _____    ______ ____
ROOT
ATOM      1  C   UNL     1      23.953  26.442  29.335  0.00  0.00    +0.000 A 
ATOM      2  C   UNL     1      23.666  26.263  28.003  0.00  0.00    +0.000 A 
ATOM      3  C   UNL     1      24.358  25.387  27.218  0.00  0.00    +0.000 A 
ATOM      4  C   UNL     1      25.383  24.656  27.782  0.00  0.00    +0.000 A 
ATOM      5  C   UNL     1      25.694  24.819  29.132  0.00  0.00    +0.000 A 
ATOM      6  C   UNL     1      24.968  25.716  29.891  0.00  0.00    +0.000 A 
ATOM      7  N   UNL     1      26.716  23.991  29.394  0.00  0.00    +0.000 NA
ATOM      8  C   UNL     1      27.014  23.345  28.238  0.00  0.00    +0.000 A 
ATOM      9  N   UNL     1      27.872  22.420  27.752  0.00  0.00    +0.000 NA
ATOM     10  N   UNL     1      27.601  22.246  26.480  0.00  0.00    +0.000 NA
ATOM     11  C   UNL     1      26.576  23.048  26.127  0.00  0.00    +0.000 A 
ATOM     12  N   UNL     1      26.226  23.723  27.235  0.00  0.00    +0.000 N 
ENDROOT
BRANCH  11  13
ATOM     13  S   UNL     1      25.826  23.189  24.508  0.00  0.00    +0.000 S 
BRANCH  13  14
ATOM     14  C   UNL     1      26.470  24.653  23.675  0.00  0.00    +0.000 C 
BRANCH  14  15
ATOM     15  C   UNL     1      27.252  24.198  22.462  0.00  0.00    +0.000 C 
ATOM     16  C   UNL     1      27.671  25.333  21.576  0.00  0.00    +0.000 C 
ATOM     17  C   UNL     1      29.175  25.408  21.404  0.00  0.00    +0.000 C 
ATOM     18  C   UNL     1      29.911  25.239  22.698  0.00  0.00    +0.000 C 
ATOM     19  C   UNL     1      29.558  23.949  23.392  0.00  0.00    +0.000 C 
ATOM     20  C   UNL     1      28.371  23.257  22.807  0.00  0.00    +0.000 C 
ENDBRANCH  14  15
ENDBRANCH  13  14
ENDBRANCH  11  13
TORSDOF 3
ENDMDL
MODEL 9
REMARK VINA RESULT:      -5.9     19.232     20.537
REMARK  Name = 
REMARK  3 active torsions:
REMARK  status: ('A' for Active; 'I' for Inactive)
REMARK    1  A    between atoms: C_11  and  S_12
REMARK    2  A    between atoms: S_12  and  C_13
REMARK    3  A    between atoms: C_13  and  C_14
REMARK                            x       y       z     vdW  Elec       q    Type
REMARK                         _______ _______ _______ _____ _____    ______ ____
ROOT
ATOM      1  C   UNL     1      29.328  28.163  23.400  0.00  0.00    +0.000 A 
ATOM      2  C   UNL     1      28.882  27.634  24.587  0.00  0.00    +0.000 A 
ATOM      3  C   UNL     1      28.127  26.498  24.642  0.00  0.00    +0.000 A 
ATOM      4  C   UNL     1      27.800  25.859  23.463  0.00  0.00    +0.000 A 
ATOM      5  C   UNL     1      28.240  26.376  22.245  0.00  0.00    +0.000 A 
ATOM      6  C   UNL     1      29.003  27.528  22.234  0.00  0.00    +0.000 A 
ATOM      7  N   UNL     1      27.777  25.558  21.289  0.00  0.00    +0.000 NA
ATOM      8  C   UNL     1      27.077  24.574  21.909  0.00  0.00    +0.000 A 
ATOM      9  N   UNL     1      26.365  23.462  21.623  0.00  0.00    +0.000 NA
ATOM     10  N   UNL     1      25.937  22.953  22.754  0.00  0.00    +0.000 NA
ATOM     11  C   UNL     1      26.360  23.720  23.779  0.00  0.00    +0.000 A 
ATOM     12  N   UNL     1      27.068  24.724  23.232  0.00  0.00    +0.000 N 
ENDROOT
BRANCH  11  13
ATOM     13  S   UNL     1      26.048  23.460  25.521  0.00  0.00    +0.000 S 
BRANCH  13  14
ATOM     14  C   UNL     1      27.400  22.505  26.237  0.00  0.00    +0.000 C 
BRANCH  14  15
ATOM     15  C   UNL     1      28.457  23.474  26.720  0.00  0.00    +0.000 C 
ATOM     16  C   UNL     1      28.822  23.271  28.160  0.00  0.00    +0.000 C 
ATOM     17  C   UNL     1      30.295  22.965  28.346  0.00  0.00    +0.000 C 
ATOM     18  C   UNL     1      30.801  21.956  27.361  0.00  0.00    +0.000 C 
ATOM     19  C   UNL     1      30.563  22.380  25.935  0.00  0.00    +0.000 C 
ATOM     20  C   UNL     1      29.644  23.549  25.801  0.00  0.00    +0.000 C 
ENDBRANCH  14  15
ENDBRANCH  13  14
ENDBRANCH  11  13
TORSDOF 3
ENDMDL
MODEL 10
REMARK VINA RESULT:      -5.9     16.165     18.149
REMARK  Name = 
REMARK  3 active torsions:
REMARK  status: ('A' for Active; 'I' for Inactive)
REMARK    1  A    between atoms: C_11  and  S_12
REMARK    2  A    between atoms: S_12  and  C_13
REMARK    3  A    between atoms: C_13  and  C_14
REMARK                            x       y       z     vdW  Elec       q    Type
REMARK                         _______ _______ _______ _____ _____    ______ ____
ROOT
ATOM      1  C   UNL     1      30.284  22.665  24.365  0.00  0.00    +0.000 A 
ATOM      2  C   UNL     1      30.872  22.496  25.596  0.00  0.00    +0.000 A 
ATOM      3  C   UNL     1      30.177  22.637  26.762  0.00  0.00    +0.000 A 
ATOM      4  C   UNL     1      28.837  22.961  26.703  0.00  0.00    +0.000 A 
ATOM      5  C   UNL     1      28.217  23.138  25.466  0.00  0.00    +0.000 A 
ATOM      6  C   UNL     1      28.956  22.985  24.310  0.00  0.00    +0.000 A 
ATOM      7  N   UNL     1      26.935  23.441  25.718  0.00  0.00    +0.000 NA
ATOM      8  C   UNL     1      26.783  23.446  27.066  0.00  0.00    +0.000 A 
ATOM      9  N   UNL     1      25.835  23.654  28.008  0.00  0.00    +0.000 NA
ATOM     10  N   UNL     1      26.393  23.494  29.185  0.00  0.00    +0.000 NA
ATOM     11  C   UNL     1      27.695  23.184  29.026  0.00  0.00    +0.000 A 
ATOM     12  N   UNL     1      27.918  23.160  27.700  0.00  0.00    +0.000 N 
ENDROOT
BRANCH  11  13
ATOM     13  S   UNL     1      28.894  22.867  30.315  0.00  0.00    +0.000 S 
BRANCH  13  14
ATOM     14  C   UNL     1      30.260  24.035  30.165  0.00  0.00    +0.000 C 
BRANCH  14  15
ATOM     15  C   UNL     1      31.438  23.485  30.938  0.00  0.00    +0.000 C 
ATOM     16  C   UNL     1      31.246  22.058  31.359  0.00  0.00    +0.000 C 
ATOM     17  C   UNL     1      32.324  21.144  30.812  0.00  0.00    +0.000 C 
ATOM     18  C   UNL     1      32.615  21.399  29.365  0.00  0.00    +0.000 C 
ATOM     19  C   UNL     1      33.006  22.831  29.104  0.00  0.00    +0.000 C 
ATOM     20  C   UNL     1      32.754  23.742  30.260  0.00  0.00    +0.000 C 
ENDBRANCH  14  15
ENDBRANCH  13  14
ENDBRANCH  11  13
TORSDOF 3
ENDMDL
