MODEL 1
REMARK VINA RESULT:      -7.3      0.000      0.000
REMARK  Name = 
REMARK  2 active torsions:
REMARK  status: ('A' for Active; 'I' for Inactive)
REMARK    1  A    between atoms: C_5  and  C_6
REMARK    2  A    between atoms: N_11  and  C_12
REMARK                            x       y       z     vdW  Elec       q    Type
REMARK                         _______ _______ _______ _____ _____    ______ ____
ROOT
ATOM      1  C   UNL     1      28.861  23.911  23.260  0.00  0.00    +0.000 A 
ATOM      2  C   UNL     1      28.679  23.871  21.894  0.00  0.00    +0.000 A 
ATOM      3  O   UNL     1      29.612  24.242  20.935  0.00  0.00    +0.000 OA
ATOM      4  O   UNL     1      27.455  23.417  21.640  0.00  0.00    +0.000 OA
ATOM      5  N   UNL     1      26.882  23.177  22.783  0.00  0.00    +0.000 NA
ATOM      6  N   UNL     1      27.713  23.469  23.791  0.00  0.00    +0.000 N 
ENDROOT
BRANCH   1  11
ATOM      7  C   UNL     1      33.597  25.629  26.079  0.00  0.00    +0.000 C 
ATOM      8  C   UNL     1      32.373  25.188  25.352  0.00  0.00    +0.000 A 
ATOM      9  C   UNL     1      32.242  23.898  24.878  0.00  0.00    +0.000 A 
ATOM     10  C   UNL     1      31.111  23.483  24.204  0.00  0.00    +0.000 A 
ATOM     11  C   UNL     1      30.060  24.347  23.973  0.00  0.00    +0.000 A 
ATOM     12  C   UNL     1      30.194  25.636  24.447  0.00  0.00    +0.000 A 
ATOM     13  C   UNL     1      31.324  26.050  25.122  0.00  0.00    +0.000 A 
ENDBRANCH   1  11
BRANCH   6  14
ATOM     14  C   UNL     1      27.465  23.347  25.191  0.00  0.00    +0.000 A 
ATOM     15  C   UNL     1      26.480  24.103  25.819  0.00  0.00    +0.000 A 
ATOM     16  C   UNL     1      26.223  24.002  27.171  0.00  0.00    +0.000 A 
ATOM     17  C   UNL     1      26.950  23.131  27.955  0.00  0.00    +0.000 A 
ATOM     18  C   UNL     1      26.737  22.967  29.399  0.00  0.00    +0.000 C 
ATOM     19  C   UNL     1      27.940  22.369  27.342  0.00  0.00    +0.000 A 
ATOM     20  C   UNL     1      28.184  22.481  25.990  0.00  0.00    +0.000 A 
ENDBRANCH   6  14
TORSDOF 2
ENDMDL
MODEL 2
REMARK VINA RESULT:      -7.0      1.258      4.931
REMARK  Name = 
REMARK  2 active torsions:
REMARK  status: ('A' for Active; 'I' for Inactive)
REMARK    1  A    between atoms: C_5  and  C_6
REMARK    2  A    between atoms: N_11  and  C_12
REMARK                            x       y       z     vdW  Elec       q    Type
REMARK                         _______ _______ _______ _____ _____    ______ ____
ROOT
ATOM      1  C   UNL     1      26.886  23.407  23.941  0.00  0.00    +0.000 A 
ATOM      2  C   UNL     1      25.892  23.188  23.011  0.00  0.00    +0.000 A 
ATOM      3  O   UNL     1      24.556  22.934  23.289  0.00  0.00    +0.000 OA
ATOM      4  O   UNL     1      26.425  23.257  21.793  0.00  0.00    +0.000 OA
ATOM      5  N   UNL     1      27.693  23.509  21.936  0.00  0.00    +0.000 NA
ATOM      6  N   UNL     1      28.007  23.606  23.233  0.00  0.00    +0.000 N 
ENDROOT
BRANCH   1  11
ATOM      7  C   UNL     1      26.309  23.458  29.685  0.00  0.00    +0.000 C 
ATOM      8  C   UNL     1      26.460  23.443  28.202  0.00  0.00    +0.000 A 
ATOM      9  C   UNL     1      25.727  24.290  27.394  0.00  0.00    +0.000 A 
ATOM     10  C   UNL     1      25.862  24.281  26.021  0.00  0.00    +0.000 A 
ATOM     11  C   UNL     1      26.740  23.419  25.395  0.00  0.00    +0.000 A 
ATOM     12  C   UNL     1      27.470  22.574  26.204  0.00  0.00    +0.000 A 
ATOM     13  C   UNL     1      27.336  22.583  27.577  0.00  0.00    +0.000 A 
ENDBRANCH   1  11
BRANCH   6  14
ATOM     14  C   UNL     1      29.287  23.871  23.806  0.00  0.00    +0.000 A 
ATOM     15  C   UNL     1      29.700  25.171  24.079  0.00  0.00    +0.000 A 
ATOM     16  C   UNL     1      30.933  25.451  24.633  0.00  0.00    +0.000 A 
ATOM     17  C   UNL     1      31.807  24.429  24.938  0.00  0.00    +0.000 A 
ATOM     18  C   UNL     1      33.135  24.646  25.529  0.00  0.00    +0.000 C 
ATOM     19  C   UNL     1      31.408  23.123  24.671  0.00  0.00    +0.000 A 
ATOM     20  C   UNL     1      30.173  22.861  24.117  0.00  0.00    +0.000 A 
ENDBRANCH   6  14
TORSDOF 2
ENDMDL
MODEL 3
REMARK VINA RESULT:      -6.3     19.214     21.289
REMARK  Name = 
REMARK  2 active torsions:
REMARK  status: ('A' for Active; 'I' for Inactive)
REMARK    1  A    between atoms: C_5  and  C_6
REMARK    2  A    between atoms: N_11  and  C_12
REMARK                            x       y       z     vdW  Elec       q    Type
REMARK                         _______ _______ _______ _____ _____    ______ ____
ROOT
ATOM      1  C   UNL     1      19.142  10.150  38.940  0.00  0.00    +0.000 A 
ATOM      2  C   UNL     1      18.961   9.924  40.288  0.00  0.00    +0.000 A 
ATOM      3  O   UNL     1      19.959   9.899  41.253  0.00  0.00    +0.000 OA
ATOM      4  O   UNL     1      17.664   9.731  40.517  0.00  0.00    +0.000 OA
ATOM      5  N   UNL     1      17.047   9.830  39.377  0.00  0.00    +0.000 NA
ATOM      6  N   UNL     1      17.919  10.084  38.394  0.00  0.00    +0.000 N 
ENDROOT
BRANCH   1  11
ATOM      7  C   UNL     1      24.140  11.160  36.234  0.00  0.00    +0.000 C 
ATOM      8  C   UNL     1      22.850  10.902  36.934  0.00  0.00    +0.000 A 
ATOM      9  C   UNL     1      22.110   9.764  36.684  0.00  0.00    +0.000 A 
ATOM     10  C   UNL     1      20.915   9.518  37.329  0.00  0.00    +0.000 A 
ATOM     11  C   UNL     1      20.407  10.406  38.255  0.00  0.00    +0.000 A 
ATOM     12  C   UNL     1      21.148  11.543  38.503  0.00  0.00    +0.000 A 
ATOM     13  C   UNL     1      22.344  11.788  37.859  0.00  0.00    +0.000 A 
ENDBRANCH   1  11
BRANCH   6  14
ATOM     14  C   UNL     1      17.645  10.260  37.005  0.00  0.00    +0.000 A 
ATOM     15  C   UNL     1      17.757   9.203  36.107  0.00  0.00    +0.000 A 
ATOM     16  C   UNL     1      17.496   9.349  34.760  0.00  0.00    +0.000 A 
ATOM     17  C   UNL     1      17.109  10.574  34.255  0.00  0.00    +0.000 A 
ATOM     18  C   UNL     1      16.815  10.810  32.835  0.00  0.00    +0.000 C 
ATOM     19  C   UNL     1      16.993  11.641  35.140  0.00  0.00    +0.000 A 
ATOM     20  C   UNL     1      17.257  11.477  36.484  0.00  0.00    +0.000 A 
ENDBRANCH   6  14
TORSDOF 2
ENDMDL
MODEL 4
REMARK VINA RESULT:      -6.1     20.703     22.729
REMARK  Name = 
REMARK  2 active torsions:
REMARK  status: ('A' for Active; 'I' for Inactive)
REMARK    1  A    between atoms: C_5  and  C_6
REMARK    2  A    between atoms: N_11  and  C_12
REMARK                            x       y       z     vdW  Elec       q    Type
REMARK                         _______ _______ _______ _____ _____    ______ ____
ROOT
ATOM      1  C   UNL     1      20.284   9.781  38.125  0.00  0.00    +0.000 A 
ATOM      2  C   UNL     1      21.613   9.935  37.794  0.00  0.00    +0.000 A 
ATOM      3  O   UNL     1      22.104  10.554  36.652  0.00  0.00    +0.000 OA
ATOM      4  O   UNL     1      22.357   9.391  38.754  0.00  0.00    +0.000 OA
ATOM      5  N   UNL     1      21.547   8.913  39.653  0.00  0.00    +0.000 NA
ATOM      6  N   UNL     1      20.275   9.134  39.299  0.00  0.00    +0.000 N 
ENDROOT
BRANCH   1  11
ATOM      7  C   UNL     1      15.721  11.561  35.068  0.00  0.00    +0.000 C 
ATOM      8  C   UNL     1      16.899  11.099  35.856  0.00  0.00    +0.000 A 
ATOM      9  C   UNL     1      17.429  11.864  36.876  0.00  0.00    +0.000 A 
ATOM     10  C   UNL     1      18.519  11.442  37.610  0.00  0.00    +0.000 A 
ATOM     11  C   UNL     1      19.129  10.231  37.350  0.00  0.00    +0.000 A 
ATOM     12  C   UNL     1      18.599   9.469  36.330  0.00  0.00    +0.000 A 
ATOM     13  C   UNL     1      17.508   9.891  35.597  0.00  0.00    +0.000 A 
ENDBRANCH   1  11
BRANCH   6  14
ATOM     14  C   UNL     1      19.093   8.767  40.009  0.00  0.00    +0.000 A 
ATOM     15  C   UNL     1      18.576   7.478  39.932  0.00  0.00    +0.000 A 
ATOM     16  C   UNL     1      17.435   7.100  40.610  0.00  0.00    +0.000 A 
ATOM     17  C   UNL     1      16.762   8.008  41.400  0.00  0.00    +0.000 A 
ATOM     18  C   UNL     1      15.541   7.683  42.152  0.00  0.00    +0.000 C 
ATOM     19  C   UNL     1      17.266   9.302  41.487  0.00  0.00    +0.000 A 
ATOM     20  C   UNL     1      18.408   9.663  40.803  0.00  0.00    +0.000 A 
ENDBRANCH   6  14
TORSDOF 2
ENDMDL
MODEL 5
REMARK VINA RESULT:      -6.0     20.803     22.991
REMARK  Name = 
REMARK  2 active torsions:
REMARK  status: ('A' for Active; 'I' for Inactive)
REMARK    1  A    between atoms: C_5  and  C_6
REMARK    2  A    between atoms: N_11  and  C_12
REMARK                            x       y       z     vdW  Elec       q    Type
REMARK                         _______ _______ _______ _____ _____    ______ ____
ROOT
ATOM      1  C   UNL     1      20.066   9.358  38.874  0.00  0.00    +0.000 A 
ATOM      2  C   UNL     1      21.402   9.168  39.155  0.00  0.00    +0.000 A 
ATOM      3  O   UNL     1      21.917   8.522  40.271  0.00  0.00    +0.000 OA
ATOM      4  O   UNL     1      22.124   9.709  38.177  0.00  0.00    +0.000 OA
ATOM      5  N   UNL     1      21.295  10.218  37.314  0.00  0.00    +0.000 NA
ATOM      6  N   UNL     1      20.032  10.021  37.710  0.00  0.00    +0.000 N 
ENDROOT
BRANCH   1  11
ATOM      7  C   UNL     1      15.572   7.641  42.066  0.00  0.00    +0.000 C 
ATOM      8  C   UNL     1      16.731   8.087  41.243  0.00  0.00    +0.000 A 
ATOM      9  C   UNL     1      17.530   7.182  40.573  0.00  0.00    +0.000 A 
ATOM     10  C   UNL     1      18.605   7.588  39.808  0.00  0.00    +0.000 A 
ATOM     11  C   UNL     1      18.928   8.924  39.682  0.00  0.00    +0.000 A 
ATOM     12  C   UNL     1      18.129   9.827  40.353  0.00  0.00    +0.000 A 
ATOM     13  C   UNL     1      17.053   9.421  41.117  0.00  0.00    +0.000 A 
ENDBRANCH   1  11
BRANCH   6  14
ATOM     14  C   UNL     1      18.835  10.427  37.046  0.00  0.00    +0.000 A 
ATOM     15  C   UNL     1      18.232   9.619  36.087  0.00  0.00    +0.000 A 
ATOM     16  C   UNL     1      17.075   9.990  35.433  0.00  0.00    +0.000 A 
ATOM     17  C   UNL     1      16.469  11.196  35.720  0.00  0.00    +0.000 A 
ATOM     18  C   UNL     1      15.238  11.661  35.067  0.00  0.00    +0.000 C 
ATOM     19  C   UNL     1      17.060  12.015  36.677  0.00  0.00    +0.000 A 
ATOM     20  C   UNL     1      18.217  11.629  37.321  0.00  0.00    +0.000 A 
ENDBRANCH   6  14
TORSDOF 2
ENDMDL
MODEL 6
REMARK VINA RESULT:      -6.0     19.372     21.843
REMARK  Name = 
REMARK  2 active torsions:
REMARK  status: ('A' for Active; 'I' for Inactive)
REMARK    1  A    between atoms: C_5  and  C_6
REMARK    2  A    between atoms: N_11  and  C_12
REMARK                            x       y       z     vdW  Elec       q    Type
REMARK                         _______ _______ _______ _____ _____    ______ ____
ROOT
ATOM      1  C   UNL     1      18.403  10.058  39.045  0.00  0.00    +0.000 A 
ATOM      2  C   UNL     1      17.579   9.786  40.116  0.00  0.00    +0.000 A 
ATOM      3  O   UNL     1      16.201   9.625  40.066  0.00  0.00    +0.000 OA
ATOM      4  O   UNL     1      18.324   9.703  41.216  0.00  0.00    +0.000 OA
ATOM      5  N   UNL     1      19.560   9.910  40.867  0.00  0.00    +0.000 NA
ATOM      6  N   UNL     1      19.643  10.130  39.550  0.00  0.00    +0.000 N 
ENDROOT
BRANCH   1  11
ATOM      7  C   UNL     1      16.813  10.743  33.537  0.00  0.00    +0.000 C 
ATOM      8  C   UNL     1      17.225  10.563  34.958  0.00  0.00    +0.000 A 
ATOM      9  C   UNL     1      17.074  11.576  35.885  0.00  0.00    +0.000 A 
ATOM     10  C   UNL     1      17.452  11.416  37.203  0.00  0.00    +0.000 A 
ATOM     11  C   UNL     1      18.001  10.231  37.650  0.00  0.00    +0.000 A 
ATOM     12  C   UNL     1      18.151   9.221  36.722  0.00  0.00    +0.000 A 
ATOM     13  C   UNL     1      17.772   9.381  35.404  0.00  0.00    +0.000 A 
ENDBRANCH   1  11
BRANCH   6  14
ATOM     14  C   UNL     1      20.814  10.397  38.779  0.00  0.00    +0.000 A 
ATOM     15  C   UNL     1      21.255  11.698  38.563  0.00  0.00    +0.000 A 
ATOM     16  C   UNL     1      22.384  11.981  37.823  0.00  0.00    +0.000 A 
ATOM     17  C   UNL     1      23.124  10.959  37.264  0.00  0.00    +0.000 A 
ATOM     18  C   UNL     1      24.336  11.178  36.463  0.00  0.00    +0.000 C 
ATOM     19  C   UNL     1      22.695   9.651  37.471  0.00  0.00    +0.000 A 
ATOM     20  C   UNL     1      21.564   9.387  38.214  0.00  0.00    +0.000 A 
ENDBRANCH   6  14
TORSDOF 2
ENDMDL
MODEL 7
REMARK VINA RESULT:      -5.9      2.047      4.951
REMARK  Name = 
REMARK  2 active torsions:
REMARK  status: ('A' for Active; 'I' for Inactive)
REMARK    1  A    between atoms: C_5  and  C_6
REMARK    2  A    between atoms: N_11  and  C_12
REMARK                            x       y       z     vdW  Elec       q    Type
REMARK                         _______ _______ _______ _____ _____    ______ ____
ROOT
ATOM      1  C   UNL     1      27.522  23.614  25.076  0.00  0.00    +0.000 A 
ATOM      2  C   UNL     1      26.852  23.464  23.880  0.00  0.00    +0.000 A 
ATOM      3  O   UNL     1      25.508  23.731  23.659  0.00  0.00    +0.000 OA
ATOM      4  O   UNL     1      27.708  23.017  22.966  0.00  0.00    +0.000 OA
ATOM      5  N   UNL     1      28.866  22.888  23.544  0.00  0.00    +0.000 NA
ATOM      6  N   UNL     1      28.787  23.244  24.832  0.00  0.00    +0.000 N 
ENDROOT
BRANCH   1  11
ATOM      7  C   UNL     1      25.313  25.460  30.080  0.00  0.00    +0.000 C 
ATOM      8  C   UNL     1      25.883  24.981  28.789  0.00  0.00    +0.000 A 
ATOM      9  C   UNL     1      26.302  25.865  27.814  0.00  0.00    +0.000 A 
ATOM     10  C   UNL     1      26.831  25.427  26.617  0.00  0.00    +0.000 A 
ATOM     11  C   UNL     1      26.962  24.081  26.343  0.00  0.00    +0.000 A 
ATOM     12  C   UNL     1      26.543  23.200  27.319  0.00  0.00    +0.000 A 
ATOM     13  C   UNL     1      26.015  23.637  28.517  0.00  0.00    +0.000 A 
ENDBRANCH   1  11
BRANCH   6  14
ATOM     14  C   UNL     1      29.830  23.245  25.805  0.00  0.00    +0.000 A 
ATOM     15  C   UNL     1      30.045  22.148  26.635  0.00  0.00    +0.000 A 
ATOM     16  C   UNL     1      31.048  22.126  27.582  0.00  0.00    +0.000 A 
ATOM     17  C   UNL     1      31.883  23.213  27.737  0.00  0.00    +0.000 A 
ATOM     18  C   UNL     1      32.972  23.266  28.722  0.00  0.00    +0.000 C 
ATOM     19  C   UNL     1      31.681  24.317  26.915  0.00  0.00    +0.000 A 
ATOM     20  C   UNL     1      30.675  24.323  25.972  0.00  0.00    +0.000 A 
ENDBRANCH   6  14
TORSDOF 2
ENDMDL
MODEL 8
REMARK VINA RESULT:      -5.9     32.630     34.559
REMARK  Name = 
REMARK  2 active torsions:
REMARK  status: ('A' for Active; 'I' for Inactive)
REMARK    1  A    between atoms: C_5  and  C_6
REMARK    2  A    between atoms: N_11  and  C_12
REMARK                            x       y       z     vdW  Elec       q    Type
REMARK                         _______ _______ _______ _____ _____    ______ ____
ROOT
ATOM      1  C   UNL     1      18.879  -7.179  26.402  0.00  0.00    +0.000 A 
ATOM      2  C   UNL     1      18.592  -5.832  26.471  0.00  0.00    +0.000 A 
ATOM      3  O   UNL     1      17.524  -5.258  27.147  0.00  0.00    +0.000 OA
ATOM      4  O   UNL     1      19.512  -5.165  25.779  0.00  0.00    +0.000 OA
ATOM      5  N   UNL     1      20.345  -6.038  25.293  0.00  0.00    +0.000 NA
ATOM      6  N   UNL     1      19.987  -7.276  25.654  0.00  0.00    +0.000 N 
ENDROOT
BRANCH   1  11
ATOM      7  C   UNL     1      15.903 -11.484  28.839  0.00  0.00    +0.000 C 
ATOM      8  C   UNL     1      16.673 -10.373  28.213  0.00  0.00    +0.000 A 
ATOM      9  C   UNL     1      16.419  -9.960  26.920  0.00  0.00    +0.000 A 
ATOM     10  C   UNL     1      17.128  -8.930  26.333  0.00  0.00    +0.000 A 
ATOM     11  C   UNL     1      18.126  -8.269  27.020  0.00  0.00    +0.000 A 
ATOM     12  C   UNL     1      18.378  -8.684  28.311  0.00  0.00    +0.000 A 
ATOM     13  C   UNL     1      17.669  -9.712  28.898  0.00  0.00    +0.000 A 
ENDBRANCH   1  11
BRANCH   6  14
ATOM     14  C   UNL     1      20.634  -8.505  25.327  0.00  0.00    +0.000 A 
ATOM     15  C   UNL     1      20.307  -9.208  24.172  0.00  0.00    +0.000 A 
ATOM     16  C   UNL     1      20.920 -10.397  23.835  0.00  0.00    +0.000 A 
ATOM     17  C   UNL     1      21.896 -10.933  24.650  0.00  0.00    +0.000 A 
ATOM     18  C   UNL     1      22.593 -12.194  24.360  0.00  0.00    +0.000 C 
ATOM     19  C   UNL     1      22.234 -10.242  25.808  0.00  0.00    +0.000 A 
ATOM     20  C   UNL     1      21.612  -9.054  26.131  0.00  0.00    +0.000 A 
ENDBRANCH   6  14
TORSDOF 2
ENDMDL
MODEL 9
REMARK VINA RESULT:      -5.9      2.345      4.392
REMARK  Name = 
REMARK  2 active torsions:
REMARK  status: ('A' for Active; 'I' for Inactive)
REMARK    1  A    between atoms: C_5  and  C_6
REMARK    2  A    between atoms: N_11  and  C_12
REMARK                            x       y       z     vdW  Elec       q    Type
REMARK                         _______ _______ _______ _____ _____    ______ ____
ROOT
ATOM      1  C   UNL     1      28.301  25.368  22.628  0.00  0.00    +0.000 A 
ATOM      2  C   UNL     1      28.181  25.699  21.295  0.00  0.00    +0.000 A 
ATOM      3  O   UNL     1      27.276  26.604  20.758  0.00  0.00    +0.000 OA
ATOM      4  O   UNL     1      29.079  25.005  20.601  0.00  0.00    +0.000 OA
ATOM      5  N   UNL     1      29.740  24.268  21.445  0.00  0.00    +0.000 NA
ATOM      6  N   UNL     1      29.290  24.466  22.690  0.00  0.00    +0.000 N 
ENDROOT
BRANCH   1  11
ATOM      7  C   UNL     1      25.178  27.451  27.014  0.00  0.00    +0.000 C 
ATOM      8  C   UNL     1      25.982  26.911  25.882  0.00  0.00    +0.000 A 
ATOM      9  C   UNL     1      27.207  27.452  25.545  0.00  0.00    +0.000 A 
ATOM     10  C   UNL     1      27.957  26.957  24.498  0.00  0.00    +0.000 A 
ATOM     11  C   UNL     1      27.509  25.895  23.738  0.00  0.00    +0.000 A 
ATOM     12  C   UNL     1      26.285  25.357  24.076  0.00  0.00    +0.000 A 
ATOM     13  C   UNL     1      25.535  25.851  25.124  0.00  0.00    +0.000 A 
ENDBRANCH   1  11
BRANCH   6  14
ATOM     14  C   UNL     1      29.748  23.851  23.893  0.00  0.00    +0.000 A 
ATOM     15  C   UNL     1      31.020  24.106  24.396  0.00  0.00    +0.000 A 
ATOM     16  C   UNL     1      31.483  23.523  25.558  0.00  0.00    +0.000 A 
ATOM     17  C   UNL     1      30.682  22.654  26.269  0.00  0.00    +0.000 A 
ATOM     18  C   UNL     1      31.103  21.994  27.512  0.00  0.00    +0.000 C 
ATOM     19  C   UNL     1      29.408  22.388  25.778  0.00  0.00    +0.000 A 
ATOM     20  C   UNL     1      28.959  22.979  24.616  0.00  0.00    +0.000 A 
ENDBRANCH   6  14
TORSDOF 2
ENDMDL
MODEL 10
REMARK VINA RESULT:      -5.8      2.398      3.203
REMARK  Name = 
REMARK  2 active torsions:
REMARK  status: ('A' for Active; 'I' for Inactive)
REMARK    1  A    between atoms: C_5  and  C_6
REMARK    2  A    between atoms: N_11  and  C_12
REMARK                            x       y       z     vdW  Elec       q    Type
REMARK                         _______ _______ _______ _____ _____    ______ ____
ROOT
ATOM      1  C   UNL     1      30.253  23.813  24.695  0.00  0.00    +0.000 A 
ATOM      2  C   UNL     1      29.486  23.650  23.561  0.00  0.00    +0.000 A 
ATOM      3  O   UNL     1      29.797  24.118  22.291  0.00  0.00    +0.000 OA
ATOM      4  O   UNL     1      28.390  22.968  23.882  0.00  0.00    +0.000 OA
ATOM      5  N   UNL     1      28.452  22.706  25.155  0.00  0.00    +0.000 NA
ATOM      6  N   UNL     1      29.575  23.209  25.681  0.00  0.00    +0.000 N 
ENDROOT
BRANCH   1  11
ATOM      7  C   UNL     1      35.325  26.543  25.085  0.00  0.00    +0.000 C 
ATOM      8  C   UNL     1      34.017  25.836  24.984  0.00  0.00    +0.000 A 
ATOM      9  C   UNL     1      32.823  26.496  25.193  0.00  0.00    +0.000 A 
ATOM     10  C   UNL     1      31.608  25.848  25.100  0.00  0.00    +0.000 A 
ATOM     11  C   UNL     1      31.537  24.504  24.794  0.00  0.00    +0.000 A 
ATOM     12  C   UNL     1      32.732  23.846  24.586  0.00  0.00    +0.000 A 
ATOM     13  C   UNL     1      33.947  24.495  24.678  0.00  0.00    +0.000 A 
ENDBRANCH   1  11
BRANCH   6  14
ATOM     14  C   UNL     1      30.014  23.139  27.037  0.00  0.00    +0.000 A 
ATOM     15  C   UNL     1      30.971  22.212  27.439  0.00  0.00    +0.000 A 
ATOM     16  C   UNL     1      31.410  22.126  28.744  0.00  0.00    +0.000 A 
ATOM     17  C   UNL     1      30.904  22.975  29.706  0.00  0.00    +0.000 A 
ATOM     18  C   UNL     1      31.321  22.946  31.115  0.00  0.00    +0.000 C 
ATOM     19  C   UNL     1      29.947  23.907  29.320  0.00  0.00    +0.000 A 
ATOM     20  C   UNL     1      29.519  23.980  28.011  0.00  0.00    +0.000 A 
ENDBRANCH   6  14
TORSDOF 2
ENDMDL
