MODEL 1
REMARK VINA RESULT:      -8.3      0.000      0.000
REMARK  Name = 
REMARK  8 active torsions:
REMARK  status: ('A' for Active; 'I' for Inactive)
REMARK    1  A    between atoms: C_2  and  N_3
REMARK    2  A    between atoms: C_4  and  S_5
REMARK    3  A    between atoms: S_5  and  C_6
REMARK    4  A    between atoms: C_6  and  C_7
REMARK    5  A    between atoms: C_7  and  C_9
REMARK    6  A    between atoms: C_9  and  N_10
REMARK    7  A    between atoms: C_25  and  C_26
REMARK    8  A    between atoms: C_29  and  O_30
REMARK                            x       y       z     vdW  Elec       q    Type
REMARK                         _______ _______ _______ _____ _____    ______ ____
ROOT
ATOM      1  C   UNL     1      37.427   3.338  13.366  0.00  0.00    +0.000 C 
ENDROOT
BRANCH   1   2
ATOM      2  C   UNL     1      37.009   1.750  13.454  0.00  0.00    +0.000 C 
ATOM      3  O   UNL     1      37.792   1.404  12.160  0.00  0.00    +0.000 OA
BRANCH   2   4
ATOM      4  C   UNL     1      38.259   1.378  14.468  0.00  0.00    +0.000 C 
BRANCH   4   5
ATOM      5  N   UNL     1      37.961   0.195  15.185  0.00  0.00    +0.000 N 
ATOM      6  C   UNL     1      36.883  -0.123  15.902  0.00  0.00    +0.000 A 
ATOM      7  C   UNL     1      35.699   0.517  16.216  0.00  0.00    +0.000 A 
ATOM      8  C   UNL     1      34.744  -0.084  17.001  0.00  0.00    +0.000 A 
ATOM      9  C   UNL     1      34.984  -1.351  17.480  0.00  0.00    +0.000 A 
ATOM     10  C   UNL     1      36.129  -2.029  17.203  0.00  0.00    +0.000 A 
ATOM     11  C   UNL     1      37.074  -1.406  16.412  0.00  0.00    +0.000 A 
ATOM     12  C   UNL     1      38.315  -1.853  15.974  0.00  0.00    +0.000 A 
ATOM     13  C   UNL     1      39.022  -3.028  16.163  0.00  0.00    +0.000 A 
ATOM     14  C   UNL     1      40.260  -3.237  15.613  0.00  0.00    +0.000 A 
ATOM     15  C   UNL     1      40.764  -2.204  14.858  0.00  0.00    +0.000 A 
ATOM     16  C   UNL     1      40.091  -1.029  14.651  0.00  0.00    +0.000 A 
ATOM     17  C   UNL     1      38.847  -0.857  15.222  0.00  0.00    +0.000 A 
ENDBRANCH   4   5
ENDBRANCH   2   4
ENDBRANCH   1   2
BRANCH   1  18
ATOM     18  S   UNL     1      36.583   4.076  14.693  0.00  0.00    +0.000 S 
BRANCH  18  20
ATOM     19  N   UNL     1      38.258   5.202  16.556  0.00  0.00    +0.000 N 
ATOM     20  C   UNL     1      37.432   4.183  16.250  0.00  0.00    +0.000 A 
ATOM     21  N   UNL     1      37.449   3.382  17.324  0.00  0.00    +0.000 NA
ATOM     22  N   UNL     1      38.259   3.899  18.249  0.00  0.00    +0.000 NA
ATOM     23  C   UNL     1      38.776   5.048  17.782  0.00  0.00    +0.000 A 
BRANCH  23  24
ATOM     24  C   UNL     1      39.718   5.951  18.470  0.00  0.00    +0.000 A 
ATOM     25  C   UNL     1      40.991   6.152  18.045  0.00  0.00    +0.000 A 
ATOM     26  C   UNL     1      41.853   7.003  18.706  0.00  0.00    +0.000 A 
ATOM     27  C   UNL     1      41.464   7.695  19.835  0.00  0.00    +0.000 A 
ATOM     28  C   UNL     1      40.175   7.505  20.283  0.00  0.00    +0.000 A 
ATOM     29  C   UNL     1      39.337   6.648  19.601  0.00  0.00    +0.000 A 
BRANCH  27  30
ATOM     30  O   UNL     1      42.273   8.553  20.534  0.00  0.00    +0.000 OA
ATOM     31  C   UNL     1      41.956   9.936  20.645  0.00  0.00    +0.000 C 
ENDBRANCH  27  30
ENDBRANCH  23  24
BRANCH  19  33
ATOM     32  C   UNL     1      37.661   7.514  16.034  0.00  0.00    +0.000 C 
ATOM     33  C   UNL     1      38.581   6.347  15.707  0.00  0.00    +0.000 C 
ENDBRANCH  19  33
ENDBRANCH  18  20
ENDBRANCH   1  18
TORSDOF 8
ENDMDL
MODEL 2
REMARK VINA RESULT:      -8.0      0.517      2.907
REMARK  Name = 
REMARK  8 active torsions:
REMARK  status: ('A' for Active; 'I' for Inactive)
REMARK    1  A    between atoms: C_2  and  N_3
REMARK    2  A    between atoms: C_4  and  S_5
REMARK    3  A    between atoms: S_5  and  C_6
REMARK    4  A    between atoms: C_6  and  C_7
REMARK    5  A    between atoms: C_7  and  C_9
REMARK    6  A    between atoms: C_9  and  N_10
REMARK    7  A    between atoms: C_25  and  C_26
REMARK    8  A    between atoms: C_29  and  O_30
REMARK                            x       y       z     vdW  Elec       q    Type
REMARK                         _______ _______ _______ _____ _____    ______ ____
ROOT
ATOM      1  C   UNL     1      37.508   3.409  13.450  0.00  0.00    +0.000 C 
ENDROOT
BRANCH   1   2
ATOM      2  C   UNL     1      37.184   1.798  13.516  0.00  0.00    +0.000 C 
ATOM      3  O   UNL     1      38.116   1.493  12.314  0.00  0.00    +0.000 OA
BRANCH   2   4
ATOM      4  C   UNL     1      38.342   1.513  14.658  0.00  0.00    +0.000 C 
BRANCH   4   5
ATOM      5  N   UNL     1      38.182   0.214  15.194  0.00  0.00    +0.000 N 
ATOM      6  C   UNL     1      39.013  -0.829  15.177  0.00  0.00    +0.000 A 
ATOM      7  C   UNL     1      40.280  -1.055  14.672  0.00  0.00    +0.000 A 
ATOM      8  C   UNL     1      40.902  -2.272  14.816  0.00  0.00    +0.000 A 
ATOM      9  C   UNL     1      40.241  -3.279  15.478  0.00  0.00    +0.000 A 
ATOM     10  C   UNL     1      38.995  -3.113  15.996  0.00  0.00    +0.000 A 
ATOM     11  C   UNL     1      38.388  -1.883  15.840  0.00  0.00    +0.000 A 
ATOM     12  C   UNL     1      37.141  -1.436  16.261  0.00  0.00    +0.000 A 
ATOM     13  C   UNL     1      36.103  -2.034  16.953  0.00  0.00    +0.000 A 
ATOM     14  C   UNL     1      34.942  -1.369  17.256  0.00  0.00    +0.000 A 
ATOM     15  C   UNL     1      34.869  -0.064  16.828  0.00  0.00    +0.000 A 
ATOM     16  C   UNL     1      35.878   0.557  16.141  0.00  0.00    +0.000 A 
ATOM     17  C   UNL     1      37.030  -0.147  15.855  0.00  0.00    +0.000 A 
ENDBRANCH   4   5
ENDBRANCH   2   4
ENDBRANCH   1   2
BRANCH   1  18
ATOM     18  S   UNL     1      36.623   4.078  14.786  0.00  0.00    +0.000 S 
BRANCH  18  20
ATOM     19  N   UNL     1      38.222   5.244  16.690  0.00  0.00    +0.000 N 
ATOM     20  C   UNL     1      37.455   4.190  16.351  0.00  0.00    +0.000 A 
ATOM     21  N   UNL     1      37.509   3.363  17.404  0.00  0.00    +0.000 NA
ATOM     22  N   UNL     1      38.284   3.899  18.348  0.00  0.00    +0.000 NA
ATOM     23  C   UNL     1      38.741   5.085  17.916  0.00  0.00    +0.000 A 
BRANCH  23  24
ATOM     24  C   UNL     1      39.628   6.020  18.633  0.00  0.00    +0.000 A 
ATOM     25  C   UNL     1      39.194   6.830  19.632  0.00  0.00    +0.000 A 
ATOM     26  C   UNL     1      40.044   7.695  20.287  0.00  0.00    +0.000 A 
ATOM     27  C   UNL     1      41.382   7.784  19.961  0.00  0.00    +0.000 A 
ATOM     28  C   UNL     1      41.844   6.970  18.949  0.00  0.00    +0.000 A 
ATOM     29  C   UNL     1      40.970   6.114  18.312  0.00  0.00    +0.000 A 
BRANCH  27  30
ATOM     30  O   UNL     1      42.276   8.623  20.575  0.00  0.00    +0.000 OA
ATOM     31  C   UNL     1      43.462   8.120  21.180  0.00  0.00    +0.000 C 
ENDBRANCH  27  30
ENDBRANCH  23  24
BRANCH  19  33
ATOM     32  C   UNL     1      39.655   6.160  14.934  0.00  0.00    +0.000 C 
ATOM     33  C   UNL     1      38.488   6.427  15.874  0.00  0.00    +0.000 C 
ENDBRANCH  19  33
ENDBRANCH  18  20
ENDBRANCH   1  18
TORSDOF 8
ENDMDL
MODEL 3
REMARK VINA RESULT:      -7.9      2.084      2.583
REMARK  Name = 
REMARK  8 active torsions:
REMARK  status: ('A' for Active; 'I' for Inactive)
REMARK    1  A    between atoms: C_2  and  N_3
REMARK    2  A    between atoms: C_4  and  S_5
REMARK    3  A    between atoms: S_5  and  C_6
REMARK    4  A    between atoms: C_6  and  C_7
REMARK    5  A    between atoms: C_7  and  C_9
REMARK    6  A    between atoms: C_9  and  N_10
REMARK    7  A    between atoms: C_25  and  C_26
REMARK    8  A    between atoms: C_29  and  O_30
REMARK                            x       y       z     vdW  Elec       q    Type
REMARK                         _______ _______ _______ _____ _____    ______ ____
ROOT
ATOM      1  C   UNL     1      38.737   4.289  12.632  0.00  0.00    +0.000 C 
ENDROOT
BRANCH   1   2
ATOM      2  C   UNL     1      37.167   3.979  13.009  0.00  0.00    +0.000 C 
ATOM      3  O   UNL     1      36.652   4.663  11.714  0.00  0.00    +0.000 OA
BRANCH   2   4
ATOM      4  C   UNL     1      37.207   2.465  12.351  0.00  0.00    +0.000 C 
BRANCH   4   5
ATOM      5  N   UNL     1      36.888   1.502  13.338  0.00  0.00    +0.000 N 
ATOM      6  C   UNL     1      36.125   1.612  14.426  0.00  0.00    +0.000 A 
ATOM      7  C   UNL     1      35.385   2.631  14.997  0.00  0.00    +0.000 A 
ATOM      8  C   UNL     1      34.677   2.439  16.159  0.00  0.00    +0.000 A 
ATOM      9  C   UNL     1      34.714   1.202  16.759  0.00  0.00    +0.000 A 
ATOM     10  C   UNL     1      35.424   0.164  16.243  0.00  0.00    +0.000 A 
ATOM     11  C   UNL     1      36.128   0.379  15.075  0.00  0.00    +0.000 A 
ATOM     12  C   UNL     1      36.925  -0.485  14.333  0.00  0.00    +0.000 A 
ATOM     13  C   UNL     1      37.288  -1.811  14.491  0.00  0.00    +0.000 A 
ATOM     14  C   UNL     1      38.107  -2.459  13.602  0.00  0.00    +0.000 A 
ATOM     15  C   UNL     1      38.551  -1.709  12.538  0.00  0.00    +0.000 A 
ATOM     16  C   UNL     1      38.211  -0.395  12.354  0.00  0.00    +0.000 A 
ATOM     17  C   UNL     1      37.384   0.221  13.271  0.00  0.00    +0.000 A 
ENDBRANCH   4   5
ENDBRANCH   2   4
ENDBRANCH   1   2
BRANCH   1  18
ATOM     18  S   UNL     1      39.629   3.693  13.997  0.00  0.00    +0.000 S 
BRANCH  18  20
ATOM     19  N   UNL     1      39.235   5.240  16.232  0.00  0.00    +0.000 N 
ATOM     20  C   UNL     1      39.001   4.065  15.617  0.00  0.00    +0.000 A 
ATOM     21  N   UNL     1      38.260   3.357  16.480  0.00  0.00    +0.000 NA
ATOM     22  N   UNL     1      38.052   4.080  17.581  0.00  0.00    +0.000 NA
ATOM     23  C   UNL     1      38.659   5.270  17.442  0.00  0.00    +0.000 A 
BRANCH  23  24
ATOM     24  C   UNL     1      38.690   6.380  18.413  0.00  0.00    +0.000 A 
ATOM     25  C   UNL     1      37.864   7.454  18.334  0.00  0.00    +0.000 A 
ATOM     26  C   UNL     1      37.913   8.479  19.255  0.00  0.00    +0.000 A 
ATOM     27  C   UNL     1      38.806   8.467  20.307  0.00  0.00    +0.000 A 
ATOM     28  C   UNL     1      39.655   7.385  20.406  0.00  0.00    +0.000 A 
ATOM     29  C   UNL     1      39.582   6.375  19.470  0.00  0.00    +0.000 A 
BRANCH  27  30
ATOM     30  O   UNL     1      38.903   9.455  21.254  0.00  0.00    +0.000 OA
ATOM     31  C   UNL     1      38.471  10.783  20.979  0.00  0.00    +0.000 C 
ENDBRANCH  27  30
ENDBRANCH  23  24
BRANCH  19  33
ATOM     32  C   UNL     1      41.446   6.281  16.180  0.00  0.00    +0.000 C 
ATOM     33  C   UNL     1      40.004   6.364  15.702  0.00  0.00    +0.000 C 
ENDBRANCH  19  33
ENDBRANCH  18  20
ENDBRANCH   1  18
TORSDOF 8
ENDMDL
MODEL 4
REMARK VINA RESULT:      -7.8     25.252     28.422
REMARK  Name = 
REMARK  8 active torsions:
REMARK  status: ('A' for Active; 'I' for Inactive)
REMARK    1  A    between atoms: C_2  and  N_3
REMARK    2  A    between atoms: C_4  and  S_5
REMARK    3  A    between atoms: S_5  and  C_6
REMARK    4  A    between atoms: C_6  and  C_7
REMARK    5  A    between atoms: C_7  and  C_9
REMARK    6  A    between atoms: C_9  and  N_10
REMARK    7  A    between atoms: C_25  and  C_26
REMARK    8  A    between atoms: C_29  and  O_30
REMARK                            x       y       z     vdW  Elec       q    Type
REMARK                         _______ _______ _______ _____ _____    ______ ____
ROOT
ATOM      1  C   UNL     1      25.114  17.827  38.321  0.00  0.00    +0.000 C 
ENDROOT
BRANCH   1   2
ATOM      2  C   UNL     1      24.353  18.666  37.130  0.00  0.00    +0.000 C 
ATOM      3  O   UNL     1      24.748  20.033  37.749  0.00  0.00    +0.000 OA
BRANCH   2   4
ATOM      4  C   UNL     1      25.655  18.598  36.116  0.00  0.00    +0.000 C 
BRANCH   4   5
ATOM      5  N   UNL     1      25.273  18.025  34.880  0.00  0.00    +0.000 N 
ATOM      6  C   UNL     1      25.436  16.782  34.425  0.00  0.00    +0.000 A 
ATOM      7  C   UNL     1      25.998  15.626  34.933  0.00  0.00    +0.000 A 
ATOM      8  C   UNL     1      26.017  14.459  34.208  0.00  0.00    +0.000 A 
ATOM      9  C   UNL     1      25.463  14.453  32.950  0.00  0.00    +0.000 A 
ATOM     10  C   UNL     1      24.896  15.560  32.399  0.00  0.00    +0.000 A 
ATOM     11  C   UNL     1      24.888  16.722  33.146  0.00  0.00    +0.000 A 
ATOM     12  C   UNL     1      24.384  17.981  32.843  0.00  0.00    +0.000 A 
ATOM     13  C   UNL     1      23.741  18.504  31.735  0.00  0.00    +0.000 A 
ATOM     14  C   UNL     1      23.330  19.811  31.674  0.00  0.00    +0.000 A 
ATOM     15  C   UNL     1      23.597  20.578  32.784  0.00  0.00    +0.000 A 
ATOM     16  C   UNL     1      24.232  20.091  33.896  0.00  0.00    +0.000 A 
ATOM     17  C   UNL     1      24.630  18.770  33.919  0.00  0.00    +0.000 A 
ENDBRANCH   4   5
ENDBRANCH   2   4
ENDBRANCH   1   2
BRANCH   1  18
ATOM     18  S   UNL     1      24.241  16.329  38.413  0.00  0.00    +0.000 S 
BRANCH  18  20
ATOM     19  N   UNL     1      25.757  14.443  39.713  0.00  0.00    +0.000 N 
ATOM     20  C   UNL     1      24.654  15.216  39.735  0.00  0.00    +0.000 A 
ATOM     21  N   UNL     1      24.043  14.925  40.892  0.00  0.00    +0.000 NA
ATOM     22  N   UNL     1      24.754  14.006  41.548  0.00  0.00    +0.000 NA
ATOM     23  C   UNL     1      25.838  13.691  40.820  0.00  0.00    +0.000 A 
BRANCH  23  24
ATOM     24  C   UNL     1      26.896  12.723  41.162  0.00  0.00    +0.000 A 
ATOM     25  C   UNL     1      28.031  13.071  41.820  0.00  0.00    +0.000 A 
ATOM     26  C   UNL     1      29.007  12.146  42.127  0.00  0.00    +0.000 A 
ATOM     27  C   UNL     1      28.880  10.817  41.781  0.00  0.00    +0.000 A 
ATOM     28  C   UNL     1      27.735  10.441  41.112  0.00  0.00    +0.000 A 
ATOM     29  C   UNL     1      26.777  11.389  40.819  0.00  0.00    +0.000 A 
BRANCH  27  30
ATOM     30  O   UNL     1      29.814   9.851  42.058  0.00  0.00    +0.000 OA
ATOM     31  C   UNL     1      30.340   9.019  41.030  0.00  0.00    +0.000 C 
ENDBRANCH  27  30
ENDBRANCH  23  24
BRANCH  19  33
ATOM     32  C   UNL     1      27.860  15.408  38.928  0.00  0.00    +0.000 C 
ATOM     33  C   UNL     1      26.763  14.390  38.655  0.00  0.00    +0.000 C 
ENDBRANCH  19  33
ENDBRANCH  18  20
ENDBRANCH   1  18
TORSDOF 8
ENDMDL
MODEL 5
REMARK VINA RESULT:      -7.7      1.570      3.057
REMARK  Name = 
REMARK  8 active torsions:
REMARK  status: ('A' for Active; 'I' for Inactive)
REMARK    1  A    between atoms: C_2  and  N_3
REMARK    2  A    between atoms: C_4  and  S_5
REMARK    3  A    between atoms: S_5  and  C_6
REMARK    4  A    between atoms: C_6  and  C_7
REMARK    5  A    between atoms: C_7  and  C_9
REMARK    6  A    between atoms: C_9  and  N_10
REMARK    7  A    between atoms: C_25  and  C_26
REMARK    8  A    between atoms: C_29  and  O_30
REMARK                            x       y       z     vdW  Elec       q    Type
REMARK                         _______ _______ _______ _____ _____    ______ ____
ROOT
ATOM      1  C   UNL     1      36.648   2.827  13.944  0.00  0.00    +0.000 C 
ENDROOT
BRANCH   1   2
ATOM      2  C   UNL     1      35.855   2.391  15.316  0.00  0.00    +0.000 C 
ATOM      3  O   UNL     1      34.489   2.873  14.759  0.00  0.00    +0.000 OA
BRANCH   2   4
ATOM      4  C   UNL     1      35.656   0.828  14.821  0.00  0.00    +0.000 C 
BRANCH   4   5
ATOM      5  N   UNL     1      36.608  -0.004  15.455  0.00  0.00    +0.000 N 
ATOM      6  C   UNL     1      37.716  -0.565  14.968  0.00  0.00    +0.000 A 
ATOM      7  C   UNL     1      38.346  -0.566  13.738  0.00  0.00    +0.000 A 
ATOM      8  C   UNL     1      39.514  -1.258  13.530  0.00  0.00    +0.000 A 
ATOM      9  C   UNL     1      40.060  -1.964  14.577  0.00  0.00    +0.000 A 
ATOM     10  C   UNL     1      39.484  -1.999  15.809  0.00  0.00    +0.000 A 
ATOM     11  C   UNL     1      38.311  -1.295  15.995  0.00  0.00    +0.000 A 
ATOM     12  C   UNL     1      37.518  -1.153  17.127  0.00  0.00    +0.000 A 
ATOM     13  C   UNL     1      37.610  -1.644  18.418  0.00  0.00    +0.000 A 
ATOM     14  C   UNL     1      36.679  -1.355  19.382  0.00  0.00    +0.000 A 
ATOM     15  C   UNL     1      35.639  -0.546  18.989  0.00  0.00    +0.000 A 
ATOM     16  C   UNL     1      35.518  -0.044  17.720  0.00  0.00    +0.000 A 
ATOM     17  C   UNL     1      36.476  -0.358  16.778  0.00  0.00    +0.000 A 
ENDBRANCH   4   5
ENDBRANCH   2   4
ENDBRANCH   1   2
BRANCH   1  18
ATOM     18  S   UNL     1      38.136   3.520  14.512  0.00  0.00    +0.000 S 
BRANCH  18  20
ATOM     19  N   UNL     1      38.677   5.187  16.626  0.00  0.00    +0.000 N 
ATOM     20  C   UNL     1      38.226   3.983  16.224  0.00  0.00    +0.000 A 
ATOM     21  N   UNL     1      37.916   3.330  17.352  0.00  0.00    +0.000 NA
ATOM     22  N   UNL     1      38.171   4.112  18.402  0.00  0.00    +0.000 NA
ATOM     23  C   UNL     1      38.651   5.288  17.962  0.00  0.00    +0.000 A 
BRANCH  23  24
ATOM     24  C   UNL     1      39.065   6.447  18.775  0.00  0.00    +0.000 A 
ATOM     25  C   UNL     1      40.220   6.476  19.486  0.00  0.00    +0.000 A 
ATOM     26  C   UNL     1      40.584   7.573  20.238  0.00  0.00    +0.000 A 
ATOM     27  C   UNL     1      39.792   8.700  20.308  0.00  0.00    +0.000 A 
ATOM     28  C   UNL     1      38.613   8.692  19.593  0.00  0.00    +0.000 A 
ATOM     29  C   UNL     1      38.276   7.580  18.850  0.00  0.00    +0.000 A 
BRANCH  27  30
ATOM     30  O   UNL     1      40.099   9.820  21.037  0.00  0.00    +0.000 OA
ATOM     31  C   UNL     1      40.596  10.995  20.406  0.00  0.00    +0.000 C 
ENDBRANCH  27  30
ENDBRANCH  23  24
BRANCH  19  33
ATOM     32  C   UNL     1      40.649   6.173  15.572  0.00  0.00    +0.000 C 
ATOM     33  C   UNL     1      39.144   6.274  15.768  0.00  0.00    +0.000 C 
ENDBRANCH  19  33
ENDBRANCH  18  20
ENDBRANCH   1  18
TORSDOF 8
ENDMDL
MODEL 6
REMARK VINA RESULT:      -7.6      1.524      2.186
REMARK  Name = 
REMARK  8 active torsions:
REMARK  status: ('A' for Active; 'I' for Inactive)
REMARK    1  A    between atoms: C_2  and  N_3
REMARK    2  A    between atoms: C_4  and  S_5
REMARK    3  A    between atoms: S_5  and  C_6
REMARK    4  A    between atoms: C_6  and  C_7
REMARK    5  A    between atoms: C_7  and  C_9
REMARK    6  A    between atoms: C_9  and  N_10
REMARK    7  A    between atoms: C_25  and  C_26
REMARK    8  A    between atoms: C_29  and  O_30
REMARK                            x       y       z     vdW  Elec       q    Type
REMARK                         _______ _______ _______ _____ _____    ______ ____
ROOT
ATOM      1  C   UNL     1      35.370   3.742  14.482  0.00  0.00    +0.000 C 
ENDROOT
BRANCH   1   2
ATOM      2  C   UNL     1      35.943   2.282  13.987  0.00  0.00    +0.000 C 
ATOM      3  O   UNL     1      37.079   2.935  13.155  0.00  0.00    +0.000 OA
BRANCH   2   4
ATOM      4  C   UNL     1      36.869   2.078  15.339  0.00  0.00    +0.000 C 
BRANCH   4   5
ATOM      5  N   UNL     1      37.117   0.701  15.550  0.00  0.00    +0.000 N 
ATOM      6  C   UNL     1      36.341  -0.235  16.099  0.00  0.00    +0.000 A 
ATOM      7  C   UNL     1      35.072  -0.248  16.645  0.00  0.00    +0.000 A 
ATOM      8  C   UNL     1      34.519  -1.402  17.148  0.00  0.00    +0.000 A 
ATOM      9  C   UNL     1      35.256  -2.563  17.101  0.00  0.00    +0.000 A 
ATOM     10  C   UNL     1      36.509  -2.608  16.575  0.00  0.00    +0.000 A 
ATOM     11  C   UNL     1      37.044  -1.438  16.076  0.00  0.00    +0.000 A 
ATOM     12  C   UNL     1      38.279  -1.193  15.489  0.00  0.00    +0.000 A 
ATOM     13  C   UNL     1      39.372  -1.995  15.207  0.00  0.00    +0.000 A 
ATOM     14  C   UNL     1      40.505  -1.508  14.607  0.00  0.00    +0.000 A 
ATOM     15  C   UNL     1      40.494  -0.167  14.302  0.00  0.00    +0.000 A 
ATOM     16  C   UNL     1      39.430   0.654  14.568  0.00  0.00    +0.000 A 
ATOM     17  C   UNL     1      38.308   0.126  15.172  0.00  0.00    +0.000 A 
ENDBRANCH   4   5
ENDBRANCH   2   4
ENDBRANCH   1   2
BRANCH   1  18
ATOM     18  S   UNL     1      36.536   4.882  13.885  0.00  0.00    +0.000 S 
BRANCH  18  20
ATOM     19  N   UNL     1      38.381   5.602  15.787  0.00  0.00    +0.000 N 
ATOM     20  C   UNL     1      37.305   5.966  15.063  0.00  0.00    +0.000 A 
ATOM     21  N   UNL     1      37.026   7.217  15.454  0.00  0.00    +0.000 NA
ATOM     22  N   UNL     1      37.904   7.597  16.383  0.00  0.00    +0.000 NA
ATOM     23  C   UNL     1      38.766   6.592  16.605  0.00  0.00    +0.000 A 
BRANCH  23  24
ATOM     24  C   UNL     1      39.899   6.575  17.549  0.00  0.00    +0.000 A 
ATOM     25  C   UNL     1      39.751   6.331  18.876  0.00  0.00    +0.000 A 
ATOM     26  C   UNL     1      40.827   6.320  19.739  0.00  0.00    +0.000 A 
ATOM     27  C   UNL     1      42.112   6.558  19.297  0.00  0.00    +0.000 A 
ATOM     28  C   UNL     1      42.286   6.809  17.953  0.00  0.00    +0.000 A 
ATOM     29  C   UNL     1      41.190   6.813  17.115  0.00  0.00    +0.000 A 
BRANCH  27  30
ATOM     30  O   UNL     1      43.221   6.562  20.104  0.00  0.00    +0.000 OA
ATOM     31  C   UNL     1      43.224   5.881  21.354  0.00  0.00    +0.000 C 
ENDBRANCH  27  30
ENDBRANCH  23  24
BRANCH  19  33
ATOM     32  C   UNL     1      40.042   4.300  14.554  0.00  0.00    +0.000 C 
ATOM     33  C   UNL     1      39.077   4.318  15.730  0.00  0.00    +0.000 C 
ENDBRANCH  19  33
ENDBRANCH  18  20
ENDBRANCH   1  18
TORSDOF 8
ENDMDL
MODEL 7
REMARK VINA RESULT:      -7.6     22.763     26.195
REMARK  Name = 
REMARK  8 active torsions:
REMARK  status: ('A' for Active; 'I' for Inactive)
REMARK    1  A    between atoms: C_2  and  N_3
REMARK    2  A    between atoms: C_4  and  S_5
REMARK    3  A    between atoms: S_5  and  C_6
REMARK    4  A    between atoms: C_6  and  C_7
REMARK    5  A    between atoms: C_7  and  C_9
REMARK    6  A    between atoms: C_9  and  N_10
REMARK    7  A    between atoms: C_25  and  C_26
REMARK    8  A    between atoms: C_29  and  O_30
REMARK                            x       y       z     vdW  Elec       q    Type
REMARK                         _______ _______ _______ _____ _____    ______ ____
ROOT
ATOM      1  C   UNL     1      27.392  19.446  36.502  0.00  0.00    +0.000 C 
ENDROOT
BRANCH   1   2
ATOM      2  C   UNL     1      26.935  17.921  36.913  0.00  0.00    +0.000 C 
ATOM      3  O   UNL     1      26.772  18.302  38.409  0.00  0.00    +0.000 OA
BRANCH   2   4
ATOM      4  C   UNL     1      25.350  18.190  36.535  0.00  0.00    +0.000 C 
BRANCH   4   5
ATOM      5  N   UNL     1      25.101  17.803  35.198  0.00  0.00    +0.000 N 
ATOM      6  C   UNL     1      25.312  16.634  34.591  0.00  0.00    +0.000 A 
ATOM      7  C   UNL     1      25.819  15.411  34.986  0.00  0.00    +0.000 A 
ATOM      8  C   UNL     1      25.916  14.357  34.108  0.00  0.00    +0.000 A 
ATOM      9  C   UNL     1      25.496  14.537  32.811  0.00  0.00    +0.000 A 
ATOM     10  C   UNL     1      24.989  15.717  32.367  0.00  0.00    +0.000 A 
ATOM     11  C   UNL     1      24.901  16.762  33.266  0.00  0.00    +0.000 A 
ATOM     12  C   UNL     1      24.430  18.058  33.093  0.00  0.00    +0.000 A 
ATOM     13  C   UNL     1      23.906  18.742  32.010  0.00  0.00    +0.000 A 
ATOM     14  C   UNL     1      23.503  20.049  32.091  0.00  0.00    +0.000 A 
ATOM     15  C   UNL     1      23.651  20.648  33.320  0.00  0.00    +0.000 A 
ATOM     16  C   UNL     1      24.166  20.000  34.412  0.00  0.00    +0.000 A 
ATOM     17  C   UNL     1      24.561  18.684  34.289  0.00  0.00    +0.000 A 
ENDBRANCH   4   5
ENDBRANCH   2   4
ENDBRANCH   1   2
BRANCH   1  18
ATOM     18  S   UNL     1      28.934  19.236  35.732  0.00  0.00    +0.000 S 
BRANCH  18  20
ATOM     19  N   UNL     1      30.300  16.860  35.915  0.00  0.00    +0.000 N 
ATOM     20  C   UNL     1      29.392  17.591  35.241  0.00  0.00    +0.000 A 
ATOM     21  N   UNL     1      28.998  16.812  34.224  0.00  0.00    +0.000 NA
ATOM     22  N   UNL     1      29.646  15.648  34.281  0.00  0.00    +0.000 NA
ATOM     23  C   UNL     1      30.471  15.661  35.341  0.00  0.00    +0.000 A 
BRANCH  23  24
ATOM     24  C   UNL     1      31.377  14.585  35.785  0.00  0.00    +0.000 A 
ATOM     25  C   UNL     1      30.983  13.581  36.609  0.00  0.00    +0.000 A 
ATOM     26  C   UNL     1      31.850  12.586  37.010  0.00  0.00    +0.000 A 
ATOM     27  C   UNL     1      33.165  12.559  36.593  0.00  0.00    +0.000 A 
ATOM     28  C   UNL     1      33.587  13.570  35.756  0.00  0.00    +0.000 A 
ATOM     29  C   UNL     1      32.696  14.551  35.372  0.00  0.00    +0.000 A 
BRANCH  27  30
ATOM     30  O   UNL     1      34.074  11.599  36.956  0.00  0.00    +0.000 OA
ATOM     31  C   UNL     1      35.400  11.607  36.439  0.00  0.00    +0.000 C 
ENDBRANCH  27  30
ENDBRANCH  23  24
BRANCH  19  33
ATOM     32  C   UNL     1      30.260  16.851  38.358  0.00  0.00    +0.000 C 
ATOM     33  C   UNL     1      31.030  17.267  37.114  0.00  0.00    +0.000 C 
ENDBRANCH  19  33
ENDBRANCH  18  20
ENDBRANCH   1  18
TORSDOF 8
ENDMDL
MODEL 8
REMARK VINA RESULT:      -7.6      2.566      9.514
REMARK  Name = 
REMARK  8 active torsions:
REMARK  status: ('A' for Active; 'I' for Inactive)
REMARK    1  A    between atoms: C_2  and  N_3
REMARK    2  A    between atoms: C_4  and  S_5
REMARK    3  A    between atoms: S_5  and  C_6
REMARK    4  A    between atoms: C_6  and  C_7
REMARK    5  A    between atoms: C_7  and  C_9
REMARK    6  A    between atoms: C_9  and  N_10
REMARK    7  A    between atoms: C_25  and  C_26
REMARK    8  A    between atoms: C_29  and  O_30
REMARK                            x       y       z     vdW  Elec       q    Type
REMARK                         _______ _______ _______ _____ _____    ______ ____
ROOT
ATOM      1  C   UNL     1      38.563   4.714  15.127  0.00  0.00    +0.000 C 
ENDROOT
BRANCH   1   2
ATOM      2  C   UNL     1      38.212   5.447  16.556  0.00  0.00    +0.000 C 
ATOM      3  O   UNL     1      38.951   4.354  17.374  0.00  0.00    +0.000 OA
BRANCH   2   4
ATOM      4  C   UNL     1      39.518   6.455  16.471  0.00  0.00    +0.000 C 
BRANCH   4   5
ATOM      5  N   UNL     1      39.746   7.055  17.731  0.00  0.00    +0.000 N 
ATOM      6  C   UNL     1      38.900   7.689  18.544  0.00  0.00    +0.000 A 
ATOM      7  C   UNL     1      37.554   7.997  18.499  0.00  0.00    +0.000 A 
ATOM      8  C   UNL     1      36.939   8.681  19.520  0.00  0.00    +0.000 A 
ATOM      9  C   UNL     1      37.691   9.063  20.607  0.00  0.00    +0.000 A 
ATOM     10  C   UNL     1      39.019   8.787  20.705  0.00  0.00    +0.000 A 
ATOM     11  C   UNL     1      39.616   8.099  19.668  0.00  0.00    +0.000 A 
ATOM     12  C   UNL     1      40.932   7.686  19.503  0.00  0.00    +0.000 A 
ATOM     13  C   UNL     1      42.071   7.811  20.280  0.00  0.00    +0.000 A 
ATOM     14  C   UNL     1      43.285   7.307  19.891  0.00  0.00    +0.000 A 
ATOM     15  C   UNL     1      43.307   6.666  18.674  0.00  0.00    +0.000 A 
ATOM     16  C   UNL     1      42.199   6.526  17.881  0.00  0.00    +0.000 A 
ATOM     17  C   UNL     1      40.995   7.047  18.308  0.00  0.00    +0.000 A 
ENDBRANCH   4   5
ENDBRANCH   2   4
ENDBRANCH   1   2
BRANCH   1  18
ATOM     18  S   UNL     1      37.362   3.467  14.980  0.00  0.00    +0.000 S 
BRANCH  18  20
ATOM     19  N   UNL     1      37.054   0.756  15.291  0.00  0.00    +0.000 N 
ATOM     20  C   UNL     1      37.908   1.782  15.108  0.00  0.00    +0.000 A 
ATOM     21  N   UNL     1      39.125   1.223  15.064  0.00  0.00    +0.000 NA
ATOM     22  N   UNL     1      39.011  -0.097  15.217  0.00  0.00    +0.000 NA
ATOM     23  C   UNL     1      37.713  -0.410  15.359  0.00  0.00    +0.000 A 
BRANCH  23  24
ATOM     24  C   UNL     1      37.129  -1.750  15.553  0.00  0.00    +0.000 A 
ATOM     25  C   UNL     1      36.941  -2.304  16.778  0.00  0.00    +0.000 A 
ATOM     26  C   UNL     1      36.393  -3.560  16.932  0.00  0.00    +0.000 A 
ATOM     27  C   UNL     1      36.007  -4.320  15.848  0.00  0.00    +0.000 A 
ATOM     28  C   UNL     1      36.189  -3.777  14.594  0.00  0.00    +0.000 A 
ATOM     29  C   UNL     1      36.739  -2.519  14.472  0.00  0.00    +0.000 A 
BRANCH  27  30
ATOM     30  O   UNL     1      35.457  -5.574  15.936  0.00  0.00    +0.000 OA
ATOM     31  C   UNL     1      34.433  -5.993  15.040  0.00  0.00    +0.000 C 
ENDBRANCH  27  30
ENDBRANCH  23  24
BRANCH  19  33
ATOM     32  C   UNL     1      35.203   1.040  16.860  0.00  0.00    +0.000 C 
ATOM     33  C   UNL     1      35.600   0.842  15.405  0.00  0.00    +0.000 C 
ENDBRANCH  19  33
ENDBRANCH  18  20
ENDBRANCH   1  18
TORSDOF 8
ENDMDL
MODEL 9
REMARK VINA RESULT:      -7.4      2.514      8.729
REMARK  Name = 
REMARK  8 active torsions:
REMARK  status: ('A' for Active; 'I' for Inactive)
REMARK    1  A    between atoms: C_2  and  N_3
REMARK    2  A    between atoms: C_4  and  S_5
REMARK    3  A    between atoms: S_5  and  C_6
REMARK    4  A    between atoms: C_6  and  C_7
REMARK    5  A    between atoms: C_7  and  C_9
REMARK    6  A    between atoms: C_9  and  N_10
REMARK    7  A    between atoms: C_25  and  C_26
REMARK    8  A    between atoms: C_29  and  O_30
REMARK                            x       y       z     vdW  Elec       q    Type
REMARK                         _______ _______ _______ _____ _____    ______ ____
ROOT
ATOM      1  C   UNL     1      38.737   6.083  14.376  0.00  0.00    +0.000 C 
ENDROOT
BRANCH   1   2
ATOM      2  C   UNL     1      39.738   5.712  15.626  0.00  0.00    +0.000 C 
ATOM      3  O   UNL     1      40.965   5.562  14.687  0.00  0.00    +0.000 OA
BRANCH   2   4
ATOM      4  C   UNL     1      40.038   7.296  15.983  0.00  0.00    +0.000 C 
BRANCH   4   5
ATOM      5  N   UNL     1      40.025   7.485  17.385  0.00  0.00    +0.000 N 
ATOM      6  C   UNL     1      39.045   7.912  18.183  0.00  0.00    +0.000 A 
ATOM      7  C   UNL     1      37.737   8.313  17.989  0.00  0.00    +0.000 A 
ATOM      8  C   UNL     1      36.944   8.711  19.039  0.00  0.00    +0.000 A 
ATOM      9  C   UNL     1      37.476   8.705  20.307  0.00  0.00    +0.000 A 
ATOM     10  C   UNL     1      38.755   8.320  20.558  0.00  0.00    +0.000 A 
ATOM     11  C   UNL     1      39.533   7.925  19.488  0.00  0.00    +0.000 A 
ATOM     12  C   UNL     1      40.852   7.487  19.449  0.00  0.00    +0.000 A 
ATOM     13  C   UNL     1      41.819   7.300  20.422  0.00  0.00    +0.000 A 
ATOM     14  C   UNL     1      43.079   6.847  20.126  0.00  0.00    +0.000 A 
ATOM     15  C   UNL     1      43.329   6.589  18.799  0.00  0.00    +0.000 A 
ATOM     16  C   UNL     1      42.395   6.765  17.812  0.00  0.00    +0.000 A 
ATOM     17  C   UNL     1      41.138   7.222  18.150  0.00  0.00    +0.000 A 
ENDBRANCH   4   5
ENDBRANCH   2   4
ENDBRANCH   1   2
BRANCH   1  18
ATOM     18  S   UNL     1      37.168   5.575  14.920  0.00  0.00    +0.000 S 
BRANCH  18  20
ATOM     19  N   UNL     1      36.513   2.979  15.532  0.00  0.00    +0.000 N 
ATOM     20  C   UNL     1      37.081   4.128  15.946  0.00  0.00    +0.000 A 
ATOM     21  N   UNL     1      37.497   3.884  17.197  0.00  0.00    +0.000 NA
ATOM     22  N   UNL     1      37.190   2.629  17.528  0.00  0.00    +0.000 NA
ATOM     23  C   UNL     1      36.571   2.044  16.490  0.00  0.00    +0.000 A 
BRANCH  23  24
ATOM     24  C   UNL     1      36.058   0.663  16.416  0.00  0.00    +0.000 A 
ATOM     25  C   UNL     1      36.681  -0.320  15.717  0.00  0.00    +0.000 A 
ATOM     26  C   UNL     1      36.181  -1.604  15.663  0.00  0.00    +0.000 A 
ATOM     27  C   UNL     1      35.019  -1.957  16.316  0.00  0.00    +0.000 A 
ATOM     28  C   UNL     1      34.369  -0.974  17.031  0.00  0.00    +0.000 A 
ATOM     29  C   UNL     1      34.894   0.300  17.067  0.00  0.00    +0.000 A 
BRANCH  27  30
ATOM     30  O   UNL     1      34.472  -3.215  16.300  0.00  0.00    +0.000 OA
ATOM     31  C   UNL     1      34.370  -3.958  15.090  0.00  0.00    +0.000 C 
ENDBRANCH  27  30
ENDBRANCH  23  24
BRANCH  19  33
ATOM     32  C   UNL     1      36.959   2.251  13.242  0.00  0.00    +0.000 C 
ATOM     33  C   UNL     1      35.903   2.729  14.228  0.00  0.00    +0.000 C 
ENDBRANCH  19  33
ENDBRANCH  18  20
ENDBRANCH   1  18
TORSDOF 8
ENDMDL
MODEL 10
REMARK VINA RESULT:      -7.4      2.516      9.202
REMARK  Name = 
REMARK  8 active torsions:
REMARK  status: ('A' for Active; 'I' for Inactive)
REMARK    1  A    between atoms: C_2  and  N_3
REMARK    2  A    between atoms: C_4  and  S_5
REMARK    3  A    between atoms: S_5  and  C_6
REMARK    4  A    between atoms: C_6  and  C_7
REMARK    5  A    between atoms: C_7  and  C_9
REMARK    6  A    between atoms: C_9  and  N_10
REMARK    7  A    between atoms: C_25  and  C_26
REMARK    8  A    between atoms: C_29  and  O_30
REMARK                            x       y       z     vdW  Elec       q    Type
REMARK                         _______ _______ _______ _____ _____    ______ ____
ROOT
ATOM      1  C   UNL     1      38.618   5.906  14.485  0.00  0.00    +0.000 C 
ENDROOT
BRANCH   1   2
ATOM      2  C   UNL     1      39.599   5.563  15.760  0.00  0.00    +0.000 C 
ATOM      3  O   UNL     1      40.835   5.366  14.841  0.00  0.00    +0.000 OA
BRANCH   2   4
ATOM      4  C   UNL     1      39.916   7.155  16.068  0.00  0.00    +0.000 C 
BRANCH   4   5
ATOM      5  N   UNL     1      40.128   7.344  17.454  0.00  0.00    +0.000 N 
ATOM      6  C   UNL     1      41.222   7.136  18.189  0.00  0.00    +0.000 A 
ATOM      7  C   UNL     1      42.502   6.689  17.924  0.00  0.00    +0.000 A 
ATOM      8  C   UNL     1      43.443   6.578  18.919  0.00  0.00    +0.000 A 
ATOM      9  C   UNL     1      43.092   6.923  20.203  0.00  0.00    +0.000 A 
ATOM     10  C   UNL     1      41.849   7.369  20.522  0.00  0.00    +0.000 A 
ATOM     11  C   UNL     1      40.918   7.473  19.507  0.00  0.00    +0.000 A 
ATOM     12  C   UNL     1      39.595   7.895  19.541  0.00  0.00    +0.000 A 
ATOM     13  C   UNL     1      38.766   8.340  20.556  0.00  0.00    +0.000 A 
ATOM     14  C   UNL     1      37.464   8.707  20.333  0.00  0.00    +0.000 A 
ATOM     15  C   UNL     1      37.025   8.606  19.034  0.00  0.00    +0.000 A 
ATOM     16  C   UNL     1      37.819   8.169  18.007  0.00  0.00    +0.000 A 
ATOM     17  C   UNL     1      39.124   7.808  18.272  0.00  0.00    +0.000 A 
ENDBRANCH   4   5
ENDBRANCH   2   4
ENDBRANCH   1   2
BRANCH   1  18
ATOM     18  S   UNL     1      37.042   5.402  15.012  0.00  0.00    +0.000 S 
BRANCH  18  20
ATOM     19  N   UNL     1      36.425   2.775  15.518  0.00  0.00    +0.000 N 
ATOM     20  C   UNL     1      36.936   3.926  15.994  0.00  0.00    +0.000 A 
ATOM     21  N   UNL     1      37.284   3.659  17.260  0.00  0.00    +0.000 NA
ATOM     22  N   UNL     1      36.994   2.388  17.541  0.00  0.00    +0.000 NA
ATOM     23  C   UNL     1      36.452   1.815  16.454  0.00  0.00    +0.000 A 
BRANCH  23  24
ATOM     24  C   UNL     1      35.982   0.424  16.313  0.00  0.00    +0.000 A 
ATOM     25  C   UNL     1      36.522  -0.452  15.428  0.00  0.00    +0.000 A 
ATOM     26  C   UNL     1      36.065  -1.748  15.316  0.00  0.00    +0.000 A 
ATOM     27  C   UNL     1      35.033  -2.223  16.099  0.00  0.00    +0.000 A 
ATOM     28  C   UNL     1      34.470  -1.350  17.005  0.00  0.00    +0.000 A 
ATOM     29  C   UNL     1      34.949  -0.060  17.094  0.00  0.00    +0.000 A 
BRANCH  27  30
ATOM     30  O   UNL     1      34.535  -3.500  16.035  0.00  0.00    +0.000 OA
ATOM     31  C   UNL     1      34.419  -4.183  14.791  0.00  0.00    +0.000 C 
ENDBRANCH  27  30
ENDBRANCH  23  24
BRANCH  19  33
ATOM     32  C   UNL     1      37.042   2.277  13.206  0.00  0.00    +0.000 C 
ATOM     33  C   UNL     1      35.899   2.544  14.174  0.00  0.00    +0.000 C 
ENDBRANCH  19  33
ENDBRANCH  18  20
ENDBRANCH   1  18
TORSDOF 8
ENDMDL
