MODEL 1
REMARK VINA RESULT:      -7.6      0.000      0.000
REMARK  Name = 
REMARK  8 active torsions:
REMARK  status: ('A' for Active; 'I' for Inactive)
REMARK    1  A    between atoms: C_2  and  C_3
REMARK    2  A    between atoms: C_3  and  N_4
REMARK    3  A    between atoms: C_5  and  C_7
REMARK    4  A    between atoms: C_12  and  N_13
REMARK    5  A    between atoms: C_14  and  C_16
REMARK    6  A    between atoms: C_19  and  C_20
REMARK    7  A    between atoms: C_20  and  S_21
REMARK    8  A    between atoms: S_21  and  C_22
REMARK                            x       y       z     vdW  Elec       q    Type
REMARK                         _______ _______ _______ _____ _____    ______ ____
ROOT
ATOM      1  N   UNL     1      37.667   0.438  14.761  0.00  0.00    +0.000 NA
ATOM      2  C   UNL     1      38.984   0.964  14.843  0.00  0.00    +0.000 C 
ATOM      3  O   UNL     1      39.158   2.155  15.210  0.00  0.00    +0.000 OA
ENDROOT
BRANCH   1   9
ATOM      4  C   UNL     1      35.883   1.008  16.262  0.00  0.00    +0.000 A 
ATOM      5  C   UNL     1      34.813   1.815  16.570  0.00  0.00    +0.000 A 
ATOM      6  C   UNL     1      34.421   2.851  15.738  0.00  0.00    +0.000 A 
ATOM      7  C   UNL     1      35.110   3.092  14.566  0.00  0.00    +0.000 A 
ATOM      8  C   UNL     1      36.183   2.298  14.237  0.00  0.00    +0.000 A 
ATOM      9  C   UNL     1      36.561   1.257  15.093  0.00  0.00    +0.000 A 
BRANCH   4  11
ATOM     10  N   UNL     1      36.004  -1.436  16.807  0.00  0.00    +0.000 NA
ATOM     11  C   UNL     1      36.314  -0.090  17.123  0.00  0.00    +0.000 C 
ATOM     12  O   UNL     1      36.980   0.122  18.179  0.00  0.00    +0.000 OA
BRANCH  10  13
ATOM     13  C   UNL     1      36.426  -2.516  17.643  0.00  0.00    +0.000 C 
BRANCH  13  15
ATOM     14  C   UNL     1      38.786  -3.212  17.753  0.00  0.00    +0.000 C 
ATOM     15  C   UNL     1      37.640  -3.177  17.108  0.00  0.00    +0.000 C 
ENDBRANCH  13  15
ENDBRANCH  10  13
ENDBRANCH   4  11
ENDBRANCH   1   9
BRANCH   2  16
ATOM     16  C   UNL     1      40.102   0.088  14.493  0.00  0.00    +0.000 A 
ATOM     17  C   UNL     1      41.215   0.559  13.823  0.00  0.00    +0.000 A 
ATOM     18  C   UNL     1      42.274  -0.255  13.487  0.00  0.00    +0.000 A 
ATOM     19  C   UNL     1      42.266  -1.596  13.813  0.00  0.00    +0.000 A 
ATOM     20  C   UNL     1      41.155  -2.073  14.484  0.00  0.00    +0.000 A 
ATOM     21  C   UNL     1      40.096  -1.251  14.816  0.00  0.00    +0.000 A 
BRANCH  19  22
ATOM     22  C   UNL     1      43.403  -2.498  13.461  0.00  0.00    +0.000 C 
BRANCH  22  23
ATOM     23  S   UNL     1      45.002  -1.698  13.643  0.00  0.00    +0.000 S 
BRANCH  23  24
ATOM     24  C   UNL     1      45.418  -1.505  15.366  0.00  0.00    +0.000 A 
ATOM     25  C   UNL     1      45.874  -2.562  16.097  0.00  0.00    +0.000 A 
ATOM     26  C   UNL     1      46.207  -2.447  17.446  0.00  0.00    +0.000 A 
ATOM     27  C   UNL     1      46.064  -1.215  18.038  0.00  0.00    +0.000 A 
ATOM     28  C   UNL     1      46.394  -0.981  19.489  0.00  0.00    +0.000 C 
ATOM     29  C   UNL     1      45.601  -0.148  17.290  0.00  0.00    +0.000 A 
ATOM     30  C   UNL     1      45.272  -0.270  15.954  0.00  0.00    +0.000 A 
ENDBRANCH  23  24
ENDBRANCH  22  23
ENDBRANCH  19  22
ENDBRANCH   2  16
TORSDOF 8
ENDMDL
MODEL 2
REMARK VINA RESULT:      -7.5      2.056      3.460
REMARK  Name = 
REMARK  8 active torsions:
REMARK  status: ('A' for Active; 'I' for Inactive)
REMARK    1  A    between atoms: C_2  and  C_3
REMARK    2  A    between atoms: C_3  and  N_4
REMARK    3  A    between atoms: C_5  and  C_7
REMARK    4  A    between atoms: C_12  and  N_13
REMARK    5  A    between atoms: C_14  and  C_16
REMARK    6  A    between atoms: C_19  and  C_20
REMARK    7  A    between atoms: C_20  and  S_21
REMARK    8  A    between atoms: S_21  and  C_22
REMARK                            x       y       z     vdW  Elec       q    Type
REMARK                         _______ _______ _______ _____ _____    ______ ____
ROOT
ATOM      1  N   UNL     1      38.196  -0.544  16.276  0.00  0.00    +0.000 NA
ATOM      2  C   UNL     1      38.613  -0.992  14.995  0.00  0.00    +0.000 C 
ATOM      3  O   UNL     1      37.770  -1.491  14.204  0.00  0.00    +0.000 OA
ENDROOT
BRANCH   1   9
ATOM      4  C   UNL     1      36.052   0.468  16.652  0.00  0.00    +0.000 A 
ATOM      5  C   UNL     1      34.733   0.335  17.018  0.00  0.00    +0.000 A 
ATOM      6  C   UNL     1      34.200  -0.891  17.381  0.00  0.00    +0.000 A 
ATOM      7  C   UNL     1      34.998  -2.017  17.380  0.00  0.00    +0.000 A 
ATOM      8  C   UNL     1      36.320  -1.910  17.017  0.00  0.00    +0.000 A 
ATOM      9  C   UNL     1      36.837  -0.661  16.654  0.00  0.00    +0.000 A 
BRANCH   4  11
ATOM     10  N   UNL     1      37.019   2.705  17.241  0.00  0.00    +0.000 NA
ATOM     11  C   UNL     1      36.637   1.749  16.266  0.00  0.00    +0.000 C 
ATOM     12  O   UNL     1      36.824   2.050  15.051  0.00  0.00    +0.000 OA
BRANCH  10  13
ATOM     13  C   UNL     1      37.596   3.959  16.872  0.00  0.00    +0.000 C 
BRANCH  13  15
ATOM     14  C   UNL     1      38.767   5.728  18.122  0.00  0.00    +0.000 C 
ATOM     15  C   UNL     1      38.537   4.451  17.905  0.00  0.00    +0.000 C 
ENDBRANCH  13  15
ENDBRANCH  10  13
ENDBRANCH   4  11
ENDBRANCH   1   9
BRANCH   2  16
ATOM     16  C   UNL     1      40.026  -0.855  14.639  0.00  0.00    +0.000 A 
ATOM     17  C   UNL     1      40.892  -1.930  14.665  0.00  0.00    +0.000 A 
ATOM     18  C   UNL     1      42.224  -1.815  14.333  0.00  0.00    +0.000 A 
ATOM     19  C   UNL     1      42.754  -0.599  13.953  0.00  0.00    +0.000 A 
ATOM     20  C   UNL     1      41.891   0.482  13.924  0.00  0.00    +0.000 A 
ATOM     21  C   UNL     1      40.557   0.358  14.260  0.00  0.00    +0.000 A 
BRANCH  19  22
ATOM     22  C   UNL     1      44.194  -0.448  13.586  0.00  0.00    +0.000 C 
BRANCH  22  23
ATOM     23  S   UNL     1      45.209  -1.796  14.203  0.00  0.00    +0.000 S 
BRANCH  23  24
ATOM     24  C   UNL     1      45.628  -1.538  15.917  0.00  0.00    +0.000 A 
ATOM     25  C   UNL     1      46.063  -2.571  16.692  0.00  0.00    +0.000 A 
ATOM     26  C   UNL     1      46.398  -2.404  18.036  0.00  0.00    +0.000 A 
ATOM     27  C   UNL     1      46.277  -1.146  18.575  0.00  0.00    +0.000 A 
ATOM     28  C   UNL     1      46.612  -0.856  20.014  0.00  0.00    +0.000 C 
ATOM     29  C   UNL     1      45.835  -0.103  17.781  0.00  0.00    +0.000 A 
ATOM     30  C   UNL     1      45.504  -0.276  16.450  0.00  0.00    +0.000 A 
ENDBRANCH  23  24
ENDBRANCH  22  23
ENDBRANCH  19  22
ENDBRANCH   2  16
TORSDOF 8
ENDMDL
MODEL 3
REMARK VINA RESULT:      -7.5      4.851      6.630
REMARK  Name = 
REMARK  8 active torsions:
REMARK  status: ('A' for Active; 'I' for Inactive)
REMARK    1  A    between atoms: C_2  and  C_3
REMARK    2  A    between atoms: C_3  and  N_4
REMARK    3  A    between atoms: C_5  and  C_7
REMARK    4  A    between atoms: C_12  and  N_13
REMARK    5  A    between atoms: C_14  and  C_16
REMARK    6  A    between atoms: C_19  and  C_20
REMARK    7  A    between atoms: C_20  and  S_21
REMARK    8  A    between atoms: S_21  and  C_22
REMARK                            x       y       z     vdW  Elec       q    Type
REMARK                         _______ _______ _______ _____ _____    ______ ____
ROOT
ATOM      1  N   UNL     1      36.751   1.166  16.860  0.00  0.00    +0.000 NA
ATOM      2  C   UNL     1      36.279   2.348  16.230  0.00  0.00    +0.000 C 
ATOM      3  O   UNL     1      35.200   2.320  15.581  0.00  0.00    +0.000 OA
ENDROOT
BRANCH   1   9
ATOM      4  C   UNL     1      36.394  -0.973  15.830  0.00  0.00    +0.000 A 
ATOM      5  C   UNL     1      35.660  -2.132  15.743  0.00  0.00    +0.000 A 
ATOM      6  C   UNL     1      34.561  -2.358  16.555  0.00  0.00    +0.000 A 
ATOM      7  C   UNL     1      34.180  -1.407  17.479  0.00  0.00    +0.000 A 
ATOM      8  C   UNL     1      34.898  -0.240  17.585  0.00  0.00    +0.000 A 
ATOM      9  C   UNL     1      36.006  -0.033  16.754  0.00  0.00    +0.000 A 
BRANCH   4  11
ATOM     10  N   UNL     1      38.871  -0.736  15.516  0.00  0.00    +0.000 NA
ATOM     11  C   UNL     1      37.556  -0.711  14.985  0.00  0.00    +0.000 C 
ATOM     12  O   UNL     1      37.432  -0.456  13.751  0.00  0.00    +0.000 OA
BRANCH  10  13
ATOM     13  C   UNL     1      40.013  -0.486  14.694  0.00  0.00    +0.000 C 
BRANCH  13  15
ATOM     14  C   UNL     1      40.596  -2.852  15.047  0.00  0.00    +0.000 C 
ATOM     15  C   UNL     1      40.949  -1.635  14.697  0.00  0.00    +0.000 C 
ENDBRANCH  13  15
ENDBRANCH  10  13
ENDBRANCH   4  11
ENDBRANCH   1   9
BRANCH   2  16
ATOM     16  C   UNL     1      37.075   3.568  16.361  0.00  0.00    +0.000 A 
ATOM     17  C   UNL     1      37.770   3.864  17.518  0.00  0.00    +0.000 A 
ATOM     18  C   UNL     1      38.522   5.010  17.655  0.00  0.00    +0.000 A 
ATOM     19  C   UNL     1      38.613   5.923  16.624  0.00  0.00    +0.000 A 
ATOM     20  C   UNL     1      37.920   5.632  15.464  0.00  0.00    +0.000 A 
ATOM     21  C   UNL     1      37.167   4.482  15.334  0.00  0.00    +0.000 A 
BRANCH  19  22
ATOM     22  C   UNL     1      39.424   7.171  16.748  0.00  0.00    +0.000 C 
BRANCH  22  23
ATOM     23  S   UNL     1      41.189   6.866  16.602  0.00  0.00    +0.000 S 
BRANCH  23  24
ATOM     24  C   UNL     1      41.935   6.696  18.213  0.00  0.00    +0.000 A 
ATOM     25  C   UNL     1      41.175   6.407  19.307  0.00  0.00    +0.000 A 
ATOM     26  C   UNL     1      41.725   6.269  20.581  0.00  0.00    +0.000 A 
ATOM     27  C   UNL     1      43.083   6.433  20.713  0.00  0.00    +0.000 A 
ATOM     28  C   UNL     1      43.779   6.305  22.043  0.00  0.00    +0.000 C 
ATOM     29  C   UNL     1      43.847   6.725  19.598  0.00  0.00    +0.000 A 
ATOM     30  C   UNL     1      43.294   6.862  18.339  0.00  0.00    +0.000 A 
ENDBRANCH  23  24
ENDBRANCH  22  23
ENDBRANCH  19  22
ENDBRANCH   2  16
TORSDOF 8
ENDMDL
MODEL 4
REMARK VINA RESULT:      -7.4      4.667      7.640
REMARK  Name = 
REMARK  8 active torsions:
REMARK  status: ('A' for Active; 'I' for Inactive)
REMARK    1  A    between atoms: C_2  and  C_3
REMARK    2  A    between atoms: C_3  and  N_4
REMARK    3  A    between atoms: C_5  and  C_7
REMARK    4  A    between atoms: C_12  and  N_13
REMARK    5  A    between atoms: C_14  and  C_16
REMARK    6  A    between atoms: C_19  and  C_20
REMARK    7  A    between atoms: C_20  and  S_21
REMARK    8  A    between atoms: S_21  and  C_22
REMARK                            x       y       z     vdW  Elec       q    Type
REMARK                         _______ _______ _______ _____ _____    ______ ____
ROOT
ATOM      1  N   UNL     1      37.833  -0.928  16.723  0.00  0.00    +0.000 NA
ATOM      2  C   UNL     1      36.485  -0.500  16.595  0.00  0.00    +0.000 C 
ATOM      3  O   UNL     1      35.554  -1.238  17.011  0.00  0.00    +0.000 OA
ENDROOT
BRANCH   1   9
ATOM      4  C   UNL     1      38.233  -3.285  16.507  0.00  0.00    +0.000 A 
ATOM      5  C   UNL     1      38.513  -4.493  17.100  0.00  0.00    +0.000 A 
ATOM      6  C   UNL     1      38.679  -4.608  18.471  0.00  0.00    +0.000 A 
ATOM      7  C   UNL     1      38.562  -3.493  19.275  0.00  0.00    +0.000 A 
ATOM      8  C   UNL     1      38.282  -2.273  18.704  0.00  0.00    +0.000 A 
ATOM      9  C   UNL     1      38.119  -2.181  17.317  0.00  0.00    +0.000 A 
BRANCH   4  11
ATOM     10  N   UNL     1      39.106  -2.668  14.239  0.00  0.00    +0.000 NA
ATOM     11  C   UNL     1      38.054  -3.139  15.064  0.00  0.00    +0.000 C 
ATOM     12  O   UNL     1      36.958  -3.429  14.502  0.00  0.00    +0.000 OA
BRANCH  10  13
ATOM     13  C   UNL     1      38.940  -2.526  12.826  0.00  0.00    +0.000 C 
BRANCH  13  15
ATOM     14  C   UNL     1      39.385  -0.205  12.137  0.00  0.00    +0.000 C 
ATOM     15  C   UNL     1      38.530  -1.151  12.460  0.00  0.00    +0.000 C 
ENDBRANCH  13  15
ENDBRANCH  10  13
ENDBRANCH   4  11
ENDBRANCH   1   9
BRANCH   2  16
ATOM     16  C   UNL     1      36.228   0.801  15.978  0.00  0.00    +0.000 A 
ATOM     17  C   UNL     1      35.320   1.695  16.512  0.00  0.00    +0.000 A 
ATOM     18  C   UNL     1      35.067   2.922  15.941  0.00  0.00    +0.000 A 
ATOM     19  C   UNL     1      35.723   3.314  14.792  0.00  0.00    +0.000 A 
ATOM     20  C   UNL     1      36.633   2.424  14.252  0.00  0.00    +0.000 A 
ATOM     21  C   UNL     1      36.880   1.195  14.830  0.00  0.00    +0.000 A 
BRANCH  19  22
ATOM     22  C   UNL     1      35.468   4.641  14.154  0.00  0.00    +0.000 C 
BRANCH  22  23
ATOM     23  S   UNL     1      36.951   5.649  14.038  0.00  0.00    +0.000 S 
BRANCH  23  24
ATOM     24  C   UNL     1      37.705   5.848  15.642  0.00  0.00    +0.000 A 
ATOM     25  C   UNL     1      38.254   4.783  16.292  0.00  0.00    +0.000 A 
ATOM     26  C   UNL     1      38.850   4.904  17.547  0.00  0.00    +0.000 A 
ATOM     27  C   UNL     1      38.874   6.148  18.128  0.00  0.00    +0.000 A 
ATOM     28  C   UNL     1      39.492   6.389  19.481  0.00  0.00    +0.000 C 
ATOM     29  C   UNL     1      38.315   7.224  17.462  0.00  0.00    +0.000 A 
ATOM     30  C   UNL     1      37.726   7.097  16.218  0.00  0.00    +0.000 A 
ENDBRANCH  23  24
ENDBRANCH  22  23
ENDBRANCH  19  22
ENDBRANCH   2  16
TORSDOF 8
ENDMDL
MODEL 5
REMARK VINA RESULT:      -7.4      4.935      7.089
REMARK  Name = 
REMARK  8 active torsions:
REMARK  status: ('A' for Active; 'I' for Inactive)
REMARK    1  A    between atoms: C_2  and  C_3
REMARK    2  A    between atoms: C_3  and  N_4
REMARK    3  A    between atoms: C_5  and  C_7
REMARK    4  A    between atoms: C_12  and  N_13
REMARK    5  A    between atoms: C_14  and  C_16
REMARK    6  A    between atoms: C_19  and  C_20
REMARK    7  A    between atoms: C_20  and  S_21
REMARK    8  A    between atoms: S_21  and  C_22
REMARK                            x       y       z     vdW  Elec       q    Type
REMARK                         _______ _______ _______ _____ _____    ______ ____
ROOT
ATOM      1  N   UNL     1      36.594   1.182  16.413  0.00  0.00    +0.000 NA
ATOM      2  C   UNL     1      36.097   2.214  15.573  0.00  0.00    +0.000 C 
ATOM      3  O   UNL     1      35.062   2.012  14.885  0.00  0.00    +0.000 OA
ENDROOT
BRANCH   1   9
ATOM      4  C   UNL     1      36.376  -1.093  15.680  0.00  0.00    +0.000 A 
ATOM      5  C   UNL     1      35.714  -2.296  15.750  0.00  0.00    +0.000 A 
ATOM      6  C   UNL     1      34.624  -2.478  16.585  0.00  0.00    +0.000 A 
ATOM      7  C   UNL     1      34.178  -1.437  17.372  0.00  0.00    +0.000 A 
ATOM      8  C   UNL     1      34.823  -0.224  17.320  0.00  0.00    +0.000 A 
ATOM      9  C   UNL     1      35.923  -0.063  16.470  0.00  0.00    +0.000 A 
BRANCH   4  11
ATOM     10  N   UNL     1      38.818  -0.635  15.343  0.00  0.00    +0.000 NA
ATOM     11  C   UNL     1      37.528  -0.877  14.808  0.00  0.00    +0.000 C 
ATOM     12  O   UNL     1      37.414  -0.900  13.547  0.00  0.00    +0.000 OA
BRANCH  10  13
ATOM     13  C   UNL     1      39.951  -0.427  14.496  0.00  0.00    +0.000 C 
BRANCH  13  15
ATOM     14  C   UNL     1      39.598   1.888  13.735  0.00  0.00    +0.000 C 
ATOM     15  C   UNL     1      40.308   1.008  14.405  0.00  0.00    +0.000 C 
ENDBRANCH  13  15
ENDBRANCH  10  13
ENDBRANCH   4  11
ENDBRANCH   1   9
BRANCH   2  16
ATOM     16  C   UNL     1      36.815   3.488  15.541  0.00  0.00    +0.000 A 
ATOM     17  C   UNL     1      37.816   3.783  16.446  0.00  0.00    +0.000 A 
ATOM     18  C   UNL     1      38.499   4.979  16.428  0.00  0.00    +0.000 A 
ATOM     19  C   UNL     1      38.206   5.945  15.487  0.00  0.00    +0.000 A 
ATOM     20  C   UNL     1      37.205   5.655  14.579  0.00  0.00    +0.000 A 
ATOM     21  C   UNL     1      36.524   4.455  14.604  0.00  0.00    +0.000 A 
BRANCH  19  22
ATOM     22  C   UNL     1      38.935   7.249  15.446  0.00  0.00    +0.000 C 
BRANCH  22  23
ATOM     23  S   UNL     1      38.847   8.140  17.003  0.00  0.00    +0.000 S 
BRANCH  23  24
ATOM     24  C   UNL     1      40.033   7.493  18.168  0.00  0.00    +0.000 A 
ATOM     25  C   UNL     1      41.335   7.308  17.808  0.00  0.00    +0.000 A 
ATOM     26  C   UNL     1      42.288   6.802  18.693  0.00  0.00    +0.000 A 
ATOM     27  C   UNL     1      41.876   6.488  19.965  0.00  0.00    +0.000 A 
ATOM     28  C   UNL     1      42.823   5.936  20.999  0.00  0.00    +0.000 C 
ATOM     29  C   UNL     1      40.554   6.679  20.322  0.00  0.00    +0.000 A 
ATOM     30  C   UNL     1      39.615   7.180  19.440  0.00  0.00    +0.000 A 
ENDBRANCH  23  24
ENDBRANCH  22  23
ENDBRANCH  19  22
ENDBRANCH   2  16
TORSDOF 8
ENDMDL
MODEL 6
REMARK VINA RESULT:      -7.2      1.328      3.568
REMARK  Name = 
REMARK  8 active torsions:
REMARK  status: ('A' for Active; 'I' for Inactive)
REMARK    1  A    between atoms: C_2  and  C_3
REMARK    2  A    between atoms: C_3  and  N_4
REMARK    3  A    between atoms: C_5  and  C_7
REMARK    4  A    between atoms: C_12  and  N_13
REMARK    5  A    between atoms: C_14  and  C_16
REMARK    6  A    between atoms: C_19  and  C_20
REMARK    7  A    between atoms: C_20  and  S_21
REMARK    8  A    between atoms: S_21  and  C_22
REMARK                            x       y       z     vdW  Elec       q    Type
REMARK                         _______ _______ _______ _____ _____    ______ ____
ROOT
ATOM      1  N   UNL     1      37.475  -1.232  15.197  0.00  0.00    +0.000 NA
ATOM      2  C   UNL     1      38.711  -1.349  15.887  0.00  0.00    +0.000 C 
ATOM      3  O   UNL     1      38.715  -1.534  17.132  0.00  0.00    +0.000 OA
ENDROOT
BRANCH   1   9
ATOM      4  C   UNL     1      35.654  -0.168  16.344  0.00  0.00    +0.000 A 
ATOM      5  C   UNL     1      34.472  -0.277  17.038  0.00  0.00    +0.000 A 
ATOM      6  C   UNL     1      33.896  -1.509  17.302  0.00  0.00    +0.000 A 
ATOM      7  C   UNL     1      34.512  -2.665  16.867  0.00  0.00    +0.000 A 
ATOM      8  C   UNL     1      35.695  -2.581  16.172  0.00  0.00    +0.000 A 
ATOM      9  C   UNL     1      36.258  -1.326  15.915  0.00  0.00    +0.000 A 
BRANCH   4  11
ATOM     10  N   UNL     1      36.101   1.756  14.800  0.00  0.00    +0.000 NA
ATOM     11  C   UNL     1      36.280   1.119  16.054  0.00  0.00    +0.000 C 
ATOM     12  O   UNL     1      37.002   1.711  16.909  0.00  0.00    +0.000 OA
BRANCH  10  13
ATOM     13  C   UNL     1      36.706   3.017  14.509  0.00  0.00    +0.000 C 
BRANCH  13  15
ATOM     14  C   UNL     1      34.457   3.953  14.870  0.00  0.00    +0.000 C 
ATOM     15  C   UNL     1      35.743   4.133  14.664  0.00  0.00    +0.000 C 
ENDBRANCH  13  15
ENDBRANCH  10  13
ENDBRANCH   4  11
ENDBRANCH   1   9
BRANCH   2  16
ATOM     16  C   UNL     1      39.948  -1.249  15.113  0.00  0.00    +0.000 A 
ATOM     17  C   UNL     1      40.712  -2.360  14.812  0.00  0.00    +0.000 A 
ATOM     18  C   UNL     1      41.879  -2.279  14.085  0.00  0.00    +0.000 A 
ATOM     19  C   UNL     1      42.338  -1.065  13.619  0.00  0.00    +0.000 A 
ATOM     20  C   UNL     1      41.578   0.051  13.917  0.00  0.00    +0.000 A 
ATOM     21  C   UNL     1      40.410  -0.037  14.648  0.00  0.00    +0.000 A 
BRANCH  19  22
ATOM     22  C   UNL     1      43.599  -0.952  12.827  0.00  0.00    +0.000 C 
BRANCH  22  23
ATOM     23  S   UNL     1      44.881  -2.072  13.403  0.00  0.00    +0.000 S 
BRANCH  23  24
ATOM     24  C   UNL     1      45.336  -1.697  15.086  0.00  0.00    +0.000 A 
ATOM     25  C   UNL     1      45.184  -0.438  15.586  0.00  0.00    +0.000 A 
ATOM     26  C   UNL     1      45.532  -0.110  16.897  0.00  0.00    +0.000 A 
ATOM     27  C   UNL     1      46.041  -1.108  17.693  0.00  0.00    +0.000 A 
ATOM     28  C   UNL     1      46.448  -0.862  19.122  0.00  0.00    +0.000 C 
ATOM     29  C   UNL     1      46.191  -2.382  17.178  0.00  0.00    +0.000 A 
ATOM     30  C   UNL     1      45.845  -2.700  15.878  0.00  0.00    +0.000 A 
ENDBRANCH  23  24
ENDBRANCH  22  23
ENDBRANCH  19  22
ENDBRANCH   2  16
TORSDOF 8
ENDMDL
MODEL 7
REMARK VINA RESULT:      -7.2      5.024      6.811
REMARK  Name = 
REMARK  8 active torsions:
REMARK  status: ('A' for Active; 'I' for Inactive)
REMARK    1  A    between atoms: C_2  and  C_3
REMARK    2  A    between atoms: C_3  and  N_4
REMARK    3  A    between atoms: C_5  and  C_7
REMARK    4  A    between atoms: C_12  and  N_13
REMARK    5  A    between atoms: C_14  and  C_16
REMARK    6  A    between atoms: C_19  and  C_20
REMARK    7  A    between atoms: C_20  and  S_21
REMARK    8  A    between atoms: S_21  and  C_22
REMARK                            x       y       z     vdW  Elec       q    Type
REMARK                         _______ _______ _______ _____ _____    ______ ____
ROOT
ATOM      1  N   UNL     1      39.376   1.502  15.000  0.00  0.00    +0.000 NA
ATOM      2  C   UNL     1      38.714   2.716  14.675  0.00  0.00    +0.000 C 
ATOM      3  O   UNL     1      38.024   2.788  13.625  0.00  0.00    +0.000 OA
ENDROOT
BRANCH   1   9
ATOM      4  C   UNL     1      38.332  -0.588  14.450  0.00  0.00    +0.000 A 
ATOM      5  C   UNL     1      38.225  -1.666  13.603  0.00  0.00    +0.000 A 
ATOM      6  C   UNL     1      39.015  -1.782  12.471  0.00  0.00    +0.000 A 
ATOM      7  C   UNL     1      39.937  -0.801  12.171  0.00  0.00    +0.000 A 
ATOM      8  C   UNL     1      40.063   0.287  13.003  0.00  0.00    +0.000 A 
ATOM      9  C   UNL     1      39.254   0.383  14.141  0.00  0.00    +0.000 A 
BRANCH   4  11
ATOM     10  N   UNL     1      36.261   0.224  15.606  0.00  0.00    +0.000 NA
ATOM     11  C   UNL     1      37.511  -0.444  15.649  0.00  0.00    +0.000 C 
ATOM     12  O   UNL     1      37.884  -0.910  16.765  0.00  0.00    +0.000 OA
BRANCH  10  13
ATOM     13  C   UNL     1      35.449   0.365  16.774  0.00  0.00    +0.000 C 
BRANCH  13  15
ATOM     14  C   UNL     1      34.878   2.589  15.885  0.00  0.00    +0.000 C 
ATOM     15  C   UNL     1      34.651   1.613  16.736  0.00  0.00    +0.000 C 
ENDBRANCH  13  15
ENDBRANCH  10  13
ENDBRANCH   4  11
ENDBRANCH   1   9
BRANCH   2  16
ATOM     16  C   UNL     1      38.863   3.851  15.586  0.00  0.00    +0.000 A 
ATOM     17  C   UNL     1      39.681   4.923  15.287  0.00  0.00    +0.000 A 
ATOM     18  C   UNL     1      39.830   5.998  16.136  0.00  0.00    +0.000 A 
ATOM     19  C   UNL     1      39.155   6.046  17.339  0.00  0.00    +0.000 A 
ATOM     20  C   UNL     1      38.335   4.976  17.643  0.00  0.00    +0.000 A 
ATOM     21  C   UNL     1      38.191   3.902  16.787  0.00  0.00    +0.000 A 
BRANCH  19  22
ATOM     22  C   UNL     1      39.299   7.201  18.275  0.00  0.00    +0.000 C 
BRANCH  22  23
ATOM     23  S   UNL     1      39.986   6.721  19.865  0.00  0.00    +0.000 S 
BRANCH  23  24
ATOM     24  C   UNL     1      41.767   6.666  19.791  0.00  0.00    +0.000 A 
ATOM     25  C   UNL     1      42.429   7.003  18.648  0.00  0.00    +0.000 A 
ATOM     26  C   UNL     1      43.820   6.970  18.556  0.00  0.00    +0.000 A 
ATOM     27  C   UNL     1      44.527   6.581  19.668  0.00  0.00    +0.000 A 
ATOM     28  C   UNL     1      46.031   6.510  19.677  0.00  0.00    +0.000 C 
ATOM     29  C   UNL     1      43.847   6.241  20.824  0.00  0.00    +0.000 A 
ATOM     30  C   UNL     1      42.468   6.276  20.908  0.00  0.00    +0.000 A 
ENDBRANCH  23  24
ENDBRANCH  22  23
ENDBRANCH  19  22
ENDBRANCH   2  16
TORSDOF 8
ENDMDL
MODEL 8
REMARK VINA RESULT:      -7.2      6.903     10.224
REMARK  Name = 
REMARK  8 active torsions:
REMARK  status: ('A' for Active; 'I' for Inactive)
REMARK    1  A    between atoms: C_2  and  C_3
REMARK    2  A    between atoms: C_3  and  N_4
REMARK    3  A    between atoms: C_5  and  C_7
REMARK    4  A    between atoms: C_12  and  N_13
REMARK    5  A    between atoms: C_14  and  C_16
REMARK    6  A    between atoms: C_19  and  C_20
REMARK    7  A    between atoms: C_20  and  S_21
REMARK    8  A    between atoms: S_21  and  C_22
REMARK                            x       y       z     vdW  Elec       q    Type
REMARK                         _______ _______ _______ _____ _____    ______ ____
ROOT
ATOM      1  N   UNL     1      41.846   6.396  19.109  0.00  0.00    +0.000 NA
ATOM      2  C   UNL     1      40.439   6.224  19.202  0.00  0.00    +0.000 C 
ATOM      3  O   UNL     1      39.837   6.572  20.251  0.00  0.00    +0.000 OA
ENDROOT
BRANCH   1   9
ATOM      4  C   UNL     1      42.753   8.317  20.226  0.00  0.00    +0.000 A 
ATOM      5  C   UNL     1      43.445   8.845  21.290  0.00  0.00    +0.000 A 
ATOM      6  C   UNL     1      43.936   8.043  22.307  0.00  0.00    +0.000 A 
ATOM      7  C   UNL     1      43.736   6.678  22.266  0.00  0.00    +0.000 A 
ATOM      8  C   UNL     1      43.047   6.127  21.212  0.00  0.00    +0.000 A 
ATOM      9  C   UNL     1      42.559   6.957  20.196  0.00  0.00    +0.000 A 
BRANCH   4  11
ATOM     10  N   UNL     1      40.930   9.712  19.218  0.00  0.00    +0.000 NA
ATOM     11  C   UNL     1      42.226   9.142  19.142  0.00  0.00    +0.000 C 
ATOM     12  O   UNL     1      42.906   9.379  18.101  0.00  0.00    +0.000 OA
BRANCH  10  13
ATOM     13  C   UNL     1      40.408  10.524  18.164  0.00  0.00    +0.000 C 
BRANCH  13  15
ATOM     14  C   UNL     1      38.451   9.105  17.700  0.00  0.00    +0.000 C 
ATOM     15  C   UNL     1      39.512   9.752  17.272  0.00  0.00    +0.000 C 
ENDBRANCH  13  15
ENDBRANCH  10  13
ENDBRANCH   4  11
ENDBRANCH   1   9
BRANCH   2  16
ATOM     16  C   UNL     1      39.736   5.642  18.059  0.00  0.00    +0.000 A 
ATOM     17  C   UNL     1      40.144   5.870  16.759  0.00  0.00    +0.000 A 
ATOM     18  C   UNL     1      39.490   5.328  15.674  0.00  0.00    +0.000 A 
ATOM     19  C   UNL     1      38.383   4.523  15.846  0.00  0.00    +0.000 A 
ATOM     20  C   UNL     1      37.970   4.291  17.145  0.00  0.00    +0.000 A 
ATOM     21  C   UNL     1      38.630   4.838  18.228  0.00  0.00    +0.000 A 
BRANCH  19  22
ATOM     22  C   UNL     1      37.658   3.923  14.686  0.00  0.00    +0.000 C 
BRANCH  22  23
ATOM     23  S   UNL     1      35.930   3.591  15.047  0.00  0.00    +0.000 S 
BRANCH  23  24
ATOM     24  C   UNL     1      35.709   1.905  15.583  0.00  0.00    +0.000 A 
ATOM     25  C   UNL     1      34.964   1.616  16.687  0.00  0.00    +0.000 A 
ATOM     26  C   UNL     1      34.773   0.308  17.136  0.00  0.00    +0.000 A 
ATOM     27  C   UNL     1      35.366  -0.706  16.423  0.00  0.00    +0.000 A 
ATOM     28  C   UNL     1      35.223  -2.152  16.820  0.00  0.00    +0.000 C 
ATOM     29  C   UNL     1      36.120  -0.404  15.304  0.00  0.00    +0.000 A 
ATOM     30  C   UNL     1      36.306   0.894  14.866  0.00  0.00    +0.000 A 
ENDBRANCH  23  24
ENDBRANCH  22  23
ENDBRANCH  19  22
ENDBRANCH   2  16
TORSDOF 8
ENDMDL
MODEL 9
REMARK VINA RESULT:      -7.1      4.203      6.768
REMARK  Name = 
REMARK  8 active torsions:
REMARK  status: ('A' for Active; 'I' for Inactive)
REMARK    1  A    between atoms: C_2  and  C_3
REMARK    2  A    between atoms: C_3  and  N_4
REMARK    3  A    between atoms: C_5  and  C_7
REMARK    4  A    between atoms: C_12  and  N_13
REMARK    5  A    between atoms: C_14  and  C_16
REMARK    6  A    between atoms: C_19  and  C_20
REMARK    7  A    between atoms: C_20  and  S_21
REMARK    8  A    between atoms: S_21  and  C_22
REMARK                            x       y       z     vdW  Elec       q    Type
REMARK                         _______ _______ _______ _____ _____    ______ ____
ROOT
ATOM      1  N   UNL     1      38.850  -0.283  15.752  0.00  0.00    +0.000 NA
ATOM      2  C   UNL     1      38.394   0.068  14.453  0.00  0.00    +0.000 C 
ATOM      3  O   UNL     1      37.825  -0.798  13.738  0.00  0.00    +0.000 OA
ENDROOT
BRANCH   1   9
ATOM      4  C   UNL     1      37.605  -1.852  17.076  0.00  0.00    +0.000 A 
ATOM      5  C   UNL     1      37.436  -3.139  17.530  0.00  0.00    +0.000 A 
ATOM      6  C   UNL     1      38.293  -4.160  17.155  0.00  0.00    +0.000 A 
ATOM      7  C   UNL     1      39.350  -3.896  16.308  0.00  0.00    +0.000 A 
ATOM      8  C   UNL     1      39.540  -2.617  15.841  0.00  0.00    +0.000 A 
ATOM      9  C   UNL     1      38.661  -1.601  16.232  0.00  0.00    +0.000 A 
BRANCH   4  11
ATOM     10  N   UNL     1      35.618  -0.387  16.639  0.00  0.00    +0.000 NA
ATOM     11  C   UNL     1      36.714  -0.759  17.457  0.00  0.00    +0.000 C 
ATOM     12  O   UNL     1      36.889  -0.108  18.528  0.00  0.00    +0.000 OA
BRANCH  10  13
ATOM     13  C   UNL     1      34.739   0.678  17.006  0.00  0.00    +0.000 C 
BRANCH  13  15
ATOM     14  C   UNL     1      35.996   2.760  16.621  0.00  0.00    +0.000 C 
ATOM     15  C   UNL     1      35.048   1.922  16.263  0.00  0.00    +0.000 C 
ENDBRANCH  13  15
ENDBRANCH  10  13
ENDBRANCH   4  11
ENDBRANCH   1   9
BRANCH   2  16
ATOM     16  C   UNL     1      38.605   1.439  13.992  0.00  0.00    +0.000 A 
ATOM     17  C   UNL     1      39.798   2.103  14.200  0.00  0.00    +0.000 A 
ATOM     18  C   UNL     1      40.010   3.395  13.771  0.00  0.00    +0.000 A 
ATOM     19  C   UNL     1      39.021   4.088  13.104  0.00  0.00    +0.000 A 
ATOM     20  C   UNL     1      37.825   3.429  12.893  0.00  0.00    +0.000 A 
ATOM     21  C   UNL     1      37.619   2.135  13.326  0.00  0.00    +0.000 A 
BRANCH  19  22
ATOM     22  C   UNL     1      39.228   5.489  12.628  0.00  0.00    +0.000 C 
BRANCH  22  23
ATOM     23  S   UNL     1      38.417   6.702  13.676  0.00  0.00    +0.000 S 
BRANCH  23  24
ATOM     24  C   UNL     1      38.905   6.493  15.378  0.00  0.00    +0.000 A 
ATOM     25  C   UNL     1      38.144   5.757  16.237  0.00  0.00    +0.000 A 
ATOM     26  C   UNL     1      38.496   5.574  17.574  0.00  0.00    +0.000 A 
ATOM     27  C   UNL     1      39.654   6.165  18.018  0.00  0.00    +0.000 A 
ATOM     28  C   UNL     1      40.125   6.032  19.443  0.00  0.00    +0.000 C 
ATOM     29  C   UNL     1      40.420   6.910  17.141  0.00  0.00    +0.000 A 
ATOM     30  C   UNL     1      40.065   7.088  15.817  0.00  0.00    +0.000 A 
ENDBRANCH  23  24
ENDBRANCH  22  23
ENDBRANCH  19  22
ENDBRANCH   2  16
TORSDOF 8
ENDMDL
MODEL 10
REMARK VINA RESULT:      -7.0      6.613      9.505
REMARK  Name = 
REMARK  8 active torsions:
REMARK  status: ('A' for Active; 'I' for Inactive)
REMARK    1  A    between atoms: C_2  and  C_3
REMARK    2  A    between atoms: C_3  and  N_4
REMARK    3  A    between atoms: C_5  and  C_7
REMARK    4  A    between atoms: C_12  and  N_13
REMARK    5  A    between atoms: C_14  and  C_16
REMARK    6  A    between atoms: C_19  and  C_20
REMARK    7  A    between atoms: C_20  and  S_21
REMARK    8  A    between atoms: S_21  and  C_22
REMARK                            x       y       z     vdW  Elec       q    Type
REMARK                         _______ _______ _______ _____ _____    ______ ____
ROOT
ATOM      1  N   UNL     1      40.595   6.257  19.466  0.00  0.00    +0.000 NA
ATOM      2  C   UNL     1      40.696   6.089  18.059  0.00  0.00    +0.000 C 
ATOM      3  O   UNL     1      41.689   6.559  17.445  0.00  0.00    +0.000 OA
ENDROOT
BRANCH   1   9
ATOM      4  C   UNL     1      41.474   8.303  20.362  0.00  0.00    +0.000 A 
ATOM      5  C   UNL     1      42.470   8.959  21.046  0.00  0.00    +0.000 A 
ATOM      6  C   UNL     1      43.584   8.290  21.527  0.00  0.00    +0.000 A 
ATOM      7  C   UNL     1      43.712   6.931  21.322  0.00  0.00    +0.000 A 
ATOM      8  C   UNL     1      42.729   6.253  20.641  0.00  0.00    +0.000 A 
ATOM      9  C   UNL     1      41.613   6.950  20.165  0.00  0.00    +0.000 A 
BRANCH   4  11
ATOM     10  N   UNL     1      39.089   9.041  20.597  0.00  0.00    +0.000 NA
ATOM     11  C   UNL     1      40.291   8.987  19.847  0.00  0.00    +0.000 C 
ATOM     12  O   UNL     1      40.298   9.555  18.715  0.00  0.00    +0.000 OA
BRANCH  10  13
ATOM     13  C   UNL     1      37.929   9.712  20.101  0.00  0.00    +0.000 C 
BRANCH  13  15
ATOM     14  C   UNL     1      36.888   8.774  18.076  0.00  0.00    +0.000 C 
ATOM     15  C   UNL     1      37.026   8.782  19.384  0.00  0.00    +0.000 C 
ENDBRANCH  13  15
ENDBRANCH  10  13
ENDBRANCH   4  11
ENDBRANCH   1   9
BRANCH   2  16
ATOM     16  C   UNL     1      39.627   5.367  17.369  0.00  0.00    +0.000 A 
ATOM     17  C   UNL     1      38.628   4.709  18.061  0.00  0.00    +0.000 A 
ATOM     18  C   UNL     1      37.616   4.025  17.424  0.00  0.00    +0.000 A 
ATOM     19  C   UNL     1      37.559   3.970  16.047  0.00  0.00    +0.000 A 
ATOM     20  C   UNL     1      38.556   4.627  15.349  0.00  0.00    +0.000 A 
ATOM     21  C   UNL     1      39.568   5.309  15.994  0.00  0.00    +0.000 A 
BRANCH  19  22
ATOM     22  C   UNL     1      36.471   3.236  15.333  0.00  0.00    +0.000 C 
BRANCH  22  23
ATOM     23  S   UNL     1      35.366   2.374  16.458  0.00  0.00    +0.000 S 
BRANCH  23  24
ATOM     24  C   UNL     1      36.110   0.860  17.036  0.00  0.00    +0.000 A 
ATOM     25  C   UNL     1      36.782   0.041  16.178  0.00  0.00    +0.000 A 
ATOM     26  C   UNL     1      37.374  -1.151  16.597  0.00  0.00    +0.000 A 
ATOM     27  C   UNL     1      37.263  -1.489  17.924  0.00  0.00    +0.000 A 
ATOM     28  C   UNL     1      37.865  -2.753  18.480  0.00  0.00    +0.000 C 
ATOM     29  C   UNL     1      36.580  -0.653  18.787  0.00  0.00    +0.000 A 
ATOM     30  C   UNL     1      35.995   0.526  18.365  0.00  0.00    +0.000 A 
ENDBRANCH  23  24
ENDBRANCH  22  23
ENDBRANCH  19  22
ENDBRANCH   2  16
TORSDOF 8
ENDMDL
