MODEL 1
REMARK VINA RESULT:      -6.1      0.000      0.000
REMARK  Name = 
REMARK  4 active torsions:
REMARK  status: ('A' for Active; 'I' for Inactive)
REMARK    1  A    between atoms: O_2  and  C_3
REMARK    2  A    between atoms: C_6  and  C_7
REMARK    3  A    between atoms: C_7  and  N_8
REMARK    4  A    between atoms: C_13  and  C_14
REMARK                            x       y       z     vdW  Elec       q    Type
REMARK                         _______ _______ _______ _____ _____    ______ ____
ROOT
ATOM      1  N   UNL     1      15.883  11.133  35.491  0.00  0.00    +0.000 N 
ATOM      2  C   UNL     1      16.511  10.466  34.535  0.00  0.00    +0.000 A 
ATOM      3  C   UNL     1      17.492   9.363  34.742  0.00  0.00    +0.000 C 
ATOM      4  C   UNL     1      16.146  10.921  33.284  0.00  0.00    +0.000 A 
ATOM      5  C   UNL     1      16.594  10.471  31.942  0.00  0.00    +0.000 C 
ATOM      6  C   UNL     1      15.231  11.935  33.511  0.00  0.00    +0.000 A 
ATOM      7  C   UNL     1      15.091  12.040  34.889  0.00  0.00    +0.000 A 
ATOM      8  N   UNL     1      14.216  12.993  35.516  0.00  0.00    +0.000 NA
ENDROOT
BRANCH   6   9
ATOM      9  C   UNL     1      14.579  12.701  32.485  0.00  0.00    +0.000 C 
ATOM     10  N   UNL     1      14.047  13.309  31.641  0.00  0.00    +0.000 NA
ENDBRANCH   6   9
BRANCH   1  11
ATOM     11  C   UNL     1      15.971  10.979  36.946  0.00  0.00    +0.000 C 
BRANCH  11  15
ATOM     12  C   UNL     1      19.814  12.208  38.376  0.00  0.00    +0.000 A 
ATOM     13  C   UNL     1      19.335  10.924  38.591  0.00  0.00    +0.000 A 
ATOM     14  C   UNL     1      18.095  10.554  38.120  0.00  0.00    +0.000 A 
ATOM     15  C   UNL     1      17.282  11.424  37.425  0.00  0.00    +0.000 A 
ATOM     16  C   UNL     1      17.748  12.703  37.206  0.00  0.00    +0.000 A 
ATOM     17  C   UNL     1      18.990  13.067  37.680  0.00  0.00    +0.000 A 
BRANCH  12  19
ATOM     18  C   UNL     1      22.196  11.973  38.271  0.00  0.00    +0.000 C 
ATOM     19  O   UNL     1      21.069  12.602  38.845  0.00  0.00    +0.000 OA
ENDBRANCH  12  19
ENDBRANCH  11  15
ENDBRANCH   1  11
TORSDOF 4
ENDMDL
MODEL 2
REMARK VINA RESULT:      -6.1      1.466      2.491
REMARK  Name = 
REMARK  4 active torsions:
REMARK  status: ('A' for Active; 'I' for Inactive)
REMARK    1  A    between atoms: O_2  and  C_3
REMARK    2  A    between atoms: C_6  and  C_7
REMARK    3  A    between atoms: C_7  and  N_8
REMARK    4  A    between atoms: C_13  and  C_14
REMARK                            x       y       z     vdW  Elec       q    Type
REMARK                         _______ _______ _______ _____ _____    ______ ____
ROOT
ATOM      1  N   UNL     1      16.622  10.648  35.991  0.00  0.00    +0.000 N 
ATOM      2  C   UNL     1      15.636  11.504  36.216  0.00  0.00    +0.000 A 
ATOM      3  C   UNL     1      15.023  11.797  37.542  0.00  0.00    +0.000 C 
ATOM      4  C   UNL     1      15.226  12.113  35.047  0.00  0.00    +0.000 A 
ATOM      5  C   UNL     1      14.164  13.127  34.827  0.00  0.00    +0.000 C 
ATOM      6  C   UNL     1      16.028  11.582  34.051  0.00  0.00    +0.000 A 
ATOM      7  C   UNL     1      16.881  10.678  34.670  0.00  0.00    +0.000 A 
ATOM      8  N   UNL     1      17.870   9.919  33.954  0.00  0.00    +0.000 NA
ENDROOT
BRANCH   6   9
ATOM      9  C   UNL     1      15.952  11.931  32.660  0.00  0.00    +0.000 C 
ATOM     10  N   UNL     1      15.877  12.228  31.532  0.00  0.00    +0.000 NA
ENDBRANCH   6   9
BRANCH   1  11
ATOM     11  C   UNL     1      17.348   9.796  36.936  0.00  0.00    +0.000 C 
BRANCH  11  15
ATOM     12  C   UNL     1      21.122  11.537  37.962  0.00  0.00    +0.000 A 
ATOM     13  C   UNL     1      21.037  10.300  37.340  0.00  0.00    +0.000 A 
ATOM     14  C   UNL     1      19.810   9.762  37.021  0.00  0.00    +0.000 A 
ATOM     15  C   UNL     1      18.627  10.413  37.298  0.00  0.00    +0.000 A 
ATOM     16  C   UNL     1      18.699  11.643  37.915  0.00  0.00    +0.000 A 
ATOM     17  C   UNL     1      19.930  12.175  38.233  0.00  0.00    +0.000 A 
BRANCH  12  19
ATOM     18  C   UNL     1      22.356  13.444  38.725  0.00  0.00    +0.000 C 
ATOM     19  O   UNL     1      22.356  12.099  38.293  0.00  0.00    +0.000 OA
ENDBRANCH  12  19
ENDBRANCH  11  15
ENDBRANCH   1  11
TORSDOF 4
ENDMDL
MODEL 3
REMARK VINA RESULT:      -5.9     18.375     19.547
REMARK  Name = 
REMARK  4 active torsions:
REMARK  status: ('A' for Active; 'I' for Inactive)
REMARK    1  A    between atoms: O_2  and  C_3
REMARK    2  A    between atoms: C_6  and  C_7
REMARK    3  A    between atoms: C_7  and  N_8
REMARK    4  A    between atoms: C_13  and  C_14
REMARK                            x       y       z     vdW  Elec       q    Type
REMARK                         _______ _______ _______ _____ _____    ______ ____
ROOT
ATOM      1  N   UNL     1      27.601  23.054  24.816  0.00  0.00    +0.000 N 
ATOM      2  C   UNL     1      28.863  23.115  25.215  0.00  0.00    +0.000 A 
ATOM      3  C   UNL     1      29.364  22.765  26.573  0.00  0.00    +0.000 C 
ATOM      4  C   UNL     1      29.689  23.553  24.199  0.00  0.00    +0.000 A 
ATOM      5  C   UNL     1      31.157  23.770  24.197  0.00  0.00    +0.000 C 
ATOM      6  C   UNL     1      28.858  23.769  23.113  0.00  0.00    +0.000 A 
ATOM      7  C   UNL     1      27.571  23.451  23.529  0.00  0.00    +0.000 A 
ATOM      8  N   UNL     1      26.423  23.550  22.670  0.00  0.00    +0.000 NA
ENDROOT
BRANCH   6   9
ATOM      9  C   UNL     1      29.290  24.235  21.825  0.00  0.00    +0.000 C 
ATOM     10  N   UNL     1      29.627  24.606  20.769  0.00  0.00    +0.000 NA
ENDBRANCH   6   9
BRANCH   1  11
ATOM     11  C   UNL     1      26.408  22.646  25.562  0.00  0.00    +0.000 C 
BRANCH  11  15
ATOM     12  C   UNL     1      25.009  25.847  28.035  0.00  0.00    +0.000 A 
ATOM     13  C   UNL     1      25.632  24.731  28.574  0.00  0.00    +0.000 A 
ATOM     14  C   UNL     1      26.073  23.716  27.756  0.00  0.00    +0.000 A 
ATOM     15  C   UNL     1      25.920  23.754  26.386  0.00  0.00    +0.000 A 
ATOM     16  C   UNL     1      25.302  24.859  25.840  0.00  0.00    +0.000 A 
ATOM     17  C   UNL     1      24.863  25.872  26.664  0.00  0.00    +0.000 A 
BRANCH  12  19
ATOM     18  C   UNL     1      23.419  26.631  29.648  0.00  0.00    +0.000 C 
ATOM     19  O   UNL     1      24.555  26.888  28.848  0.00  0.00    +0.000 OA
ENDBRANCH  12  19
ENDBRANCH  11  15
ENDBRANCH   1  11
TORSDOF 4
ENDMDL
MODEL 4
REMARK VINA RESULT:      -5.7     18.747     19.861
REMARK  Name = 
REMARK  4 active torsions:
REMARK  status: ('A' for Active; 'I' for Inactive)
REMARK    1  A    between atoms: O_2  and  C_3
REMARK    2  A    between atoms: C_6  and  C_7
REMARK    3  A    between atoms: C_7  and  N_8
REMARK    4  A    between atoms: C_13  and  C_14
REMARK                            x       y       z     vdW  Elec       q    Type
REMARK                         _______ _______ _______ _____ _____    ______ ____
ROOT
ATOM      1  N   UNL     1      26.518  25.117  23.952  0.00  0.00    +0.000 N 
ATOM      2  C   UNL     1      27.079  26.309  24.088  0.00  0.00    +0.000 A 
ATOM      3  C   UNL     1      26.720  27.329  25.113  0.00  0.00    +0.000 C 
ATOM      4  C   UNL     1      28.066  26.509  23.143  0.00  0.00    +0.000 A 
ATOM      5  C   UNL     1      28.946  27.684  22.923  0.00  0.00    +0.000 C 
ATOM      6  C   UNL     1      28.096  25.349  22.388  0.00  0.00    +0.000 A 
ATOM      7  C   UNL     1      27.124  24.508  22.915  0.00  0.00    +0.000 A 
ATOM      8  N   UNL     1      26.855  23.198  22.390  0.00  0.00    +0.000 NA
ENDROOT
BRANCH   6   9
ATOM      9  C   UNL     1      28.980  25.110  21.281  0.00  0.00    +0.000 C 
ATOM     10  N   UNL     1      29.714  24.916  20.393  0.00  0.00    +0.000 NA
ENDBRANCH   6   9
BRANCH   1  11
ATOM     11  C   UNL     1      25.442  24.501  24.732  0.00  0.00    +0.000 C 
BRANCH  11  15
ATOM     12  C   UNL     1      26.917  23.051  28.481  0.00  0.00    +0.000 A 
ATOM     13  C   UNL     1      25.885  23.976  28.414  0.00  0.00    +0.000 A 
ATOM     14  C   UNL     1      25.429  24.426  27.195  0.00  0.00    +0.000 A 
ATOM     15  C   UNL     1      25.965  23.989  26.002  0.00  0.00    +0.000 A 
ATOM     16  C   UNL     1      26.990  23.069  26.056  0.00  0.00    +0.000 A 
ATOM     17  C   UNL     1      27.442  22.623  27.280  0.00  0.00    +0.000 A 
BRANCH  12  19
ATOM     18  C   UNL     1      26.583  21.651  30.397  0.00  0.00    +0.000 C 
ATOM     19  O   UNL     1      27.392  22.582  29.707  0.00  0.00    +0.000 OA
ENDBRANCH  12  19
ENDBRANCH  11  15
ENDBRANCH   1  11
TORSDOF 4
ENDMDL
MODEL 5
REMARK VINA RESULT:      -5.6     20.370     21.566
REMARK  Name = 
REMARK  4 active torsions:
REMARK  status: ('A' for Active; 'I' for Inactive)
REMARK    1  A    between atoms: O_2  and  C_3
REMARK    2  A    between atoms: C_6  and  C_7
REMARK    3  A    between atoms: C_7  and  N_8
REMARK    4  A    between atoms: C_13  and  C_14
REMARK                            x       y       z     vdW  Elec       q    Type
REMARK                         _______ _______ _______ _____ _____    ______ ____
ROOT
ATOM      1  N   UNL     1      27.986  24.758  22.716  0.00  0.00    +0.000 N 
ATOM      2  C   UNL     1      27.386  25.816  23.241  0.00  0.00    +0.000 A 
ATOM      3  C   UNL     1      26.425  25.797  24.379  0.00  0.00    +0.000 C 
ATOM      4  C   UNL     1      27.763  26.977  22.595  0.00  0.00    +0.000 A 
ATOM      5  C   UNL     1      27.345  28.380  22.844  0.00  0.00    +0.000 C 
ATOM      6  C   UNL     1      28.654  26.582  21.612  0.00  0.00    +0.000 A 
ATOM      7  C   UNL     1      28.769  25.201  21.714  0.00  0.00    +0.000 A 
ATOM      8  N   UNL     1      29.614  24.421  20.853  0.00  0.00    +0.000 NA
ENDROOT
BRANCH   6   9
ATOM      9  C   UNL     1      29.307  27.467  20.688  0.00  0.00    +0.000 C 
ATOM     10  N   UNL     1      29.833  28.176  19.923  0.00  0.00    +0.000 NA
ENDBRANCH   6   9
BRANCH   1  11
ATOM     11  C   UNL     1      27.877  23.346  23.090  0.00  0.00    +0.000 C 
BRANCH  11  15
ATOM     12  C   UNL     1      30.373  22.479  26.458  0.00  0.00    +0.000 A 
ATOM     13  C   UNL     1      28.991  22.511  26.567  0.00  0.00    +0.000 A 
ATOM     14  C   UNL     1      28.211  22.792  25.468  0.00  0.00    +0.000 A 
ATOM     15  C   UNL     1      28.753  23.052  24.227  0.00  0.00    +0.000 A 
ATOM     16  C   UNL     1      30.126  23.023  24.107  0.00  0.00    +0.000 A 
ATOM     17  C   UNL     1      30.901  22.741  25.212  0.00  0.00    +0.000 A 
BRANCH  12  19
ATOM     18  C   UNL     1      32.001  23.240  28.044  0.00  0.00    +0.000 C 
ATOM     19  O   UNL     1      31.181  22.196  27.561  0.00  0.00    +0.000 OA
ENDBRANCH  12  19
ENDBRANCH  11  15
ENDBRANCH   1  11
TORSDOF 4
ENDMDL
MODEL 6
REMARK VINA RESULT:      -5.5      1.819      3.430
REMARK  Name = 
REMARK  4 active torsions:
REMARK  status: ('A' for Active; 'I' for Inactive)
REMARK    1  A    between atoms: O_2  and  C_3
REMARK    2  A    between atoms: C_6  and  C_7
REMARK    3  A    between atoms: C_7  and  N_8
REMARK    4  A    between atoms: C_13  and  C_14
REMARK                            x       y       z     vdW  Elec       q    Type
REMARK                         _______ _______ _______ _____ _____    ______ ____
ROOT
ATOM      1  N   UNL     1      17.636  10.000  37.056  0.00  0.00    +0.000 N 
ATOM      2  C   UNL     1      16.631  10.441  37.798  0.00  0.00    +0.000 A 
ATOM      3  C   UNL     1      16.480  10.239  39.267  0.00  0.00    +0.000 C 
ATOM      4  C   UNL     1      15.710  11.131  37.036  0.00  0.00    +0.000 A 
ATOM      5  C   UNL     1      14.444  11.791  37.443  0.00  0.00    +0.000 C 
ATOM      6  C   UNL     1      16.202  11.100  35.742  0.00  0.00    +0.000 A 
ATOM      7  C   UNL     1      17.396  10.392  35.789  0.00  0.00    +0.000 A 
ATOM      8  N   UNL     1      18.208  10.147  34.629  0.00  0.00    +0.000 NA
ENDROOT
BRANCH   6   9
ATOM      9  C   UNL     1      15.564  11.700  34.604  0.00  0.00    +0.000 C 
ATOM     10  N   UNL     1      15.035  12.171  33.674  0.00  0.00    +0.000 NA
ENDBRANCH   6   9
BRANCH   1  11
ATOM     11  C   UNL     1      18.818   9.231  37.452  0.00  0.00    +0.000 C 
BRANCH  11  15
ATOM     12  C   UNL     1      22.149  11.871  37.963  0.00  0.00    +0.000 A 
ATOM     13  C   UNL     1      20.935  12.103  38.591  0.00  0.00    +0.000 A 
ATOM     14  C   UNL     1      19.879  11.238  38.410  0.00  0.00    +0.000 A 
ATOM     15  C   UNL     1      19.973  10.119  37.610  0.00  0.00    +0.000 A 
ATOM     16  C   UNL     1      21.175   9.878  36.981  0.00  0.00    +0.000 A 
ATOM     17  C   UNL     1      22.228  10.748  37.167  0.00  0.00    +0.000 A 
BRANCH  12  19
ATOM     18  C   UNL     1      22.983  13.950  38.814  0.00  0.00    +0.000 C 
ATOM     19  O   UNL     1      23.231  12.736  38.135  0.00  0.00    +0.000 OA
ENDBRANCH  12  19
ENDBRANCH  11  15
ENDBRANCH   1  11
TORSDOF 4
ENDMDL
MODEL 7
REMARK VINA RESULT:      -5.4     18.350     19.580
REMARK  Name = 
REMARK  4 active torsions:
REMARK  status: ('A' for Active; 'I' for Inactive)
REMARK    1  A    between atoms: O_2  and  C_3
REMARK    2  A    between atoms: C_6  and  C_7
REMARK    3  A    between atoms: C_7  and  N_8
REMARK    4  A    between atoms: C_13  and  C_14
REMARK                            x       y       z     vdW  Elec       q    Type
REMARK                         _______ _______ _______ _____ _____    ______ ____
ROOT
ATOM      1  N   UNL     1      26.810  23.398  26.118  0.00  0.00    +0.000 N 
ATOM      2  C   UNL     1      25.871  24.332  26.080  0.00  0.00    +0.000 A 
ATOM      3  C   UNL     1      25.325  24.968  24.849  0.00  0.00    +0.000 C 
ATOM      4  C   UNL     1      25.441  24.661  27.350  0.00  0.00    +0.000 A 
ATOM      5  C   UNL     1      24.415  25.645  27.779  0.00  0.00    +0.000 C 
ATOM      6  C   UNL     1      26.177  23.864  28.209  0.00  0.00    +0.000 A 
ATOM      7  C   UNL     1      27.017  23.094  27.414  0.00  0.00    +0.000 A 
ATOM      8  N   UNL     1      27.942  22.135  27.951  0.00  0.00    +0.000 NA
ENDROOT
BRANCH   6   9
ATOM      9  C   UNL     1      26.061  23.869  29.641  0.00  0.00    +0.000 C 
ATOM     10  N   UNL     1      25.951  23.863  30.804  0.00  0.00    +0.000 NA
ENDBRANCH   6   9
BRANCH   1  11
ATOM     11  C   UNL     1      27.536  22.763  25.015  0.00  0.00    +0.000 C 
BRANCH  11  15
ATOM     12  C   UNL     1      31.521  24.300  24.726  0.00  0.00    +0.000 A 
ATOM     13  C   UNL     1      31.275  22.946  24.906  0.00  0.00    +0.000 A 
ATOM     14  C   UNL     1      29.983  22.478  24.995  0.00  0.00    +0.000 A 
ATOM     15  C   UNL     1      28.890  23.314  24.914  0.00  0.00    +0.000 A 
ATOM     16  C   UNL     1      29.123  24.660  24.735  0.00  0.00    +0.000 A 
ATOM     17  C   UNL     1      30.418  25.123  24.646  0.00  0.00    +0.000 A 
BRANCH  12  19
ATOM     18  C   UNL     1      33.090  26.030  25.263  0.00  0.00    +0.000 C 
ATOM     19  O   UNL     1      32.824  24.793  24.632  0.00  0.00    +0.000 OA
ENDBRANCH  12  19
ENDBRANCH  11  15
ENDBRANCH   1  11
TORSDOF 4
ENDMDL
MODEL 8
REMARK VINA RESULT:      -5.4     18.210     19.610
REMARK  Name = 
REMARK  4 active torsions:
REMARK  status: ('A' for Active; 'I' for Inactive)
REMARK    1  A    between atoms: O_2  and  C_3
REMARK    2  A    between atoms: C_6  and  C_7
REMARK    3  A    between atoms: C_7  and  N_8
REMARK    4  A    between atoms: C_13  and  C_14
REMARK                            x       y       z     vdW  Elec       q    Type
REMARK                         _______ _______ _______ _____ _____    ______ ____
ROOT
ATOM      1  N   UNL     1      27.874  22.712  25.508  0.00  0.00    +0.000 N 
ATOM      2  C   UNL     1      28.829  22.964  24.626  0.00  0.00    +0.000 A 
ATOM      3  C   UNL     1      28.620  23.331  23.197  0.00  0.00    +0.000 C 
ATOM      4  C   UNL     1      30.081  22.846  25.196  0.00  0.00    +0.000 A 
ATOM      5  C   UNL     1      31.422  23.036  24.589  0.00  0.00    +0.000 C 
ATOM      6  C   UNL     1      29.855  22.498  26.517  0.00  0.00    +0.000 A 
ATOM      7  C   UNL     1      28.478  22.423  26.677  0.00  0.00    +0.000 A 
ATOM      8  N   UNL     1      27.852  22.084  27.926  0.00  0.00    +0.000 NA
ENDROOT
BRANCH   6   9
ATOM      9  C   UNL     1      30.882  22.269  27.495  0.00  0.00    +0.000 C 
ATOM     10  N   UNL     1      31.724  22.099  28.288  0.00  0.00    +0.000 NA
ENDBRANCH   6   9
BRANCH   1  11
ATOM     11  C   UNL     1      26.419  22.723  25.334  0.00  0.00    +0.000 C 
BRANCH  11  15
ATOM     12  C   UNL     1      24.843  26.585  26.296  0.00  0.00    +0.000 A 
ATOM     13  C   UNL     1      25.338  26.296  25.033  0.00  0.00    +0.000 A 
ATOM     14  C   UNL     1      25.839  25.045  24.749  0.00  0.00    +0.000 A 
ATOM     15  C   UNL     1      25.875  24.037  25.688  0.00  0.00    +0.000 A 
ATOM     16  C   UNL     1      25.384  24.312  26.946  0.00  0.00    +0.000 A 
ATOM     17  C   UNL     1      24.884  25.567  27.224  0.00  0.00    +0.000 A 
BRANCH  12  19
ATOM     18  C   UNL     1      23.198  27.894  27.447  0.00  0.00    +0.000 C 
ATOM     19  O   UNL     1      24.329  27.847  26.602  0.00  0.00    +0.000 OA
ENDBRANCH  12  19
ENDBRANCH  11  15
ENDBRANCH   1  11
TORSDOF 4
ENDMDL
MODEL 9
REMARK VINA RESULT:      -5.4     19.907     21.351
REMARK  Name = 
REMARK  4 active torsions:
REMARK  status: ('A' for Active; 'I' for Inactive)
REMARK    1  A    between atoms: O_2  and  C_3
REMARK    2  A    between atoms: C_6  and  C_7
REMARK    3  A    between atoms: C_7  and  N_8
REMARK    4  A    between atoms: C_13  and  C_14
REMARK                            x       y       z     vdW  Elec       q    Type
REMARK                         _______ _______ _______ _____ _____    ______ ____
ROOT
ATOM      1  N   UNL     1      28.841  22.877  24.617  0.00  0.00    +0.000 N 
ATOM      2  C   UNL     1      30.030  22.773  25.190  0.00  0.00    +0.000 A 
ATOM      3  C   UNL     1      31.344  22.863  24.492  0.00  0.00    +0.000 C 
ATOM      4  C   UNL     1      29.915  22.566  26.551  0.00  0.00    +0.000 A 
ATOM      5  C   UNL     1      30.972  22.395  27.577  0.00  0.00    +0.000 C 
ATOM      6  C   UNL     1      28.555  22.546  26.808  0.00  0.00    +0.000 A 
ATOM      7  C   UNL     1      27.918  22.741  25.589  0.00  0.00    +0.000 A 
ATOM      8  N   UNL     1      26.488  22.782  25.450  0.00  0.00    +0.000 NA
ENDROOT
BRANCH   6   9
ATOM      9  C   UNL     1      27.965  22.356  28.103  0.00  0.00    +0.000 C 
ATOM     10  N   UNL     1      27.468  22.200  29.149  0.00  0.00    +0.000 NA
ENDBRANCH   6   9
BRANCH   1  11
ATOM     11  C   UNL     1      28.502  23.098  23.209  0.00  0.00    +0.000 C 
BRANCH  11  15
ATOM     12  C   UNL     1      29.095  27.191  22.104  0.00  0.00    +0.000 A 
ATOM     13  C   UNL     1      29.438  26.152  21.253  0.00  0.00    +0.000 A 
ATOM     14  C   UNL     1      29.236  24.844  21.632  0.00  0.00    +0.000 A 
ATOM     15  C   UNL     1      28.695  24.507  22.855  0.00  0.00    +0.000 A 
ATOM     16  C   UNL     1      28.350  25.532  23.709  0.00  0.00    +0.000 A 
ATOM     17  C   UNL     1      28.555  26.839  23.323  0.00  0.00    +0.000 A 
BRANCH  12  19
ATOM     18  C   UNL     1      28.135  29.313  21.540  0.00  0.00    +0.000 C 
ATOM     19  O   UNL     1      29.291  28.524  21.737  0.00  0.00    +0.000 OA
ENDBRANCH  12  19
ENDBRANCH  11  15
ENDBRANCH   1  11
TORSDOF 4
ENDMDL
MODEL 10
REMARK VINA RESULT:      -5.3     17.356     18.652
REMARK  Name = 
REMARK  4 active torsions:
REMARK  status: ('A' for Active; 'I' for Inactive)
REMARK    1  A    between atoms: O_2  and  C_3
REMARK    2  A    between atoms: C_6  and  C_7
REMARK    3  A    between atoms: C_7  and  N_8
REMARK    4  A    between atoms: C_13  and  C_14
REMARK                            x       y       z     vdW  Elec       q    Type
REMARK                         _______ _______ _______ _____ _____    ______ ____
ROOT
ATOM      1  N   UNL     1      28.573  22.351  26.741  0.00  0.00    +0.000 N 
ATOM      2  C   UNL     1      29.877  22.419  26.517  0.00  0.00    +0.000 A 
ATOM      3  C   UNL     1      30.948  22.122  27.510  0.00  0.00    +0.000 C 
ATOM      4  C   UNL     1      30.142  22.810  25.220  0.00  0.00    +0.000 A 
ATOM      5  C   UNL     1      31.445  23.016  24.539  0.00  0.00    +0.000 C 
ATOM      6  C   UNL     1      28.904  22.986  24.626  0.00  0.00    +0.000 A 
ATOM      7  C   UNL     1      27.954  22.695  25.596  0.00  0.00    +0.000 A 
ATOM      8  N   UNL     1      26.539  22.766  25.352  0.00  0.00    +0.000 NA
ENDROOT
BRANCH   6   9
ATOM      9  C   UNL     1      28.695  23.395  23.265  0.00  0.00    +0.000 C 
ATOM     10  N   UNL     1      28.533  23.745  22.161  0.00  0.00    +0.000 NA
ENDBRANCH   6   9
BRANCH   1  11
ATOM     11  C   UNL     1      27.857  21.981  27.965  0.00  0.00    +0.000 C 
BRANCH  11  15
ATOM     12  C   UNL     1      26.619  25.479  30.101  0.00  0.00    +0.000 A 
ATOM     13  C   UNL     1      25.712  24.692  29.406  0.00  0.00    +0.000 A 
ATOM     14  C   UNL     1      26.137  23.572  28.728  0.00  0.00    +0.000 A 
ATOM     15  C   UNL     1      27.459  23.183  28.703  0.00  0.00    +0.000 A 
ATOM     16  C   UNL     1      28.369  23.957  29.390  0.00  0.00    +0.000 A 
ATOM     17  C   UNL     1      27.938  25.077  30.068  0.00  0.00    +0.000 A 
BRANCH  12  19
ATOM     18  C   UNL     1      25.362  26.421  31.910  0.00  0.00    +0.000 C 
ATOM     19  O   UNL     1      26.208  26.618  30.796  0.00  0.00    +0.000 OA
ENDBRANCH  12  19
ENDBRANCH  11  15
ENDBRANCH   1  11
TORSDOF 4
ENDMDL
