MODEL 1
REMARK VINA RESULT:      -5.7      0.000      0.000
REMARK  Name = 
REMARK  6 active torsions:
REMARK  status: ('A' for Active; 'I' for Inactive)
REMARK    1  A    between atoms: O_2  and  C_3
REMARK    2  A    between atoms: C_6  and  N_7
REMARK    3  A    between atoms: N_7  and  C_8
REMARK    4  A    between atoms: C_8  and  C_9
REMARK    5  A    between atoms: C_12  and  N_13
REMARK    6  A    between atoms: C_17  and  O_18
REMARK                            x       y       z     vdW  Elec       q    Type
REMARK                         _______ _______ _______ _____ _____    ______ ____
ROOT
ATOM      1  C   UNL     1      15.593  11.655  33.188  0.00  0.00    +0.000 A 
ATOM      2  C   UNL     1      16.595  10.710  33.202  0.00  0.00    +0.000 A 
ATOM      3  C   UNL     1      17.127  10.216  34.369  0.00  0.00    +0.000 A 
ATOM      4  C   UNL     1      16.639  10.683  35.580  0.00  0.00    +0.000 A 
ATOM      5  C   UNL     1      15.636  11.629  35.609  0.00  0.00    +0.000 A 
ATOM      6  C   UNL     1      15.136  12.094  34.417  0.00  0.00    +0.000 A 
ENDROOT
BRANCH   1   8
ATOM      7  C   UNL     1      14.656  11.295  30.946  0.00  0.00    +0.000 C 
ATOM      8  O   UNL     1      15.071  12.140  31.982  0.00  0.00    +0.000 OA
ENDBRANCH   1   8
BRANCH   5   9
ATOM      9  O   UNL     1      15.179  12.068  36.852  0.00  0.00    +0.000 OA
ATOM     10  C   UNL     1      13.846  11.804  37.259  0.00  0.00    +0.000 C 
ENDBRANCH   5   9
BRANCH   4  11
ATOM     11  N   UNL     1      17.181  10.180  36.797  0.00  0.00    +0.000 NA
BRANCH  11  12
ATOM     12  C   UNL     1      18.354   9.338  36.842  0.00  0.00    +0.000 C 
BRANCH  12  13
ATOM     13  C   UNL     1      19.558  10.085  37.274  0.00  0.00    +0.000 A 
ATOM     14  C   UNL     1      20.827   9.853  36.839  0.00  0.00    +0.000 A 
ATOM     15  C   UNL     1      21.801  10.615  37.325  0.00  0.00    +0.000 A 
ATOM     16  C   UNL     1      21.473  11.583  38.231  0.00  0.00    +0.000 A 
ATOM     17  S   UNL     1      19.784  11.378  38.363  0.00  0.00    +0.000 S 
BRANCH  16  18
ATOM     18  N   UNL     1      22.290  12.526  38.906  0.00  0.00    +0.000 N 
ATOM     19  O   UNL     1      22.904  12.155  39.916  0.00  0.00    +0.000 OA
ATOM     20  O   UNL     1      22.435  13.820  38.504  0.00  0.00    +0.000 OA
ENDBRANCH  16  18
ENDBRANCH  12  13
ENDBRANCH  11  12
ENDBRANCH   4  11
TORSDOF 6
ENDMDL
MODEL 2
REMARK VINA RESULT:      -5.7      2.053      3.352
REMARK  Name = 
REMARK  6 active torsions:
REMARK  status: ('A' for Active; 'I' for Inactive)
REMARK    1  A    between atoms: O_2  and  C_3
REMARK    2  A    between atoms: C_6  and  N_7
REMARK    3  A    between atoms: N_7  and  C_8
REMARK    4  A    between atoms: C_8  and  C_9
REMARK    5  A    between atoms: C_12  and  N_13
REMARK    6  A    between atoms: C_17  and  O_18
REMARK                            x       y       z     vdW  Elec       q    Type
REMARK                         _______ _______ _______ _____ _____    ______ ____
ROOT
ATOM      1  C   UNL     1      14.267  11.670  36.815  0.00  0.00    +0.000 A 
ATOM      2  C   UNL     1      14.916  11.194  37.933  0.00  0.00    +0.000 A 
ATOM      3  C   UNL     1      16.236  10.811  37.914  0.00  0.00    +0.000 A 
ATOM      4  C   UNL     1      16.945  10.907  36.727  0.00  0.00    +0.000 A 
ATOM      5  C   UNL     1      16.332  11.378  35.585  0.00  0.00    +0.000 A 
ATOM      6  C   UNL     1      15.012  11.748  35.652  0.00  0.00    +0.000 A 
ENDROOT
BRANCH   1   8
ATOM      7  C   UNL     1      12.462  13.267  36.343  0.00  0.00    +0.000 C 
ATOM      8  O   UNL     1      12.921  12.052  36.866  0.00  0.00    +0.000 OA
ENDBRANCH   1   8
BRANCH   5   9
ATOM      9  O   UNL     1      17.089  11.455  34.415  0.00  0.00    +0.000 OA
ATOM     10  C   UNL     1      16.773  10.633  33.303  0.00  0.00    +0.000 C 
ENDBRANCH   5   9
BRANCH   4  11
ATOM     11  N   UNL     1      18.314  10.513  36.692  0.00  0.00    +0.000 NA
BRANCH  11  12
ATOM     12  C   UNL     1      19.168  10.549  37.857  0.00  0.00    +0.000 C 
BRANCH  12  13
ATOM     13  C   UNL     1      20.603  10.523  37.493  0.00  0.00    +0.000 A 
ATOM     14  C   UNL     1      21.178   9.652  36.618  0.00  0.00    +0.000 A 
ATOM     15  C   UNL     1      22.484   9.760  36.399  0.00  0.00    +0.000 A 
ATOM     16  C   UNL     1      23.173  10.734  37.064  0.00  0.00    +0.000 A 
ATOM     17  S   UNL     1      21.935  11.469  37.983  0.00  0.00    +0.000 S 
BRANCH  16  18
ATOM     18  N   UNL     1      24.549  11.075  37.029  0.00  0.00    +0.000 N 
ATOM     19  O   UNL     1      24.877  12.225  37.351  0.00  0.00    +0.000 OA
ATOM     20  O   UNL     1      25.531  10.205  36.659  0.00  0.00    +0.000 OA
ENDBRANCH  16  18
ENDBRANCH  12  13
ENDBRANCH  11  12
ENDBRANCH   4  11
TORSDOF 6
ENDMDL
MODEL 3
REMARK VINA RESULT:      -5.4      4.099      4.877
REMARK  Name = 
REMARK  6 active torsions:
REMARK  status: ('A' for Active; 'I' for Inactive)
REMARK    1  A    between atoms: O_2  and  C_3
REMARK    2  A    between atoms: C_6  and  N_7
REMARK    3  A    between atoms: N_7  and  C_8
REMARK    4  A    between atoms: C_8  and  C_9
REMARK    5  A    between atoms: C_12  and  N_13
REMARK    6  A    between atoms: C_17  and  O_18
REMARK                            x       y       z     vdW  Elec       q    Type
REMARK                         _______ _______ _______ _____ _____    ______ ____
ROOT
ATOM      1  C   UNL     1      16.515  11.121  34.187  0.00  0.00    +0.000 A 
ATOM      2  C   UNL     1      17.505  10.216  34.496  0.00  0.00    +0.000 A 
ATOM      3  C   UNL     1      17.780   9.833  35.787  0.00  0.00    +0.000 A 
ATOM      4  C   UNL     1      17.033  10.377  36.821  0.00  0.00    +0.000 A 
ATOM      5  C   UNL     1      16.033  11.287  36.554  0.00  0.00    +0.000 A 
ATOM      6  C   UNL     1      15.795  11.640  35.248  0.00  0.00    +0.000 A 
ENDROOT
BRANCH   1   8
ATOM      7  C   UNL     1      16.232  10.566  31.811  0.00  0.00    +0.000 C 
ATOM      8  O   UNL     1      16.259  11.491  32.861  0.00  0.00    +0.000 OA
ENDBRANCH   1   8
BRANCH   5   9
ATOM      9  O   UNL     1      15.310  11.807  37.629  0.00  0.00    +0.000 OA
ATOM     10  C   UNL     1      13.985  11.365  37.881  0.00  0.00    +0.000 C 
ENDBRANCH   5   9
BRANCH   4  11
ATOM     11  N   UNL     1      17.307   9.990  38.164  0.00  0.00    +0.000 NA
BRANCH  11  12
ATOM     12  C   UNL     1      18.434   9.162  38.526  0.00  0.00    +0.000 C 
BRANCH  12  13
ATOM     13  C   UNL     1      18.116   8.254  39.652  0.00  0.00    +0.000 A 
ATOM     14  C   UNL     1      18.666   7.023  39.850  0.00  0.00    +0.000 A 
ATOM     15  C   UNL     1      18.273   6.330  40.913  0.00  0.00    +0.000 A 
ATOM     16  C   UNL     1      17.343   6.890  41.742  0.00  0.00    +0.000 A 
ATOM     17  S   UNL     1      17.056   8.390  40.981  0.00  0.00    +0.000 S 
BRANCH  16  18
ATOM     18  N   UNL     1      16.748   6.389  42.929  0.00  0.00    +0.000 N 
ATOM     19  O   UNL     1      15.830   7.039  43.445  0.00  0.00    +0.000 OA
ATOM     20  O   UNL     1      17.135   5.230  43.533  0.00  0.00    +0.000 OA
ENDBRANCH  16  18
ENDBRANCH  12  13
ENDBRANCH  11  12
ENDBRANCH   4  11
TORSDOF 6
ENDMDL
MODEL 4
REMARK VINA RESULT:      -5.4      3.400      3.837
REMARK  Name = 
REMARK  6 active torsions:
REMARK  status: ('A' for Active; 'I' for Inactive)
REMARK    1  A    between atoms: O_2  and  C_3
REMARK    2  A    between atoms: C_6  and  N_7
REMARK    3  A    between atoms: N_7  and  C_8
REMARK    4  A    between atoms: C_8  and  C_9
REMARK    5  A    between atoms: C_12  and  N_13
REMARK    6  A    between atoms: C_17  and  O_18
REMARK                            x       y       z     vdW  Elec       q    Type
REMARK                         _______ _______ _______ _____ _____    ______ ____
ROOT
ATOM      1  C   UNL     1      15.281  12.222  33.136  0.00  0.00    +0.000 A 
ATOM      2  C   UNL     1      16.340  11.365  33.330  0.00  0.00    +0.000 A 
ATOM      3  C   UNL     1      16.689  10.890  34.572  0.00  0.00    +0.000 A 
ATOM      4  C   UNL     1      15.948  11.288  35.674  0.00  0.00    +0.000 A 
ATOM      5  C   UNL     1      14.879  12.146  35.523  0.00  0.00    +0.000 A 
ATOM      6  C   UNL     1      14.568  12.594  34.262  0.00  0.00    +0.000 A 
ENDROOT
BRANCH   1   8
ATOM      7  C   UNL     1      13.866  13.543  31.624  0.00  0.00    +0.000 C 
ATOM      8  O   UNL     1      14.949  12.689  31.858  0.00  0.00    +0.000 OA
ENDBRANCH   1   8
BRANCH   5   9
ATOM      9  O   UNL     1      14.165  12.517  36.663  0.00  0.00    +0.000 OA
ATOM     10  C   UNL     1      12.857  12.013  36.883  0.00  0.00    +0.000 C 
ENDBRANCH   5   9
BRANCH   4  11
ATOM     11  N   UNL     1      16.298  10.805  36.967  0.00  0.00    +0.000 NA
BRANCH  11  12
ATOM     12  C   UNL     1      17.652  10.459  37.333  0.00  0.00    +0.000 C 
BRANCH  12  13
ATOM     13  C   UNL     1      17.708   9.714  38.612  0.00  0.00    +0.000 A 
ATOM     14  C   UNL     1      16.786   9.794  39.611  0.00  0.00    +0.000 A 
ATOM     15  C   UNL     1      16.982   9.059  40.700  0.00  0.00    +0.000 A 
ATOM     16  C   UNL     1      18.096   8.270  40.756  0.00  0.00    +0.000 A 
ATOM     17  S   UNL     1      18.831   8.600  39.250  0.00  0.00    +0.000 S 
BRANCH  16  18
ATOM     18  N   UNL     1      18.555   7.397  41.774  0.00  0.00    +0.000 N 
ATOM     19  O   UNL     1      18.730   6.204  41.491  0.00  0.00    +0.000 OA
ATOM     20  O   UNL     1      18.814   7.800  43.051  0.00  0.00    +0.000 OA
ENDBRANCH  16  18
ENDBRANCH  12  13
ENDBRANCH  11  12
ENDBRANCH   4  11
TORSDOF 6
ENDMDL
MODEL 5
REMARK VINA RESULT:      -5.3      4.453      7.857
REMARK  Name = 
REMARK  6 active torsions:
REMARK  status: ('A' for Active; 'I' for Inactive)
REMARK    1  A    between atoms: O_2  and  C_3
REMARK    2  A    between atoms: C_6  and  N_7
REMARK    3  A    between atoms: N_7  and  C_8
REMARK    4  A    between atoms: C_8  and  C_9
REMARK    5  A    between atoms: C_12  and  N_13
REMARK    6  A    between atoms: C_17  and  O_18
REMARK                            x       y       z     vdW  Elec       q    Type
REMARK                         _______ _______ _______ _____ _____    ______ ____
ROOT
ATOM      1  C   UNL     1      16.513   8.329  42.552  0.00  0.00    +0.000 A 
ATOM      2  C   UNL     1      16.064   9.365  41.763  0.00  0.00    +0.000 A 
ATOM      3  C   UNL     1      16.583   9.623  40.517  0.00  0.00    +0.000 A 
ATOM      4  C   UNL     1      17.597   8.812  40.031  0.00  0.00    +0.000 A 
ATOM      5  C   UNL     1      18.075   7.764  40.789  0.00  0.00    +0.000 A 
ATOM      6  C   UNL     1      17.526   7.545  42.029  0.00  0.00    +0.000 A 
ENDROOT
BRANCH   1   8
ATOM      7  C   UNL     1      15.340   6.884  44.154  0.00  0.00    +0.000 C 
ATOM      8  O   UNL     1      15.964   8.091  43.818  0.00  0.00    +0.000 OA
ENDBRANCH   1   8
BRANCH   5   9
ATOM      9  O   UNL     1      19.096   6.977  40.256  0.00  0.00    +0.000 OA
ATOM     10  C   UNL     1      19.078   5.569  40.426  0.00  0.00    +0.000 C 
ENDBRANCH   5   9
BRANCH   4  11
ATOM     11  N   UNL     1      18.144   9.068  38.741  0.00  0.00    +0.000 NA
BRANCH  11  12
ATOM     12  C   UNL     1      18.126  10.377  38.129  0.00  0.00    +0.000 C 
BRANCH  12  13
ATOM     13  C   UNL     1      17.658  10.326  36.725  0.00  0.00    +0.000 A 
ATOM     14  C   UNL     1      18.034   9.398  35.803  0.00  0.00    +0.000 A 
ATOM     15  C   UNL     1      17.521   9.492  34.580  0.00  0.00    +0.000 A 
ATOM     16  C   UNL     1      16.651  10.512  34.320  0.00  0.00    +0.000 A 
ATOM     17  S   UNL     1      16.589  11.308  35.829  0.00  0.00    +0.000 S 
BRANCH  16  18
ATOM     18  N   UNL     1      15.963  10.853  33.128  0.00  0.00    +0.000 N 
ATOM     19  O   UNL     1      16.336  11.853  32.500  0.00  0.00    +0.000 OA
ATOM     20  O   UNL     1      14.911  10.140  32.636  0.00  0.00    +0.000 OA
ENDBRANCH  16  18
ENDBRANCH  12  13
ENDBRANCH  11  12
ENDBRANCH   4  11
TORSDOF 6
ENDMDL
MODEL 6
REMARK VINA RESULT:      -5.3      2.071      3.189
REMARK  Name = 
REMARK  6 active torsions:
REMARK  status: ('A' for Active; 'I' for Inactive)
REMARK    1  A    between atoms: O_2  and  C_3
REMARK    2  A    between atoms: C_6  and  N_7
REMARK    3  A    between atoms: N_7  and  C_8
REMARK    4  A    between atoms: C_8  and  C_9
REMARK    5  A    between atoms: C_12  and  N_13
REMARK    6  A    between atoms: C_17  and  O_18
REMARK                            x       y       z     vdW  Elec       q    Type
REMARK                         _______ _______ _______ _____ _____    ______ ____
ROOT
ATOM      1  C   UNL     1      14.470  12.905  34.919  0.00  0.00    +0.000 A 
ATOM      2  C   UNL     1      14.887  12.502  36.168  0.00  0.00    +0.000 A 
ATOM      3  C   UNL     1      15.769  11.464  36.353  0.00  0.00    +0.000 A 
ATOM      4  C   UNL     1      16.260  10.795  35.243  0.00  0.00    +0.000 A 
ATOM      5  C   UNL     1      15.867  11.167  33.975  0.00  0.00    +0.000 A 
ATOM      6  C   UNL     1      14.984  12.210  33.838  0.00  0.00    +0.000 A 
ENDROOT
BRANCH   1   8
ATOM      7  C   UNL     1      13.410  14.645  33.548  0.00  0.00    +0.000 C 
ATOM      8  O   UNL     1      13.571  13.967  34.761  0.00  0.00    +0.000 OA
ENDBRANCH   1   8
BRANCH   5   9
ATOM      9  O   UNL     1      16.389  10.461  32.889  0.00  0.00    +0.000 OA
ATOM     10  C   UNL     1      15.974  10.771  31.568  0.00  0.00    +0.000 C 
ENDBRANCH   5   9
BRANCH   4  11
ATOM     11  N   UNL     1      17.174   9.717  35.420  0.00  0.00    +0.000 NA
BRANCH  11  12
ATOM     12  C   UNL     1      18.603   9.908  35.499  0.00  0.00    +0.000 C 
BRANCH  12  13
ATOM     13  C   UNL     1      19.114   9.714  36.876  0.00  0.00    +0.000 A 
ATOM     14  C   UNL     1      18.396   9.214  37.919  0.00  0.00    +0.000 A 
ATOM     15  C   UNL     1      19.003   9.103  39.096  0.00  0.00    +0.000 A 
ATOM     16  C   UNL     1      20.307   9.497  39.191  0.00  0.00    +0.000 A 
ATOM     17  S   UNL     1      20.630  10.014  37.596  0.00  0.00    +0.000 S 
BRANCH  16  18
ATOM     18  N   UNL     1      21.191   9.494  40.300  0.00  0.00    +0.000 N 
ATOM     19  O   UNL     1      20.919   8.769  41.266  0.00  0.00    +0.000 OA
ATOM     20  O   UNL     1      22.325  10.249  40.360  0.00  0.00    +0.000 OA
ENDBRANCH  16  18
ENDBRANCH  12  13
ENDBRANCH  11  12
ENDBRANCH   4  11
TORSDOF 6
ENDMDL
MODEL 7
REMARK VINA RESULT:      -5.3     17.287     19.475
REMARK  Name = 
REMARK  6 active torsions:
REMARK  status: ('A' for Active; 'I' for Inactive)
REMARK    1  A    between atoms: O_2  and  C_3
REMARK    2  A    between atoms: C_6  and  N_7
REMARK    3  A    between atoms: N_7  and  C_8
REMARK    4  A    between atoms: C_8  and  C_9
REMARK    5  A    between atoms: C_12  and  N_13
REMARK    6  A    between atoms: C_17  and  O_18
REMARK                            x       y       z     vdW  Elec       q    Type
REMARK                         _______ _______ _______ _____ _____    ______ ____
ROOT
ATOM      1  C   UNL     1      31.110  21.717  31.522  0.00  0.00    +0.000 A 
ATOM      2  C   UNL     1      32.036  21.627  30.507  0.00  0.00    +0.000 A 
ATOM      3  C   UNL     1      31.791  22.098  29.239  0.00  0.00    +0.000 A 
ATOM      4  C   UNL     1      30.566  22.687  28.967  0.00  0.00    +0.000 A 
ATOM      5  C   UNL     1      29.611  22.796  29.956  0.00  0.00    +0.000 A 
ATOM      6  C   UNL     1      29.900  22.311  31.207  0.00  0.00    +0.000 A 
ENDROOT
BRANCH   1   8
ATOM      7  C   UNL     1      30.511  21.394  33.881  0.00  0.00    +0.000 C 
ATOM      8  O   UNL     1      31.388  21.228  32.804  0.00  0.00    +0.000 OA
ENDBRANCH   1   8
BRANCH   5   9
ATOM      9  O   UNL     1      28.393  23.396  29.632  0.00  0.00    +0.000 OA
ATOM     10  C   UNL     1      28.023  24.629  30.228  0.00  0.00    +0.000 C 
ENDBRANCH   5   9
BRANCH   4  11
ATOM     11  N   UNL     1      30.298  23.179  27.658  0.00  0.00    +0.000 NA
BRANCH  11  12
ATOM     12  C   UNL     1      30.259  22.324  26.494  0.00  0.00    +0.000 C 
BRANCH  12  13
ATOM     13  C   UNL     1      29.112  22.640  25.612  0.00  0.00    +0.000 A 
ATOM     14  C   UNL     1      27.806  22.667  25.998  0.00  0.00    +0.000 A 
ATOM     15  C   UNL     1      26.892  22.970  25.082  0.00  0.00    +0.000 A 
ATOM     16  C   UNL     1      27.314  23.233  23.810  0.00  0.00    +0.000 A 
ATOM     17  S   UNL     1      29.004  23.042  23.958  0.00  0.00    +0.000 S 
BRANCH  16  18
ATOM     18  N   UNL     1      26.577  23.576  22.648  0.00  0.00    +0.000 N 
ATOM     19  O   UNL     1      26.931  24.568  21.999  0.00  0.00    +0.000 OA
ATOM     20  O   UNL     1      25.495  22.871  22.208  0.00  0.00    +0.000 OA
ENDBRANCH  16  18
ENDBRANCH  12  13
ENDBRANCH  11  12
ENDBRANCH   4  11
TORSDOF 6
ENDMDL
MODEL 8
REMARK VINA RESULT:      -5.2     18.161     19.528
REMARK  Name = 
REMARK  6 active torsions:
REMARK  status: ('A' for Active; 'I' for Inactive)
REMARK    1  A    between atoms: O_2  and  C_3
REMARK    2  A    between atoms: C_6  and  N_7
REMARK    3  A    between atoms: N_7  and  C_8
REMARK    4  A    between atoms: C_8  and  C_9
REMARK    5  A    between atoms: C_12  and  N_13
REMARK    6  A    between atoms: C_17  and  O_18
REMARK                            x       y       z     vdW  Elec       q    Type
REMARK                         _______ _______ _______ _____ _____    ______ ____
ROOT
ATOM      1  C   UNL     1      24.939  25.603  29.918  0.00  0.00    +0.000 A 
ATOM      2  C   UNL     1      24.671  25.963  28.616  0.00  0.00    +0.000 A 
ATOM      3  C   UNL     1      25.215  25.303  27.540  0.00  0.00    +0.000 A 
ATOM      4  C   UNL     1      26.065  24.233  27.769  0.00  0.00    +0.000 A 
ATOM      5  C   UNL     1      26.360  23.840  29.058  0.00  0.00    +0.000 A 
ATOM      6  C   UNL     1      25.794  24.530  30.101  0.00  0.00    +0.000 A 
ENDROOT
BRANCH   1   8
ATOM      7  C   UNL     1      25.119  26.725  32.095  0.00  0.00    +0.000 C 
ATOM      8  O   UNL     1      24.370  26.294  30.994  0.00  0.00    +0.000 OA
ENDBRANCH   1   8
BRANCH   5   9
ATOM      9  O   UNL     1      27.222  22.758  29.236  0.00  0.00    +0.000 OA
ATOM     10  C   UNL     1      26.852  21.679  30.081  0.00  0.00    +0.000 C 
ENDBRANCH   5   9
BRANCH   4  11
ATOM     11  N   UNL     1      26.636  23.540  26.663  0.00  0.00    +0.000 NA
BRANCH  11  12
ATOM     12  C   UNL     1      25.875  23.174  25.492  0.00  0.00    +0.000 C 
BRANCH  12  13
ATOM     13  C   UNL     1      26.532  23.620  24.241  0.00  0.00    +0.000 A 
ATOM     14  C   UNL     1      26.039  23.438  22.985  0.00  0.00    +0.000 A 
ATOM     15  C   UNL     1      26.753  23.899  21.964  0.00  0.00    +0.000 A 
ATOM     16  C   UNL     1      27.937  24.526  22.233  0.00  0.00    +0.000 A 
ATOM     17  S   UNL     1      27.996  24.440  23.936  0.00  0.00    +0.000 S 
BRANCH  16  18
ATOM     18  N   UNL     1      28.890  25.107  21.358  0.00  0.00    +0.000 N 
ATOM     19  O   UNL     1      29.728  24.366  20.826  0.00  0.00    +0.000 OA
ATOM     20  O   UNL     1      28.935  26.439  21.071  0.00  0.00    +0.000 OA
ENDBRANCH  16  18
ENDBRANCH  12  13
ENDBRANCH  11  12
ENDBRANCH   4  11
TORSDOF 6
ENDMDL
MODEL 9
REMARK VINA RESULT:      -5.2     19.557     20.538
REMARK  Name = 
REMARK  6 active torsions:
REMARK  status: ('A' for Active; 'I' for Inactive)
REMARK    1  A    between atoms: O_2  and  C_3
REMARK    2  A    between atoms: C_6  and  N_7
REMARK    3  A    between atoms: N_7  and  C_8
REMARK    4  A    between atoms: C_8  and  C_9
REMARK    5  A    between atoms: C_12  and  N_13
REMARK    6  A    between atoms: C_17  and  O_18
REMARK                            x       y       z     vdW  Elec       q    Type
REMARK                         _______ _______ _______ _____ _____    ______ ____
ROOT
ATOM      1  C   UNL     1      29.196  25.603  20.850  0.00  0.00    +0.000 A 
ATOM      2  C   UNL     1      29.269  24.422  21.555  0.00  0.00    +0.000 A 
ATOM      3  C   UNL     1      28.526  24.191  22.688  0.00  0.00    +0.000 A 
ATOM      4  C   UNL     1      27.669  25.181  23.142  0.00  0.00    +0.000 A 
ATOM      5  C   UNL     1      27.567  26.378  22.466  0.00  0.00    +0.000 A 
ATOM      6  C   UNL     1      28.329  26.565  21.339  0.00  0.00    +0.000 A 
ENDROOT
BRANCH   1   8
ATOM      7  C   UNL     1      30.107  27.068  19.103  0.00  0.00    +0.000 C 
ATOM      8  O   UNL     1      29.965  25.810  19.699  0.00  0.00    +0.000 OA
ENDBRANCH   1   8
BRANCH   5   9
ATOM      9  O   UNL     1      26.690  27.344  22.963  0.00  0.00    +0.000 OA
ATOM     10  C   UNL     1      26.496  28.563  22.264  0.00  0.00    +0.000 C 
ENDBRANCH   5   9
BRANCH   4  11
ATOM     11  N   UNL     1      26.893  24.955  24.315  0.00  0.00    +0.000 NA
BRANCH  11  12
ATOM     12  C   UNL     1      26.442  23.642  24.714  0.00  0.00    +0.000 C 
BRANCH  12  13
ATOM     13  C   UNL     1      26.701  23.378  26.148  0.00  0.00    +0.000 A 
ATOM     14  C   UNL     1      27.693  22.583  26.636  0.00  0.00    +0.000 A 
ATOM     15  C   UNL     1      27.791  22.449  27.954  0.00  0.00    +0.000 A 
ATOM     16  C   UNL     1      26.893  23.113  28.741  0.00  0.00    +0.000 A 
ATOM     17  S   UNL     1      25.934  23.910  27.576  0.00  0.00    +0.000 S 
BRANCH  16  18
ATOM     18  N   UNL     1      26.760  23.154  30.152  0.00  0.00    +0.000 N 
ATOM     19  O   UNL     1      25.955  22.381  30.689  0.00  0.00    +0.000 OA
ATOM     20  O   UNL     1      27.469  24.000  30.951  0.00  0.00    +0.000 OA
ENDBRANCH  16  18
ENDBRANCH  12  13
ENDBRANCH  11  12
ENDBRANCH   4  11
TORSDOF 6
ENDMDL
MODEL 10
REMARK VINA RESULT:      -5.2     18.207     19.399
REMARK  Name = 
REMARK  6 active torsions:
REMARK  status: ('A' for Active; 'I' for Inactive)
REMARK    1  A    between atoms: O_2  and  C_3
REMARK    2  A    between atoms: C_6  and  N_7
REMARK    3  A    between atoms: N_7  and  C_8
REMARK    4  A    between atoms: C_8  and  C_9
REMARK    5  A    between atoms: C_12  and  N_13
REMARK    6  A    between atoms: C_17  and  O_18
REMARK                            x       y       z     vdW  Elec       q    Type
REMARK                         _______ _______ _______ _____ _____    ______ ____
ROOT
ATOM      1  C   UNL     1      25.977  24.613  30.680  0.00  0.00    +0.000 A 
ATOM      2  C   UNL     1      26.536  23.476  30.139  0.00  0.00    +0.000 A 
ATOM      3  C   UNL     1      26.478  23.193  28.795  0.00  0.00    +0.000 A 
ATOM      4  C   UNL     1      25.835  24.082  27.948  0.00  0.00    +0.000 A 
ATOM      5  C   UNL     1      25.262  25.232  28.450  0.00  0.00    +0.000 A 
ATOM      6  C   UNL     1      25.344  25.473  29.800  0.00  0.00    +0.000 A 
ENDROOT
BRANCH   1   8
ATOM      7  C   UNL     1      25.945  26.166  32.581  0.00  0.00    +0.000 C 
ATOM      8  O   UNL     1      26.052  24.875  32.053  0.00  0.00    +0.000 OA
ENDBRANCH   1   8
BRANCH   5   9
ATOM      9  O   UNL     1      24.626  26.095  27.558  0.00  0.00    +0.000 OA
ATOM     10  C   UNL     1      23.229  26.324  27.656  0.00  0.00    +0.000 C 
ENDBRANCH   5   9
BRANCH   4  11
ATOM     11  N   UNL     1      25.767  23.801  26.554  0.00  0.00    +0.000 NA
BRANCH  11  12
ATOM     12  C   UNL     1      26.519  22.735  25.933  0.00  0.00    +0.000 C 
BRANCH  12  13
ATOM     13  C   UNL     1      27.481  23.245  24.929  0.00  0.00    +0.000 A 
ATOM     14  C   UNL     1      28.819  22.991  24.921  0.00  0.00    +0.000 A 
ATOM     15  C   UNL     1      29.547  23.526  23.947  0.00  0.00    +0.000 A 
ATOM     16  C   UNL     1      28.914  24.299  23.015  0.00  0.00    +0.000 A 
ATOM     17  S   UNL     1      27.296  24.239  23.556  0.00  0.00    +0.000 S 
BRANCH  16  18
ATOM     18  N   UNL     1      29.429  24.985  21.886  0.00  0.00    +0.000 N 
ATOM     19  O   UNL     1      29.634  26.203  21.981  0.00  0.00    +0.000 OA
ATOM     20  O   UNL     1      29.709  24.377  20.698  0.00  0.00    +0.000 OA
ENDBRANCH  16  18
ENDBRANCH  12  13
ENDBRANCH  11  12
ENDBRANCH   4  11
TORSDOF 6
ENDMDL
