MODEL 1
REMARK VINA RESULT:      -8.2      0.000      0.000
REMARK  Name = 
REMARK  9 active torsions:
REMARK  status: ('A' for Active; 'I' for Inactive)
REMARK    1  A    between atoms: C_2  and  N_5
REMARK    2  A    between atoms: N_5  and  C_6
REMARK    3  A    between atoms: N_5  and  C_14
REMARK    4  A    between atoms: C_6  and  C_7
REMARK    5  A    between atoms: C_14  and  C_15
REMARK    6  A    between atoms: C_18  and  C_19
REMARK    7  A    between atoms: N_21  and  C_22
REMARK    8  A    between atoms: C_22  and  C_23
REMARK    9  A    between atoms: C_23  and  C_24
REMARK                            x       y       z     vdW  Elec       q    Type
REMARK                         _______ _______ _______ _____ _____    ______ ____
ROOT
ATOM      1  C   UNL     1      36.158  -0.149  15.801  0.00  0.00    +0.000 A 
ATOM      2  C   UNL     1      35.085   0.192  16.631  0.00  0.00    +0.000 A 
ATOM      3  C   UNL     1      35.216   1.521  16.913  0.00  0.00    +0.000 A 
ATOM      4  C   UNL     1      36.331   1.967  16.273  0.00  0.00    +0.000 A 
ATOM      5  O   UNL     1      36.844   0.923  15.631  0.00  0.00    +0.000 OA
ENDROOT
BRANCH   4   6
ATOM      6  C   UNL     1      36.937   3.308  16.218  0.00  0.00    +0.000 C 
ATOM      7  O   UNL     1      36.663   4.065  15.208  0.00  0.00    +0.000 OA
ATOM      8  N   UNL     1      37.791   3.856  17.145  0.00  0.00    +0.000 NA
BRANCH   8   9
ATOM      9  C   UNL     1      38.492   4.988  17.374  0.00  0.00    +0.000 C 
BRANCH   9  10
ATOM     10  C   UNL     1      38.968   5.505  18.628  0.00  0.00    +0.000 C 
BRANCH  10  11
ATOM     11  C   UNL     1      40.305   5.991  18.823  0.00  0.00    +0.000 A 
ATOM     12  C   UNL     1      41.124   6.216  17.701  0.00  0.00    +0.000 A 
ATOM     13  C   UNL     1      42.437   6.650  17.896  0.00  0.00    +0.000 A 
ATOM     14  C   UNL     1      42.929   6.855  19.165  0.00  0.00    +0.000 A 
ATOM     15  C   UNL     1      42.134   6.637  20.254  0.00  0.00    +0.000 A 
ATOM     16  C   UNL     1      40.841   6.212  20.053  0.00  0.00    +0.000 A 
ENDBRANCH  10  11
ENDBRANCH   9  10
ENDBRANCH   8   9
ENDBRANCH   4   6
BRANCH   1  17
ATOM     17  C   UNL     1      36.468  -1.468  15.219  0.00  0.00    +0.000 C 
BRANCH  17  18
ATOM     18  N   UNL     1      37.695  -2.012  15.652  0.00  0.00    +0.000 NA
BRANCH  18  20
ATOM     19  C   UNL     1      38.569  -3.979  16.666  0.00  0.00    +0.000 C 
ATOM     20  C   UNL     1      37.709  -2.713  16.885  0.00  0.00    +0.000 C 
ATOM     21  C   UNL     1      36.300  -3.262  17.099  0.00  0.00    +0.000 C 
ATOM     22  C   UNL     1      38.230  -1.972  18.057  0.00  0.00    +0.000 C 
ENDBRANCH  18  20
BRANCH  18  23
ATOM     23  C   UNL     1      38.609  -2.415  14.648  0.00  0.00    +0.000 C 
BRANCH  23  24
ATOM     24  C   UNL     1      39.806  -1.568  14.463  0.00  0.00    +0.000 A 
ATOM     25  C   UNL     1      41.008  -2.250  14.575  0.00  0.00    +0.000 A 
ATOM     26  C   UNL     1      42.203  -1.550  14.440  0.00  0.00    +0.000 A 
ATOM     27  C   UNL     1      42.254  -0.210  14.200  0.00  0.00    +0.000 A 
ATOM     28  F   UNL     1      43.428   0.460  14.068  0.00  0.00    +0.000 F 
ATOM     29  C   UNL     1      41.028   0.443  14.090  0.00  0.00    +0.000 A 
ATOM     30  C   UNL     1      39.853  -0.229  14.219  0.00  0.00    +0.000 A 
ENDBRANCH  23  24
ENDBRANCH  18  23
ENDBRANCH  17  18
ENDBRANCH   1  17
TORSDOF 9
ENDMDL
MODEL 2
REMARK VINA RESULT:      -8.1      2.497      4.728
REMARK  Name = 
REMARK  9 active torsions:
REMARK  status: ('A' for Active; 'I' for Inactive)
REMARK    1  A    between atoms: C_2  and  N_5
REMARK    2  A    between atoms: N_5  and  C_6
REMARK    3  A    between atoms: N_5  and  C_14
REMARK    4  A    between atoms: C_6  and  C_7
REMARK    5  A    between atoms: C_14  and  C_15
REMARK    6  A    between atoms: C_18  and  C_19
REMARK    7  A    between atoms: N_21  and  C_22
REMARK    8  A    between atoms: C_22  and  C_23
REMARK    9  A    between atoms: C_23  and  C_24
REMARK                            x       y       z     vdW  Elec       q    Type
REMARK                         _______ _______ _______ _____ _____    ______ ____
ROOT
ATOM      1  C   UNL     1      39.047  -1.693  15.825  0.00  0.00    +0.000 A 
ATOM      2  C   UNL     1      40.166  -2.313  15.261  0.00  0.00    +0.000 A 
ATOM      3  C   UNL     1      40.824  -1.355  14.545  0.00  0.00    +0.000 A 
ATOM      4  C   UNL     1      40.125  -0.195  14.675  0.00  0.00    +0.000 A 
ATOM      5  O   UNL     1      39.078  -0.466  15.448  0.00  0.00    +0.000 OA
ENDROOT
BRANCH   4   6
ATOM      6  C   UNL     1      40.380   1.149  14.129  0.00  0.00    +0.000 C 
ATOM      7  O   UNL     1      41.402   1.314  13.358  0.00  0.00    +0.000 OA
ATOM      8  N   UNL     1      39.634   2.279  14.361  0.00  0.00    +0.000 NA
BRANCH   8   9
ATOM      9  C   UNL     1      39.605   3.592  14.042  0.00  0.00    +0.000 C 
BRANCH   9  10
ATOM     10  C   UNL     1      38.956   4.667  14.742  0.00  0.00    +0.000 C 
BRANCH  10  11
ATOM     11  C   UNL     1      39.270   5.028  16.095  0.00  0.00    +0.000 A 
ATOM     12  C   UNL     1      38.450   4.559  17.138  0.00  0.00    +0.000 A 
ATOM     13  C   UNL     1      38.734   4.947  18.450  0.00  0.00    +0.000 A 
ATOM     14  C   UNL     1      39.797   5.776  18.724  0.00  0.00    +0.000 A 
ATOM     15  C   UNL     1      40.594   6.231  17.712  0.00  0.00    +0.000 A 
ATOM     16  C   UNL     1      40.309   5.842  16.423  0.00  0.00    +0.000 A 
ENDBRANCH  10  11
ENDBRANCH   9  10
ENDBRANCH   8   9
ENDBRANCH   4   6
BRANCH   1  17
ATOM     17  C   UNL     1      38.016  -2.299  16.688  0.00  0.00    +0.000 C 
BRANCH  17  18
ATOM     18  N   UNL     1      36.707  -2.199  16.175  0.00  0.00    +0.000 NA
BRANCH  18  20
ATOM     19  C   UNL     1      36.756  -4.571  16.359  0.00  0.00    +0.000 C 
ATOM     20  C   UNL     1      36.120  -3.368  15.626  0.00  0.00    +0.000 C 
ATOM     21  C   UNL     1      36.641  -3.497  14.196  0.00  0.00    +0.000 C 
ATOM     22  C   UNL     1      34.645  -3.470  15.720  0.00  0.00    +0.000 C 
ENDBRANCH  18  20
BRANCH  18  23
ATOM     23  C   UNL     1      35.850  -1.247  16.780  0.00  0.00    +0.000 C 
BRANCH  23  24
ATOM     24  C   UNL     1      35.716   0.056  16.095  0.00  0.00    +0.000 A 
ATOM     25  C   UNL     1      35.062   1.026  16.840  0.00  0.00    +0.000 A 
ATOM     26  C   UNL     1      34.861   2.286  16.286  0.00  0.00    +0.000 A 
ATOM     27  C   UNL     1      35.278   2.622  15.034  0.00  0.00    +0.000 A 
ATOM     28  F   UNL     1      35.076   3.857  14.507  0.00  0.00    +0.000 F 
ATOM     29  C   UNL     1      35.934   1.624  14.315  0.00  0.00    +0.000 A 
ATOM     30  C   UNL     1      36.138   0.388  14.844  0.00  0.00    +0.000 A 
ENDBRANCH  23  24
ENDBRANCH  18  23
ENDBRANCH  17  18
ENDBRANCH   1  17
TORSDOF 9
ENDMDL
MODEL 3
REMARK VINA RESULT:      -8.1      2.276      4.229
REMARK  Name = 
REMARK  9 active torsions:
REMARK  status: ('A' for Active; 'I' for Inactive)
REMARK    1  A    between atoms: C_2  and  N_5
REMARK    2  A    between atoms: N_5  and  C_6
REMARK    3  A    between atoms: N_5  and  C_14
REMARK    4  A    between atoms: C_6  and  C_7
REMARK    5  A    between atoms: C_14  and  C_15
REMARK    6  A    between atoms: C_18  and  C_19
REMARK    7  A    between atoms: N_21  and  C_22
REMARK    8  A    between atoms: C_22  and  C_23
REMARK    9  A    between atoms: C_23  and  C_24
REMARK                            x       y       z     vdW  Elec       q    Type
REMARK                         _______ _______ _______ _____ _____    ______ ____
ROOT
ATOM      1  C   UNL     1      40.097   0.462  14.396  0.00  0.00    +0.000 A 
ATOM      2  C   UNL     1      40.672   1.229  13.378  0.00  0.00    +0.000 A 
ATOM      3  C   UNL     1      40.222   2.506  13.550  0.00  0.00    +0.000 A 
ATOM      4  C   UNL     1      39.403   2.509  14.637  0.00  0.00    +0.000 A 
ATOM      5  O   UNL     1      39.371   1.261  15.092  0.00  0.00    +0.000 OA
ENDROOT
BRANCH   4   6
ATOM      6  C   UNL     1      38.659   3.606  15.278  0.00  0.00    +0.000 C 
ATOM      7  O   UNL     1      37.927   4.367  14.535  0.00  0.00    +0.000 OA
ATOM      8  N   UNL     1      38.663   3.923  16.615  0.00  0.00    +0.000 NA
BRANCH   8   9
ATOM      9  C   UNL     1      38.131   4.820  17.475  0.00  0.00    +0.000 C 
BRANCH   9  10
ATOM     10  C   UNL     1      38.675   6.081  17.898  0.00  0.00    +0.000 C 
BRANCH  10  11
ATOM     11  C   UNL     1      40.011   6.236  18.398  0.00  0.00    +0.000 A 
ATOM     12  C   UNL     1      40.221   6.289  19.788  0.00  0.00    +0.000 A 
ATOM     13  C   UNL     1      41.518   6.481  20.271  0.00  0.00    +0.000 A 
ATOM     14  C   UNL     1      42.578   6.618  19.404  0.00  0.00    +0.000 A 
ATOM     15  C   UNL     1      42.375   6.565  18.055  0.00  0.00    +0.000 A 
ATOM     16  C   UNL     1      41.094   6.373  17.587  0.00  0.00    +0.000 A 
ENDBRANCH  10  11
ENDBRANCH   9  10
ENDBRANCH   8   9
ENDBRANCH   4   6
BRANCH   1  17
ATOM     17  C   UNL     1      40.270  -0.980  14.650  0.00  0.00    +0.000 C 
BRANCH  17  18
ATOM     18  N   UNL     1      39.063  -1.711  14.652  0.00  0.00    +0.000 NA
BRANCH  18  20
ATOM     19  C   UNL     1      37.642  -1.032  12.868  0.00  0.00    +0.000 C 
ATOM     20  C   UNL     1      38.556  -2.157  13.405  0.00  0.00    +0.000 C 
ATOM     21  C   UNL     1      37.590  -3.301  13.702  0.00  0.00    +0.000 C 
ATOM     22  C   UNL     1      39.561  -2.497  12.371  0.00  0.00    +0.000 C 
ENDBRANCH  18  20
BRANCH  18  23
ATOM     23  C   UNL     1      38.790  -2.496  15.800  0.00  0.00    +0.000 C 
BRANCH  23  24
ATOM     24  C   UNL     1      38.023  -1.844  16.882  0.00  0.00    +0.000 A 
ATOM     25  C   UNL     1      37.071  -0.938  16.439  0.00  0.00    +0.000 A 
ATOM     26  C   UNL     1      36.303  -0.248  17.372  0.00  0.00    +0.000 A 
ATOM     27  C   UNL     1      36.439  -0.418  18.715  0.00  0.00    +0.000 A 
ATOM     28  F   UNL     1      35.681   0.261  19.615  0.00  0.00    +0.000 F 
ATOM     29  C   UNL     1      37.403  -1.338  19.126  0.00  0.00    +0.000 A 
ATOM     30  C   UNL     1      38.160  -2.020  18.225  0.00  0.00    +0.000 A 
ENDBRANCH  23  24
ENDBRANCH  18  23
ENDBRANCH  17  18
ENDBRANCH   1  17
TORSDOF 9
ENDMDL
MODEL 4
REMARK VINA RESULT:      -7.9      2.618      4.148
REMARK  Name = 
REMARK  9 active torsions:
REMARK  status: ('A' for Active; 'I' for Inactive)
REMARK    1  A    between atoms: C_2  and  N_5
REMARK    2  A    between atoms: N_5  and  C_6
REMARK    3  A    between atoms: N_5  and  C_14
REMARK    4  A    between atoms: C_6  and  C_7
REMARK    5  A    between atoms: C_14  and  C_15
REMARK    6  A    between atoms: C_18  and  C_19
REMARK    7  A    between atoms: N_21  and  C_22
REMARK    8  A    between atoms: C_22  and  C_23
REMARK    9  A    between atoms: C_23  and  C_24
REMARK                            x       y       z     vdW  Elec       q    Type
REMARK                         _______ _______ _______ _____ _____    ______ ____
ROOT
ATOM      1  C   UNL     1      36.681  -0.186  16.317  0.00  0.00    +0.000 A 
ATOM      2  C   UNL     1      35.317   0.084  16.463  0.00  0.00    +0.000 A 
ATOM      3  C   UNL     1      35.190   1.443  16.503  0.00  0.00    +0.000 A 
ATOM      4  C   UNL     1      36.438   1.974  16.383  0.00  0.00    +0.000 A 
ATOM      5  O   UNL     1      37.278   0.950  16.278  0.00  0.00    +0.000 OA
ENDROOT
BRANCH   4   6
ATOM      6  C   UNL     1      36.888   3.376  16.352  0.00  0.00    +0.000 C 
ATOM      7  O   UNL     1      36.406   4.155  15.443  0.00  0.00    +0.000 OA
ATOM      8  N   UNL     1      37.795   3.960  17.203  0.00  0.00    +0.000 NA
BRANCH   8   9
ATOM      9  C   UNL     1      38.398   5.149  17.426  0.00  0.00    +0.000 C 
BRANCH   9  10
ATOM     10  C   UNL     1      38.915   5.669  18.662  0.00  0.00    +0.000 C 
BRANCH  10  11
ATOM     11  C   UNL     1      40.283   6.064  18.840  0.00  0.00    +0.000 A 
ATOM     12  C   UNL     1      41.101   6.234  17.707  0.00  0.00    +0.000 A 
ATOM     13  C   UNL     1      42.443   6.579  17.884  0.00  0.00    +0.000 A 
ATOM     14  C   UNL     1      42.964   6.750  19.147  0.00  0.00    +0.000 A 
ATOM     15  C   UNL     1      42.171   6.585  20.247  0.00  0.00    +0.000 A 
ATOM     16  C   UNL     1      40.849   6.248  20.062  0.00  0.00    +0.000 A 
ENDBRANCH  10  11
ENDBRANCH   9  10
ENDBRANCH   8   9
ENDBRANCH   4   6
BRANCH   1  17
ATOM     17  C   UNL     1      37.336  -1.504  16.222  0.00  0.00    +0.000 C 
BRANCH  17  18
ATOM     18  N   UNL     1      37.844  -1.801  14.940  0.00  0.00    +0.000 NA
BRANCH  18  20
ATOM     19  C   UNL     1      39.526  -2.663  13.495  0.00  0.00    +0.000 C 
ATOM     20  C   UNL     1      39.252  -1.852  14.781  0.00  0.00    +0.000 C 
ATOM     21  C   UNL     1      39.792  -2.745  15.896  0.00  0.00    +0.000 C 
ATOM     22  C   UNL     1      39.951  -0.549  14.689  0.00  0.00    +0.000 C 
ENDBRANCH  18  20
BRANCH  18  23
ATOM     23  C   UNL     1      37.051  -2.635  14.113  0.00  0.00    +0.000 C 
BRANCH  23  24
ATOM     24  C   UNL     1      36.394  -3.786  14.767  0.00  0.00    +0.000 A 
ATOM     25  C   UNL     1      35.088  -4.005  14.353  0.00  0.00    +0.000 A 
ATOM     26  C   UNL     1      34.363  -5.050  14.918  0.00  0.00    +0.000 A 
ATOM     27  C   UNL     1      34.875  -5.880  15.867  0.00  0.00    +0.000 A 
ATOM     28  F   UNL     1      34.156  -6.898  16.407  0.00  0.00    +0.000 F 
ATOM     29  C   UNL     1      36.191  -5.633  16.256  0.00  0.00    +0.000 A 
ATOM     30  C   UNL     1      36.911  -4.616  15.713  0.00  0.00    +0.000 A 
ENDBRANCH  23  24
ENDBRANCH  18  23
ENDBRANCH  17  18
ENDBRANCH   1  17
TORSDOF 9
ENDMDL
MODEL 5
REMARK VINA RESULT:      -7.8      1.062      1.794
REMARK  Name = 
REMARK  9 active torsions:
REMARK  status: ('A' for Active; 'I' for Inactive)
REMARK    1  A    between atoms: C_2  and  N_5
REMARK    2  A    between atoms: N_5  and  C_6
REMARK    3  A    between atoms: N_5  and  C_14
REMARK    4  A    between atoms: C_6  and  C_7
REMARK    5  A    between atoms: C_14  and  C_15
REMARK    6  A    between atoms: C_18  and  C_19
REMARK    7  A    between atoms: N_21  and  C_22
REMARK    8  A    between atoms: C_22  and  C_23
REMARK    9  A    between atoms: C_23  and  C_24
REMARK                            x       y       z     vdW  Elec       q    Type
REMARK                         _______ _______ _______ _____ _____    ______ ____
ROOT
ATOM      1  C   UNL     1      36.301   0.904  15.365  0.00  0.00    +0.000 A 
ATOM      2  C   UNL     1      35.977   1.664  14.237  0.00  0.00    +0.000 A 
ATOM      3  C   UNL     1      36.616   2.862  14.377  0.00  0.00    +0.000 A 
ATOM      4  C   UNL     1      37.302   2.825  15.551  0.00  0.00    +0.000 A 
ATOM      5  O   UNL     1      37.070   1.633  16.090  0.00  0.00    +0.000 OA
ENDROOT
BRANCH   4   6
ATOM      6  C   UNL     1      38.166   3.831  16.194  0.00  0.00    +0.000 C 
ATOM      7  O   UNL     1      38.996   4.488  15.455  0.00  0.00    +0.000 OA
ATOM      8  N   UNL     1      38.191   4.151  17.529  0.00  0.00    +0.000 NA
BRANCH   8   9
ATOM      9  C   UNL     1      38.834   4.969  18.393  0.00  0.00    +0.000 C 
BRANCH   9  10
ATOM     10  C   UNL     1      39.653   6.111  18.098  0.00  0.00    +0.000 C 
BRANCH  10  11
ATOM     11  C   UNL     1      40.954   6.317  18.669  0.00  0.00    +0.000 A 
ATOM     12  C   UNL     1      41.095   6.323  20.070  0.00  0.00    +0.000 A 
ATOM     13  C   UNL     1      42.355   6.564  20.624  0.00  0.00    +0.000 A 
ATOM     14  C   UNL     1      43.445   6.794  19.816  0.00  0.00    +0.000 A 
ATOM     15  C   UNL     1      43.309   6.788  18.457  0.00  0.00    +0.000 A 
ATOM     16  C   UNL     1      42.065   6.547  17.920  0.00  0.00    +0.000 A 
ENDBRANCH  10  11
ENDBRANCH   9  10
ENDBRANCH   8   9
ENDBRANCH   4   6
BRANCH   1  17
ATOM     17  C   UNL     1      35.862  -0.466  15.689  0.00  0.00    +0.000 C 
BRANCH  17  18
ATOM     18  N   UNL     1      36.920  -1.384  15.852  0.00  0.00    +0.000 NA
BRANCH  18  20
ATOM     19  C   UNL     1      35.521  -1.998  17.676  0.00  0.00    +0.000 C 
ATOM     20  C   UNL     1      36.849  -2.290  16.941  0.00  0.00    +0.000 C 
ATOM     21  C   UNL     1      37.921  -1.865  17.942  0.00  0.00    +0.000 C 
ATOM     22  C   UNL     1      36.907  -3.731  16.602  0.00  0.00    +0.000 C 
ENDBRANCH  18  20
BRANCH  18  23
ATOM     23  C   UNL     1      37.590  -1.808  14.677  0.00  0.00    +0.000 C 
BRANCH  23  24
ATOM     24  C   UNL     1      39.018  -1.445  14.560  0.00  0.00    +0.000 A 
ATOM     25  C   UNL     1      39.888  -2.521  14.660  0.00  0.00    +0.000 A 
ATOM     26  C   UNL     1      41.259  -2.296  14.586  0.00  0.00    +0.000 A 
ATOM     27  C   UNL     1      41.799  -1.057  14.417  0.00  0.00    +0.000 A 
ATOM     28  F   UNL     1      43.139  -0.853  14.343  0.00  0.00    +0.000 F 
ATOM     29  C   UNL     1      40.896  -0.000  14.317  0.00  0.00    +0.000 A 
ATOM     30  C   UNL     1      39.553  -0.206  14.388  0.00  0.00    +0.000 A 
ENDBRANCH  23  24
ENDBRANCH  18  23
ENDBRANCH  17  18
ENDBRANCH   1  17
TORSDOF 9
ENDMDL
MODEL 6
REMARK VINA RESULT:      -7.6      2.303      4.070
REMARK  Name = 
REMARK  9 active torsions:
REMARK  status: ('A' for Active; 'I' for Inactive)
REMARK    1  A    between atoms: C_2  and  N_5
REMARK    2  A    between atoms: N_5  and  C_6
REMARK    3  A    between atoms: N_5  and  C_14
REMARK    4  A    between atoms: C_6  and  C_7
REMARK    5  A    between atoms: C_14  and  C_15
REMARK    6  A    between atoms: C_18  and  C_19
REMARK    7  A    between atoms: N_21  and  C_22
REMARK    8  A    between atoms: C_22  and  C_23
REMARK    9  A    between atoms: C_23  and  C_24
REMARK                            x       y       z     vdW  Elec       q    Type
REMARK                         _______ _______ _______ _____ _____    ______ ____
ROOT
ATOM      1  C   UNL     1      39.834   1.044  14.061  0.00  0.00    +0.000 A 
ATOM      2  C   UNL     1      38.941   1.343  13.027  0.00  0.00    +0.000 A 
ATOM      3  C   UNL     1      38.132   2.342  13.486  0.00  0.00    +0.000 A 
ATOM      4  C   UNL     1      38.526   2.637  14.755  0.00  0.00    +0.000 A 
ATOM      5  O   UNL     1      39.542   1.827  15.036  0.00  0.00    +0.000 OA
ENDROOT
BRANCH   4   6
ATOM      6  C   UNL     1      38.017   3.632  15.714  0.00  0.00    +0.000 C 
ATOM      7  O   UNL     1      37.037   4.389  15.350  0.00  0.00    +0.000 OA
ATOM      8  N   UNL     1      38.487   3.853  16.986  0.00  0.00    +0.000 NA
BRANCH   8   9
ATOM      9  C   UNL     1      38.263   4.649  18.056  0.00  0.00    +0.000 C 
BRANCH   9  10
ATOM     10  C   UNL     1      38.770   5.970  18.307  0.00  0.00    +0.000 C 
BRANCH  10  11
ATOM     11  C   UNL     1      40.135   6.235  18.663  0.00  0.00    +0.000 A 
ATOM     12  C   UNL     1      41.094   6.381  17.643  0.00  0.00    +0.000 A 
ATOM     13  C   UNL     1      42.428   6.599  17.994  0.00  0.00    +0.000 A 
ATOM     14  C   UNL     1      42.806   6.669  19.315  0.00  0.00    +0.000 A 
ATOM     15  C   UNL     1      41.876   6.528  20.305  0.00  0.00    +0.000 A 
ATOM     16  C   UNL     1      40.562   6.317  19.951  0.00  0.00    +0.000 A 
ENDBRANCH  10  11
ENDBRANCH   9  10
ENDBRANCH   8   9
ENDBRANCH   4   6
BRANCH   1  17
ATOM     17  C   UNL     1      40.911   0.037  14.063  0.00  0.00    +0.000 C 
BRANCH  17  18
ATOM     18  N   UNL     1      40.480  -1.263  13.723  0.00  0.00    +0.000 NA
BRANCH  18  20
ATOM     19  C   UNL     1      39.828  -2.074  11.583  0.00  0.00    +0.000 C 
ATOM     20  C   UNL     1      41.015  -1.851  12.548  0.00  0.00    +0.000 C 
ATOM     21  C   UNL     1      41.452  -3.266  12.920  0.00  0.00    +0.000 C 
ATOM     22  C   UNL     1      42.069  -1.081  11.848  0.00  0.00    +0.000 C 
ENDBRANCH  18  20
BRANCH  18  23
ATOM     23  C   UNL     1      40.122  -2.121  14.792  0.00  0.00    +0.000 C 
BRANCH  23  24
ATOM     24  C   UNL     1      38.774  -1.935  15.368  0.00  0.00    +0.000 A 
ATOM     25  C   UNL     1      37.752  -1.921  14.430  0.00  0.00    +0.000 A 
ATOM     26  C   UNL     1      36.441  -1.732  14.856  0.00  0.00    +0.000 A 
ATOM     27  C   UNL     1      36.104  -1.557  16.164  0.00  0.00    +0.000 A 
ATOM     28  F   UNL     1      34.820  -1.375  16.566  0.00  0.00    +0.000 F 
ATOM     29  C   UNL     1      37.155  -1.580  17.079  0.00  0.00    +0.000 A 
ATOM     30  C   UNL     1      38.441  -1.765  16.677  0.00  0.00    +0.000 A 
ENDBRANCH  23  24
ENDBRANCH  18  23
ENDBRANCH  17  18
ENDBRANCH   1  17
TORSDOF 9
ENDMDL
MODEL 7
REMARK VINA RESULT:      -7.5     26.142     28.730
REMARK  Name = 
REMARK  9 active torsions:
REMARK  status: ('A' for Active; 'I' for Inactive)
REMARK    1  A    between atoms: C_2  and  N_5
REMARK    2  A    between atoms: N_5  and  C_6
REMARK    3  A    between atoms: N_5  and  C_14
REMARK    4  A    between atoms: C_6  and  C_7
REMARK    5  A    between atoms: C_14  and  C_15
REMARK    6  A    between atoms: C_18  and  C_19
REMARK    7  A    between atoms: N_21  and  C_22
REMARK    8  A    between atoms: C_22  and  C_23
REMARK    9  A    between atoms: C_23  and  C_24
REMARK                            x       y       z     vdW  Elec       q    Type
REMARK                         _______ _______ _______ _____ _____    ______ ____
ROOT
ATOM      1  C   UNL     1      26.026  12.170  42.202  0.00  0.00    +0.000 A 
ATOM      2  C   UNL     1      26.823  13.231  42.644  0.00  0.00    +0.000 A 
ATOM      3  C   UNL     1      26.730  14.210  41.697  0.00  0.00    +0.000 A 
ATOM      4  C   UNL     1      25.902  13.755  40.718  0.00  0.00    +0.000 A 
ATOM      5  O   UNL     1      25.520  12.535  41.080  0.00  0.00    +0.000 OA
ENDROOT
BRANCH   4   6
ATOM      6  C   UNL     1      25.442  14.393  39.472  0.00  0.00    +0.000 C 
ATOM      7  O   UNL     1      24.172  14.465  39.253  0.00  0.00    +0.000 OA
ATOM      8  N   UNL     1      26.237  14.929  38.488  0.00  0.00    +0.000 NA
BRANCH   8   9
ATOM      9  C   UNL     1      26.138  15.542  37.288  0.00  0.00    +0.000 C 
BRANCH   9  10
ATOM     10  C   UNL     1      26.694  15.131  36.028  0.00  0.00    +0.000 C 
BRANCH  10  11
ATOM     11  C   UNL     1      26.057  15.382  34.766  0.00  0.00    +0.000 A 
ATOM     12  C   UNL     1      25.558  16.670  34.494  0.00  0.00    +0.000 A 
ATOM     13  C   UNL     1      24.902  16.901  33.282  0.00  0.00    +0.000 A 
ATOM     14  C   UNL     1      24.741  15.887  32.366  0.00  0.00    +0.000 A 
ATOM     15  C   UNL     1      25.225  14.637  32.629  0.00  0.00    +0.000 A 
ATOM     16  C   UNL     1      25.873  14.419  33.824  0.00  0.00    +0.000 A 
ENDBRANCH  10  11
ENDBRANCH   9  10
ENDBRANCH   8   9
ENDBRANCH   4   6
BRANCH   1  17
ATOM     17  C   UNL     1      25.790  10.877  42.870  0.00  0.00    +0.000 C 
BRANCH  17  18
ATOM     18  N   UNL     1      26.437   9.786  42.252  0.00  0.00    +0.000 NA
BRANCH  18  20
ATOM     19  C   UNL     1      24.540   8.671  43.160  0.00  0.00    +0.000 C 
ATOM     20  C   UNL     1      25.927   8.487  42.502  0.00  0.00    +0.000 C 
ATOM     21  C   UNL     1      26.780   7.883  43.616  0.00  0.00    +0.000 C 
ATOM     22  C   UNL     1      25.789   7.597  41.327  0.00  0.00    +0.000 C 
ENDBRANCH  18  20
BRANCH  18  23
ATOM     23  C   UNL     1      27.051  10.030  40.999  0.00  0.00    +0.000 C 
BRANCH  23  24
ATOM     24  C   UNL     1      28.528  10.068  40.981  0.00  0.00    +0.000 A 
ATOM     25  C   UNL     1      29.060  11.245  40.474  0.00  0.00    +0.000 A 
ATOM     26  C   UNL     1      30.441  11.386  40.390  0.00  0.00    +0.000 A 
ATOM     27  C   UNL     1      31.311  10.415  40.784  0.00  0.00    +0.000 A 
ATOM     28  F   UNL     1      32.658  10.567  40.698  0.00  0.00    +0.000 F 
ATOM     29  C   UNL     1      30.743   9.248  41.291  0.00  0.00    +0.000 A 
ATOM     30  C   UNL     1      29.394   9.097  41.379  0.00  0.00    +0.000 A 
ENDBRANCH  23  24
ENDBRANCH  18  23
ENDBRANCH  17  18
ENDBRANCH   1  17
TORSDOF 9
ENDMDL
MODEL 8
REMARK VINA RESULT:      -7.3      1.549      2.216
REMARK  Name = 
REMARK  9 active torsions:
REMARK  status: ('A' for Active; 'I' for Inactive)
REMARK    1  A    between atoms: C_2  and  N_5
REMARK    2  A    between atoms: N_5  and  C_6
REMARK    3  A    between atoms: N_5  and  C_14
REMARK    4  A    between atoms: C_6  and  C_7
REMARK    5  A    between atoms: C_14  and  C_15
REMARK    6  A    between atoms: C_18  and  C_19
REMARK    7  A    between atoms: N_21  and  C_22
REMARK    8  A    between atoms: C_22  and  C_23
REMARK    9  A    between atoms: C_23  and  C_24
REMARK                            x       y       z     vdW  Elec       q    Type
REMARK                         _______ _______ _______ _____ _____    ______ ____
ROOT
ATOM      1  C   UNL     1      36.126   0.845  15.627  0.00  0.00    +0.000 A 
ATOM      2  C   UNL     1      35.582   1.632  14.606  0.00  0.00    +0.000 A 
ATOM      3  C   UNL     1      36.049   2.900  14.800  0.00  0.00    +0.000 A 
ATOM      4  C   UNL     1      36.849   2.878  15.901  0.00  0.00    +0.000 A 
ATOM      5  O   UNL     1      36.850   1.625  16.345  0.00  0.00    +0.000 OA
ENDROOT
BRANCH   4   6
ATOM      6  C   UNL     1      37.617   3.951  16.554  0.00  0.00    +0.000 C 
ATOM      7  O   UNL     1      38.063   3.746  17.749  0.00  0.00    +0.000 OA
ATOM      8  N   UNL     1      37.914   5.182  16.022  0.00  0.00    +0.000 NA
BRANCH   8   9
ATOM      9  C   UNL     1      38.550   6.330  16.344  0.00  0.00    +0.000 C 
BRANCH   9  10
ATOM     10  C   UNL     1      39.961   6.557  16.494  0.00  0.00    +0.000 C 
BRANCH  10  11
ATOM     11  C   UNL     1      40.637   6.505  17.760  0.00  0.00    +0.000 A 
ATOM     12  C   UNL     1      39.876   6.468  18.943  0.00  0.00    +0.000 A 
ATOM     13  C   UNL     1      40.536   6.460  20.174  0.00  0.00    +0.000 A 
ATOM     14  C   UNL     1      41.910   6.489  20.235  0.00  0.00    +0.000 A 
ATOM     15  C   UNL     1      42.650   6.525  19.087  0.00  0.00    +0.000 A 
ATOM     16  C   UNL     1      41.991   6.530  17.878  0.00  0.00    +0.000 A 
ENDBRANCH  10  11
ENDBRANCH   9  10
ENDBRANCH   8   9
ENDBRANCH   4   6
BRANCH   1  17
ATOM     17  C   UNL     1      35.927  -0.597  15.860  0.00  0.00    +0.000 C 
BRANCH  17  18
ATOM     18  N   UNL     1      37.127  -1.332  15.960  0.00  0.00    +0.000 NA
BRANCH  18  20
ATOM     19  C   UNL     1      37.227  -1.314  18.337  0.00  0.00    +0.000 C 
ATOM     20  C   UNL     1      37.281  -2.199  17.072  0.00  0.00    +0.000 C 
ATOM     21  C   UNL     1      38.722  -2.705  17.043  0.00  0.00    +0.000 C 
ATOM     22  C   UNL     1      36.284  -3.287  17.201  0.00  0.00    +0.000 C 
ENDBRANCH  18  20
BRANCH  18  23
ATOM     23  C   UNL     1      37.766  -1.688  14.747  0.00  0.00    +0.000 C 
BRANCH  23  24
ATOM     24  C   UNL     1      38.488  -0.611  14.037  0.00  0.00    +0.000 A 
ATOM     25  C   UNL     1      39.500  -0.020  14.779  0.00  0.00    +0.000 A 
ATOM     26  C   UNL     1      40.234   1.021  14.219  0.00  0.00    +0.000 A 
ATOM     27  C   UNL     1      40.008   1.496  12.963  0.00  0.00    +0.000 A 
ATOM     28  F   UNL     1      40.734   2.512  12.428  0.00  0.00    +0.000 F 
ATOM     29  C   UNL     1      38.986   0.877  12.245  0.00  0.00    +0.000 A 
ATOM     30  C   UNL     1      38.261  -0.141  12.780  0.00  0.00    +0.000 A 
ENDBRANCH  23  24
ENDBRANCH  18  23
ENDBRANCH  17  18
ENDBRANCH   1  17
TORSDOF 9
ENDMDL
MODEL 9
REMARK VINA RESULT:      -7.3      2.476      3.167
REMARK  Name = 
REMARK  9 active torsions:
REMARK  status: ('A' for Active; 'I' for Inactive)
REMARK    1  A    between atoms: C_2  and  N_5
REMARK    2  A    between atoms: N_5  and  C_6
REMARK    3  A    between atoms: N_5  and  C_14
REMARK    4  A    between atoms: C_6  and  C_7
REMARK    5  A    between atoms: C_14  and  C_15
REMARK    6  A    between atoms: C_18  and  C_19
REMARK    7  A    between atoms: N_21  and  C_22
REMARK    8  A    between atoms: C_22  and  C_23
REMARK    9  A    between atoms: C_23  and  C_24
REMARK                            x       y       z     vdW  Elec       q    Type
REMARK                         _______ _______ _______ _____ _____    ______ ____
ROOT
ATOM      1  C   UNL     1      36.771   0.832  15.287  0.00  0.00    +0.000 A 
ATOM      2  C   UNL     1      35.618   1.488  14.845  0.00  0.00    +0.000 A 
ATOM      3  C   UNL     1      35.747   2.796  15.214  0.00  0.00    +0.000 A 
ATOM      4  C   UNL     1      36.940   2.924  15.857  0.00  0.00    +0.000 A 
ATOM      5  O   UNL     1      37.498   1.718  15.867  0.00  0.00    +0.000 OA
ENDROOT
BRANCH   4   6
ATOM      6  C   UNL     1      37.591   4.103  16.453  0.00  0.00    +0.000 C 
ATOM      7  O   UNL     1      37.552   5.219  15.803  0.00  0.00    +0.000 OA
ATOM      8  N   UNL     1      38.259   4.148  17.652  0.00  0.00    +0.000 NA
BRANCH   8   9
ATOM      9  C   UNL     1      38.938   5.015  18.435  0.00  0.00    +0.000 C 
BRANCH   9  10
ATOM     10  C   UNL     1      39.827   6.071  18.035  0.00  0.00    +0.000 C 
BRANCH  10  11
ATOM     11  C   UNL     1      41.103   6.302  18.649  0.00  0.00    +0.000 A 
ATOM     12  C   UNL     1      41.199   6.300  20.054  0.00  0.00    +0.000 A 
ATOM     13  C   UNL     1      42.434   6.566  20.650  0.00  0.00    +0.000 A 
ATOM     14  C   UNL     1      43.544   6.828  19.880  0.00  0.00    +0.000 A 
ATOM     15  C   UNL     1      43.452   6.831  18.517  0.00  0.00    +0.000 A 
ATOM     16  C   UNL     1      42.232   6.565  17.938  0.00  0.00    +0.000 A 
ENDBRANCH  10  11
ENDBRANCH   9  10
ENDBRANCH   8   9
ENDBRANCH   4   6
BRANCH   1  17
ATOM     17  C   UNL     1      37.116  -0.593  15.133  0.00  0.00    +0.000 C 
BRANCH  17  18
ATOM     18  N   UNL     1      38.189  -0.832  14.249  0.00  0.00    +0.000 NA
BRANCH  18  20
ATOM     19  C   UNL     1      39.739  -2.626  14.050  0.00  0.00    +0.000 C 
ATOM     20  C   UNL     1      39.404  -1.316  14.798  0.00  0.00    +0.000 C 
ATOM     21  C   UNL     1      39.095  -1.778  16.220  0.00  0.00    +0.000 C 
ATOM     22  C   UNL     1      40.569  -0.405  14.721  0.00  0.00    +0.000 C 
ENDBRANCH  18  20
BRANCH  18  23
ATOM     23  C   UNL     1      37.858  -1.216  12.926  0.00  0.00    +0.000 C 
BRANCH  23  24
ATOM     24  C   UNL     1      37.980  -0.175  11.883  0.00  0.00    +0.000 A 
ATOM     25  C   UNL     1      39.206  -0.161  11.235  0.00  0.00    +0.000 A 
ATOM     26  C   UNL     1      39.442   0.791  10.248  0.00  0.00    +0.000 A 
ATOM     27  C   UNL     1      38.519   1.722   9.880  0.00  0.00    +0.000 A 
ATOM     28  F   UNL     1      38.762   2.644   8.913  0.00  0.00    +0.000 F 
ATOM     29  C   UNL     1      37.297   1.676  10.549  0.00  0.00    +0.000 A 
ATOM     30  C   UNL     1      37.053   0.751  11.516  0.00  0.00    +0.000 A 
ENDBRANCH  23  24
ENDBRANCH  18  23
ENDBRANCH  17  18
ENDBRANCH   1  17
TORSDOF 9
ENDMDL
MODEL 10
REMARK VINA RESULT:      -7.3      2.906      8.536
REMARK  Name = 
REMARK  9 active torsions:
REMARK  status: ('A' for Active; 'I' for Inactive)
REMARK    1  A    between atoms: C_2  and  N_5
REMARK    2  A    between atoms: N_5  and  C_6
REMARK    3  A    between atoms: N_5  and  C_14
REMARK    4  A    between atoms: C_6  and  C_7
REMARK    5  A    between atoms: C_14  and  C_15
REMARK    6  A    between atoms: C_18  and  C_19
REMARK    7  A    between atoms: N_21  and  C_22
REMARK    8  A    between atoms: C_22  and  C_23
REMARK    9  A    between atoms: C_23  and  C_24
REMARK                            x       y       z     vdW  Elec       q    Type
REMARK                         _______ _______ _______ _____ _____    ______ ____
ROOT
ATOM      1  C   UNL     1      38.375   5.794  16.638  0.00  0.00    +0.000 A 
ATOM      2  C   UNL     1      39.431   5.920  15.730  0.00  0.00    +0.000 A 
ATOM      3  C   UNL     1      39.531   4.724  15.080  0.00  0.00    +0.000 A 
ATOM      4  C   UNL     1      38.566   3.904  15.579  0.00  0.00    +0.000 A 
ATOM      5  O   UNL     1      37.916   4.603  16.504  0.00  0.00    +0.000 OA
ENDROOT
BRANCH   4   6
ATOM      6  C   UNL     1      38.212   2.516  15.239  0.00  0.00    +0.000 C 
ATOM      7  O   UNL     1      39.167   1.682  14.993  0.00  0.00    +0.000 OA
ATOM      8  N   UNL     1      36.943   1.997  15.146  0.00  0.00    +0.000 NA
BRANCH   8   9
ATOM      9  C   UNL     1      36.310   0.837  14.861  0.00  0.00    +0.000 C 
BRANCH   9  10
ATOM     10  C   UNL     1      36.616  -0.485  15.332  0.00  0.00    +0.000 C 
BRANCH  10  11
ATOM     11  C   UNL     1      36.831  -0.799  16.716  0.00  0.00    +0.000 A 
ATOM     12  C   UNL     1      37.901  -1.643  17.069  0.00  0.00    +0.000 A 
ATOM     13  C   UNL     1      38.083  -1.980  18.413  0.00  0.00    +0.000 A 
ATOM     14  C   UNL     1      37.232  -1.497  19.380  0.00  0.00    +0.000 A 
ATOM     15  C   UNL     1      36.194  -0.678  19.038  0.00  0.00    +0.000 A 
ATOM     16  C   UNL     1      36.023  -0.349  17.712  0.00  0.00    +0.000 A 
ENDBRANCH  10  11
ENDBRANCH   9  10
ENDBRANCH   8   9
ENDBRANCH   4   6
BRANCH   1  17
ATOM     17  C   UNL     1      37.865   6.810  17.578  0.00  0.00    +0.000 C 
BRANCH  17  18
ATOM     18  N   UNL     1      38.809   7.228  18.538  0.00  0.00    +0.000 NA
BRANCH  18  20
ATOM     19  C   UNL     1      37.114   8.867  18.857  0.00  0.00    +0.000 C 
ATOM     20  C   UNL     1      38.538   8.420  19.258  0.00  0.00    +0.000 C 
ATOM     21  C   UNL     1      39.438   9.506  18.672  0.00  0.00    +0.000 C 
ATOM     22  C   UNL     1      38.618   8.330  20.734  0.00  0.00    +0.000 C 
ENDBRANCH  18  20
BRANCH  18  23
ATOM     23  C   UNL     1      39.557   6.215  19.189  0.00  0.00    +0.000 C 
BRANCH  23  24
ATOM     24  C   UNL     1      41.025   6.380  19.202  0.00  0.00    +0.000 A 
ATOM     25  C   UNL     1      41.596   6.292  20.463  0.00  0.00    +0.000 A 
ATOM     26  C   UNL     1      42.971   6.453  20.600  0.00  0.00    +0.000 A 
ATOM     27  C   UNL     1      43.798   6.694  19.546  0.00  0.00    +0.000 A 
ATOM     28  F   UNL     1      45.139   6.847  19.693  0.00  0.00    +0.000 F 
ATOM     29  C   UNL     1      43.192   6.773  18.293  0.00  0.00    +0.000 A 
ATOM     30  C   UNL     1      41.849   6.618  18.144  0.00  0.00    +0.000 A 
ENDBRANCH  23  24
ENDBRANCH  18  23
ENDBRANCH  17  18
ENDBRANCH   1  17
TORSDOF 9
ENDMDL
