MODEL 1
REMARK VINA RESULT:      -8.0      0.000      0.000
REMARK  Name = 
REMARK  3 active torsions:
REMARK  status: ('A' for Active; 'I' for Inactive)
REMARK    1  A    between atoms: C_7  and  N_8
REMARK    2  A    between atoms: C_9  and  C_11
REMARK    3  A    between atoms: C_14  and  C_15
REMARK                            x       y       z     vdW  Elec       q    Type
REMARK                         _______ _______ _______ _____ _____    ______ ____
ROOT
ATOM      1  N   UNL     1      16.263  10.814  33.753  0.00  0.00    +0.000 NA
ATOM      2  C   UNL     1      15.899  11.224  35.040  0.00  0.00    +0.000 C 
ATOM      3  O   UNL     1      14.986  12.106  35.137  0.00  0.00    +0.000 OA
ENDROOT
BRANCH   1  10
ATOM      4  C   UNL     1      16.436  14.220  30.195  0.00  0.00    +0.000 C 
ATOM      5  C   UNL     1      15.832  12.980  30.800  0.00  0.00    +0.000 A 
ATOM      6  C   UNL     1      14.777  12.348  30.148  0.00  0.00    +0.000 A 
ATOM      7  C   UNL     1      14.216  11.198  30.713  0.00  0.00    +0.000 A 
ATOM      8  C   UNL     1      14.672  10.662  31.896  0.00  0.00    +0.000 A 
ATOM      9  O   UNL     1      14.068   9.522  32.392  0.00  0.00    +0.000 OA
ATOM     10  C   UNL     1      15.720  11.287  32.539  0.00  0.00    +0.000 A 
ATOM     11  C   UNL     1      16.272  12.429  31.974  0.00  0.00    +0.000 A 
ENDBRANCH   1  10
BRANCH   2  12
ATOM     12  C   UNL     1      16.507  10.700  36.272  0.00  0.00    +0.000 A 
ATOM     13  C   UNL     1      15.955  10.957  37.504  0.00  0.00    +0.000 A 
ATOM     14  C   UNL     1      16.531  10.475  38.684  0.00  0.00    +0.000 A 
ATOM     15  C   UNL     1      17.678   9.721  38.664  0.00  0.00    +0.000 A 
ATOM     16  C   UNL     1      18.233   9.464  37.403  0.00  0.00    +0.000 A 
ATOM     17  C   UNL     1      17.660   9.944  36.243  0.00  0.00    +0.000 A 
BRANCH  15  18
ATOM     18  C   UNL     1      18.292   9.209  39.915  0.00  0.00    +0.000 C 
ATOM     19  C   UNL     1      18.695   7.755  39.762  0.00  0.00    +0.000 C 
ATOM     20  C   UNL     1      19.514   9.980  40.328  0.00  0.00    +0.000 C 
ATOM     21  C   UNL     1      17.298   9.281  41.072  0.00  0.00    +0.000 C 
ENDBRANCH  15  18
ENDBRANCH   2  12
TORSDOF 3
ENDMDL
MODEL 2
REMARK VINA RESULT:      -7.9      2.010      2.934
REMARK  Name = 
REMARK  3 active torsions:
REMARK  status: ('A' for Active; 'I' for Inactive)
REMARK    1  A    between atoms: C_7  and  N_8
REMARK    2  A    between atoms: C_9  and  C_11
REMARK    3  A    between atoms: C_14  and  C_15
REMARK                            x       y       z     vdW  Elec       q    Type
REMARK                         _______ _______ _______ _____ _____    ______ ____
ROOT
ATOM      1  N   UNL     1      14.637  11.919  35.376  0.00  0.00    +0.000 NA
ATOM      2  C   UNL     1      15.658  12.123  36.310  0.00  0.00    +0.000 C 
ATOM      3  O   UNL     1      16.472  13.076  36.088  0.00  0.00    +0.000 OA
ENDROOT
BRANCH   1  10
ATOM      4  C   UNL     1      15.559  12.411  30.559  0.00  0.00    +0.000 C 
ATOM      5  C   UNL     1      14.890  12.880  31.825  0.00  0.00    +0.000 A 
ATOM      6  C   UNL     1      14.086  14.015  31.790  0.00  0.00    +0.000 A 
ATOM      7  C   UNL     1      13.467  14.450  32.967  0.00  0.00    +0.000 A 
ATOM      8  C   UNL     1      13.623  13.793  34.166  0.00  0.00    +0.000 A 
ATOM      9  O   UNL     1      12.979  14.282  35.287  0.00  0.00    +0.000 OA
ATOM     10  C   UNL     1      14.418  12.666  34.198  0.00  0.00    +0.000 A 
ATOM     11  C   UNL     1      15.030  12.240  33.028  0.00  0.00    +0.000 A 
ENDBRANCH   1  10
BRANCH   2  12
ATOM     12  C   UNL     1      15.842  11.305  37.518  0.00  0.00    +0.000 A 
ATOM     13  C   UNL     1      17.066  10.762  37.831  0.00  0.00    +0.000 A 
ATOM     14  C   UNL     1      17.251   9.972  38.970  0.00  0.00    +0.000 A 
ATOM     15  C   UNL     1      16.214   9.702  39.829  0.00  0.00    +0.000 A 
ATOM     16  C   UNL     1      14.972  10.260  39.502  0.00  0.00    +0.000 A 
ATOM     17  C   UNL     1      14.796  11.038  38.376  0.00  0.00    +0.000 A 
BRANCH  15  18
ATOM     18  C   UNL     1      16.408   8.863  41.039  0.00  0.00    +0.000 C 
ATOM     19  C   UNL     1      16.723   9.723  42.247  0.00  0.00    +0.000 C 
ATOM     20  C   UNL     1      15.204   8.029  41.374  0.00  0.00    +0.000 C 
ATOM     21  C   UNL     1      17.584   7.907  40.849  0.00  0.00    +0.000 C 
ENDBRANCH  15  18
ENDBRANCH   2  12
TORSDOF 3
ENDMDL
MODEL 3
REMARK VINA RESULT:      -7.0      1.678      2.292
REMARK  Name = 
REMARK  3 active torsions:
REMARK  status: ('A' for Active; 'I' for Inactive)
REMARK    1  A    between atoms: C_7  and  N_8
REMARK    2  A    between atoms: C_9  and  C_11
REMARK    3  A    between atoms: C_14  and  C_15
REMARK                            x       y       z     vdW  Elec       q    Type
REMARK                         _______ _______ _______ _____ _____    ______ ____
ROOT
ATOM      1  N   UNL     1      16.020  11.162  35.171  0.00  0.00    +0.000 NA
ATOM      2  C   UNL     1      15.399  11.407  36.401  0.00  0.00    +0.000 C 
ATOM      3  O   UNL     1      14.404  12.201  36.407  0.00  0.00    +0.000 OA
ENDROOT
BRANCH   1  10
ATOM      4  C   UNL     1      13.382  14.565  32.771  0.00  0.00    +0.000 C 
ATOM      5  C   UNL     1      14.344  13.406  32.771  0.00  0.00    +0.000 A 
ATOM      6  C   UNL     1      14.836  12.928  31.560  0.00  0.00    +0.000 A 
ATOM      7  C   UNL     1      15.726  11.850  31.562  0.00  0.00    +0.000 A 
ATOM      8  C   UNL     1      16.140  11.239  32.725  0.00  0.00    +0.000 A 
ATOM      9  O   UNL     1      17.023  10.179  32.648  0.00  0.00    +0.000 OA
ATOM     10  C   UNL     1      15.653  11.716  33.924  0.00  0.00    +0.000 A 
ATOM     11  C   UNL     1      14.769  12.785  33.916  0.00  0.00    +0.000 A 
ENDBRANCH   1  10
BRANCH   2  12
ATOM     12  C   UNL     1      15.831  10.807  37.673  0.00  0.00    +0.000 A 
ATOM     13  C   UNL     1      14.954  10.647  38.719  0.00  0.00    +0.000 A 
ATOM     14  C   UNL     1      15.355  10.090  39.937  0.00  0.00    +0.000 A 
ATOM     15  C   UNL     1      16.648   9.676  40.143  0.00  0.00    +0.000 A 
ATOM     16  C   UNL     1      17.534   9.843  39.071  0.00  0.00    +0.000 A 
ATOM     17  C   UNL     1      17.132  10.394  37.871  0.00  0.00    +0.000 A 
BRANCH  15  18
ATOM     18  C   UNL     1      17.076   9.085  41.436  0.00  0.00    +0.000 C 
ATOM     19  C   UNL     1      16.322   9.712  42.592  0.00  0.00    +0.000 C 
ATOM     20  C   UNL     1      16.860   7.599  41.502  0.00  0.00    +0.000 C 
ATOM     21  C   UNL     1      18.563   9.338  41.678  0.00  0.00    +0.000 C 
ENDBRANCH  15  18
ENDBRANCH   2  12
TORSDOF 3
ENDMDL
MODEL 4
REMARK VINA RESULT:      -6.9     27.886     31.092
REMARK  Name = 
REMARK  3 active torsions:
REMARK  status: ('A' for Active; 'I' for Inactive)
REMARK    1  A    between atoms: C_7  and  N_8
REMARK    2  A    between atoms: C_9  and  C_11
REMARK    3  A    between atoms: C_14  and  C_15
REMARK                            x       y       z     vdW  Elec       q    Type
REMARK                         _______ _______ _______ _____ _____    ______ ____
ROOT
ATOM      1  N   UNL     1      29.510  22.478  11.033  0.00  0.00    +0.000 NA
ATOM      2  C   UNL     1      30.406  21.430  11.267  0.00  0.00    +0.000 C 
ATOM      3  O   UNL     1      30.410  20.914  12.431  0.00  0.00    +0.000 OA
ENDROOT
BRANCH   1  10
ATOM      4  C   UNL     1      28.883  25.401  14.952  0.00  0.00    +0.000 C 
ATOM      5  C   UNL     1      28.329  24.480  13.896  0.00  0.00    +0.000 A 
ATOM      6  C   UNL     1      26.964  24.213  13.874  0.00  0.00    +0.000 A 
ATOM      7  C   UNL     1      26.452  23.356  12.894  0.00  0.00    +0.000 A 
ATOM      8  C   UNL     1      27.253  22.763  11.943  0.00  0.00    +0.000 A 
ATOM      9  O   UNL     1      26.675  21.928  11.006  0.00  0.00    +0.000 OA
ATOM     10  C   UNL     1      28.605  23.032  11.966  0.00  0.00    +0.000 A 
ATOM     11  C   UNL     1      29.108  23.882  12.941  0.00  0.00    +0.000 A 
ENDBRANCH   1  10
BRANCH   2  12
ATOM     12  C   UNL     1      31.332  20.899  10.256  0.00  0.00    +0.000 A 
ATOM     13  C   UNL     1      32.583  20.448  10.604  0.00  0.00    +0.000 A 
ATOM     14  C   UNL     1      33.479  19.953   9.650  0.00  0.00    +0.000 A 
ATOM     15  C   UNL     1      33.146  19.897   8.319  0.00  0.00    +0.000 A 
ATOM     16  C   UNL     1      31.869  20.358   7.975  0.00  0.00    +0.000 A 
ATOM     17  C   UNL     1      30.991  20.846   8.921  0.00  0.00    +0.000 A 
BRANCH  15  18
ATOM     18  C   UNL     1      34.095  19.372   7.304  0.00  0.00    +0.000 C 
ATOM     19  C   UNL     1      34.223  20.333   6.138  0.00  0.00    +0.000 C 
ATOM     20  C   UNL     1      35.474  19.138   7.855  0.00  0.00    +0.000 C 
ATOM     21  C   UNL     1      33.600  18.043   6.739  0.00  0.00    +0.000 C 
ENDBRANCH  15  18
ENDBRANCH   2  12
TORSDOF 3
ENDMDL
MODEL 5
REMARK VINA RESULT:      -6.8      3.927      5.502
REMARK  Name = 
REMARK  3 active torsions:
REMARK  status: ('A' for Active; 'I' for Inactive)
REMARK    1  A    between atoms: C_7  and  N_8
REMARK    2  A    between atoms: C_9  and  C_11
REMARK    3  A    between atoms: C_14  and  C_15
REMARK                            x       y       z     vdW  Elec       q    Type
REMARK                         _______ _______ _______ _____ _____    ______ ____
ROOT
ATOM      1  N   UNL     1      16.634  11.577  37.515  0.00  0.00    +0.000 NA
ATOM      2  C   UNL     1      17.490  10.677  36.871  0.00  0.00    +0.000 C 
ATOM      3  O   UNL     1      16.966   9.852  36.056  0.00  0.00    +0.000 OA
ENDROOT
BRANCH   1  10
ATOM      4  C   UNL     1      12.197  10.102  39.076  0.00  0.00    +0.000 C 
ATOM      5  C   UNL     1      13.061  10.916  38.148  0.00  0.00    +0.000 A 
ATOM      6  C   UNL     1      12.459  11.715  37.181  0.00  0.00    +0.000 A 
ATOM      7  C   UNL     1      13.263  12.468  36.320  0.00  0.00    +0.000 A 
ATOM      8  C   UNL     1      14.638  12.451  36.394  0.00  0.00    +0.000 A 
ATOM      9  O   UNL     1      15.367  13.223  35.509  0.00  0.00    +0.000 OA
ATOM     10  C   UNL     1      15.233  11.660  37.354  0.00  0.00    +0.000 A 
ATOM     11  C   UNL     1      14.430  10.914  38.206  0.00  0.00    +0.000 A 
ENDBRANCH   1  10
BRANCH   2  12
ATOM     12  C   UNL     1      18.944  10.631  37.085  0.00  0.00    +0.000 A 
ATOM     13  C   UNL     1      19.565  11.502  37.948  0.00  0.00    +0.000 A 
ATOM     14  C   UNL     1      20.949  11.478  38.150  0.00  0.00    +0.000 A 
ATOM     15  C   UNL     1      21.751  10.578  37.493  0.00  0.00    +0.000 A 
ATOM     16  C   UNL     1      21.109   9.694  36.617  0.00  0.00    +0.000 A 
ATOM     17  C   UNL     1      19.743   9.725  36.421  0.00  0.00    +0.000 A 
BRANCH  15  18
ATOM     18  C   UNL     1      23.221  10.550  37.706  0.00  0.00    +0.000 C 
ATOM     19  C   UNL     1      23.935  10.048  36.467  0.00  0.00    +0.000 C 
ATOM     20  C   UNL     1      23.791  11.898  38.047  0.00  0.00    +0.000 C 
ATOM     21  C   UNL     1      23.582   9.603  38.848  0.00  0.00    +0.000 C 
ENDBRANCH  15  18
ENDBRANCH   2  12
TORSDOF 3
ENDMDL
MODEL 6
REMARK VINA RESULT:      -6.7     18.896     21.371
REMARK  Name = 
REMARK  3 active torsions:
REMARK  status: ('A' for Active; 'I' for Inactive)
REMARK    1  A    between atoms: C_7  and  N_8
REMARK    2  A    between atoms: C_9  and  C_11
REMARK    3  A    between atoms: C_14  and  C_15
REMARK                            x       y       z     vdW  Elec       q    Type
REMARK                         _______ _______ _______ _____ _____    ______ ____
ROOT
ATOM      1  N   UNL     1      33.096  -1.778  33.979  0.00  0.00    +0.000 NA
ATOM      2  C   UNL     1      33.986  -0.994  34.720  0.00  0.00    +0.000 C 
ATOM      3  O   UNL     1      34.925  -1.596  35.334  0.00  0.00    +0.000 OA
ENDROOT
BRANCH   1  10
ATOM      4  C   UNL     1      34.382  -5.641  31.199  0.00  0.00    +0.000 C 
ATOM      5  C   UNL     1      33.777  -5.066  32.454  0.00  0.00    +0.000 A 
ATOM      6  C   UNL     1      33.283  -5.928  33.429  0.00  0.00    +0.000 A 
ATOM      7  C   UNL     1      32.720  -5.393  34.592  0.00  0.00    +0.000 A 
ATOM      8  C   UNL     1      32.637  -4.036  34.812  0.00  0.00    +0.000 A 
ATOM      9  O   UNL     1      32.068  -3.582  35.987  0.00  0.00    +0.000 OA
ATOM     10  C   UNL     1      33.129  -3.184  33.846  0.00  0.00    +0.000 A 
ATOM     11  C   UNL     1      33.686  -3.721  32.693  0.00  0.00    +0.000 A 
ENDBRANCH   1  10
BRANCH   2  12
ATOM     12  C   UNL     1      33.897   0.470  34.828  0.00  0.00    +0.000 A 
ATOM     13  C   UNL     1      33.637   1.251  33.728  0.00  0.00    +0.000 A 
ATOM     14  C   UNL     1      33.563   2.645  33.815  0.00  0.00    +0.000 A 
ATOM     15  C   UNL     1      33.745   3.297  35.009  0.00  0.00    +0.000 A 
ATOM     16  C   UNL     1      34.008   2.493  36.125  0.00  0.00    +0.000 A 
ATOM     17  C   UNL     1      34.082   1.117  36.032  0.00  0.00    +0.000 A 
BRANCH  15  18
ATOM     18  C   UNL     1      33.667   4.777  35.105  0.00  0.00    +0.000 C 
ATOM     19  C   UNL     1      35.017   5.408  34.825  0.00  0.00    +0.000 C 
ATOM     20  C   UNL     1      32.676   5.376  34.146  0.00  0.00    +0.000 C 
ATOM     21  C   UNL     1      33.253   5.206  36.511  0.00  0.00    +0.000 C 
ENDBRANCH  15  18
ENDBRANCH   2  12
TORSDOF 3
ENDMDL
MODEL 7
REMARK VINA RESULT:      -6.7      3.477      4.891
REMARK  Name = 
REMARK  3 active torsions:
REMARK  status: ('A' for Active; 'I' for Inactive)
REMARK    1  A    between atoms: C_7  and  N_8
REMARK    2  A    between atoms: C_9  and  C_11
REMARK    3  A    between atoms: C_14  and  C_15
REMARK                            x       y       z     vdW  Elec       q    Type
REMARK                         _______ _______ _______ _____ _____    ______ ____
ROOT
ATOM      1  N   UNL     1      16.689  11.822  37.250  0.00  0.00    +0.000 NA
ATOM      2  C   UNL     1      17.446  10.806  36.657  0.00  0.00    +0.000 C 
ATOM      3  O   UNL     1      16.863  10.068  35.799  0.00  0.00    +0.000 OA
ENDROOT
BRANCH   1  10
ATOM      4  C   UNL     1      13.425  14.205  34.427  0.00  0.00    +0.000 C 
ATOM      5  C   UNL     1      13.747  13.296  35.585  0.00  0.00    +0.000 A 
ATOM      6  C   UNL     1      12.708  12.774  36.351  0.00  0.00    +0.000 A 
ATOM      7  C   UNL     1      13.009  11.932  37.426  0.00  0.00    +0.000 A 
ATOM      8  C   UNL     1      14.302  11.596  37.758  0.00  0.00    +0.000 A 
ATOM      9  O   UNL     1      14.521  10.757  38.834  0.00  0.00    +0.000 OA
ATOM     10  C   UNL     1      15.330  12.111  36.996  0.00  0.00    +0.000 A 
ATOM     11  C   UNL     1      15.025  12.947  35.930  0.00  0.00    +0.000 A 
ENDBRANCH   1  10
BRANCH   2  12
ATOM     12  C   UNL     1      18.860  10.547  36.968  0.00  0.00    +0.000 A 
ATOM     13  C   UNL     1      19.635   9.757  36.154  0.00  0.00    +0.000 A 
ATOM     14  C   UNL     1      20.977   9.492  36.446  0.00  0.00    +0.000 A 
ATOM     15  C   UNL     1      21.581  10.012  37.563  0.00  0.00    +0.000 A 
ATOM     16  C   UNL     1      20.783  10.816  38.387  0.00  0.00    +0.000 A 
ATOM     17  C   UNL     1      19.459  11.073  38.093  0.00  0.00    +0.000 A 
BRANCH  15  18
ATOM     18  C   UNL     1      23.006   9.732  37.875  0.00  0.00    +0.000 C 
ATOM     19  C   UNL     1      23.124   8.818  39.080  0.00  0.00    +0.000 C 
ATOM     20  C   UNL     1      23.740   9.082  36.736  0.00  0.00    +0.000 C 
ATOM     21  C   UNL     1      23.747  11.023  38.216  0.00  0.00    +0.000 C 
ENDBRANCH  15  18
ENDBRANCH   2  12
TORSDOF 3
ENDMDL
MODEL 8
REMARK VINA RESULT:      -6.7     28.182     30.802
REMARK  Name = 
REMARK  3 active torsions:
REMARK  status: ('A' for Active; 'I' for Inactive)
REMARK    1  A    between atoms: C_7  and  N_8
REMARK    2  A    between atoms: C_9  and  C_11
REMARK    3  A    between atoms: C_14  and  C_15
REMARK                            x       y       z     vdW  Elec       q    Type
REMARK                         _______ _______ _______ _____ _____    ______ ____
ROOT
ATOM      1  N   UNL     1      30.879  22.401  11.685  0.00  0.00    +0.000 NA
ATOM      2  C   UNL     1      31.522  21.210  12.041  0.00  0.00    +0.000 C 
ATOM      3  O   UNL     1      30.946  20.470  12.902  0.00  0.00    +0.000 OA
ENDROOT
BRANCH   1  10
ATOM      4  C   UNL     1      28.593  25.319  14.934  0.00  0.00    +0.000 C 
ATOM      5  C   UNL     1      28.552  24.322  13.805  0.00  0.00    +0.000 A 
ATOM      6  C   UNL     1      27.321  23.909  13.306  0.00  0.00    +0.000 A 
ATOM      7  C   UNL     1      27.285  22.982  12.259  0.00  0.00    +0.000 A 
ATOM      8  C   UNL     1      28.430  22.460  11.699  0.00  0.00    +0.000 A 
ATOM      9  O   UNL     1      28.315  21.549  10.666  0.00  0.00    +0.000 OA
ATOM     10  C   UNL     1      29.649  22.873  12.194  0.00  0.00    +0.000 A 
ATOM     11  C   UNL     1      29.678  23.792  13.233  0.00  0.00    +0.000 A 
ENDBRANCH   1  10
BRANCH   2  12
ATOM     12  C   UNL     1      32.810  20.773  11.482  0.00  0.00    +0.000 A 
ATOM     13  C   UNL     1      33.872  20.467  12.298  0.00  0.00    +0.000 A 
ATOM     14  C   UNL     1      35.107  20.063  11.779  0.00  0.00    +0.000 A 
ATOM     15  C   UNL     1      35.312  19.954  10.426  0.00  0.00    +0.000 A 
ATOM     16  C   UNL     1      34.223  20.268   9.602  0.00  0.00    +0.000 A 
ATOM     17  C   UNL     1      33.008  20.668  10.121  0.00  0.00    +0.000 A 
BRANCH  15  18
ATOM     18  C   UNL     1      36.622  19.526   9.872  0.00  0.00    +0.000 C 
ATOM     19  C   UNL     1      37.324  18.576  10.822  0.00  0.00    +0.000 C 
ATOM     20  C   UNL     1      36.500  18.835   8.543  0.00  0.00    +0.000 C 
ATOM     21  C   UNL     1      37.543  20.728   9.676  0.00  0.00    +0.000 C 
ENDBRANCH  15  18
ENDBRANCH   2  12
TORSDOF 3
ENDMDL
MODEL 9
REMARK VINA RESULT:      -6.3     22.327     23.610
REMARK  Name = 
REMARK  3 active torsions:
REMARK  status: ('A' for Active; 'I' for Inactive)
REMARK    1  A    between atoms: C_7  and  N_8
REMARK    2  A    between atoms: C_9  and  C_11
REMARK    3  A    between atoms: C_14  and  C_15
REMARK                            x       y       z     vdW  Elec       q    Type
REMARK                         _______ _______ _______ _____ _____    ______ ____
ROOT
ATOM      1  N   UNL     1      21.940  -7.614  24.324  0.00  0.00    +0.000 NA
ATOM      2  C   UNL     1      23.060  -8.323  24.772  0.00  0.00    +0.000 C 
ATOM      3  O   UNL     1      22.943  -8.974  25.860  0.00  0.00    +0.000 OA
ENDROOT
BRANCH   1  10
ATOM      4  C   UNL     1      18.757  -4.862  26.892  0.00  0.00    +0.000 C 
ATOM      5  C   UNL     1      19.135  -6.160  26.227  0.00  0.00    +0.000 A 
ATOM      6  C   UNL     1      18.244  -7.228  26.261  0.00  0.00    +0.000 A 
ATOM      7  C   UNL     1      18.598  -8.433  25.645  0.00  0.00    +0.000 A 
ATOM      8  C   UNL     1      19.802  -8.603  24.999  0.00  0.00    +0.000 A 
ATOM      9  O   UNL     1      20.082  -9.823  24.412  0.00  0.00    +0.000 OA
ATOM     10  C   UNL     1      20.683  -7.543  24.964  0.00  0.00    +0.000 A 
ATOM     11  C   UNL     1      20.327  -6.350  25.579  0.00  0.00    +0.000 A 
ENDBRANCH   1  10
BRANCH   2  12
ATOM     12  C   UNL     1      24.349  -8.354  24.066  0.00  0.00    +0.000 A 
ATOM     13  C   UNL     1      24.968  -7.195  23.662  0.00  0.00    +0.000 A 
ATOM     14  C   UNL     1      26.188  -7.212  22.977  0.00  0.00    +0.000 A 
ATOM     15  C   UNL     1      26.823  -8.391  22.678  0.00  0.00    +0.000 A 
ATOM     16  C   UNL     1      26.186  -9.566  23.095  0.00  0.00    +0.000 A 
ATOM     17  C   UNL     1      24.981  -9.543  23.769  0.00  0.00    +0.000 A 
BRANCH  15  18
ATOM     18  C   UNL     1      28.118  -8.411  21.951  0.00  0.00    +0.000 C 
ATOM     19  C   UNL     1      28.621  -7.002  21.706  0.00  0.00    +0.000 C 
ATOM     20  C   UNL     1      29.194  -9.157  22.689  0.00  0.00    +0.000 C 
ATOM     21  C   UNL     1      27.960  -9.076  20.586  0.00  0.00    +0.000 C 
ENDBRANCH  15  18
ENDBRANCH   2  12
TORSDOF 3
ENDMDL
MODEL 10
REMARK VINA RESULT:      -6.3     18.785     21.571
REMARK  Name = 
REMARK  3 active torsions:
REMARK  status: ('A' for Active; 'I' for Inactive)
REMARK    1  A    between atoms: C_7  and  N_8
REMARK    2  A    between atoms: C_9  and  C_11
REMARK    3  A    between atoms: C_14  and  C_15
REMARK                            x       y       z     vdW  Elec       q    Type
REMARK                         _______ _______ _______ _____ _____    ______ ____
ROOT
ATOM      1  N   UNL     1      33.587  -1.860  35.597  0.00  0.00    +0.000 NA
ATOM      2  C   UNL     1      33.691  -0.979  34.515  0.00  0.00    +0.000 C 
ATOM      3  O   UNL     1      33.774  -1.490  33.351  0.00  0.00    +0.000 OA
ENDROOT
BRANCH   1  10
ATOM      4  C   UNL     1      30.864  -5.947  35.169  0.00  0.00    +0.000 C 
ATOM      5  C   UNL     1      32.200  -5.266  35.315  0.00  0.00    +0.000 A 
ATOM      6  C   UNL     1      33.356  -6.038  35.373  0.00  0.00    +0.000 A 
ATOM      7  C   UNL     1      34.595  -5.404  35.511  0.00  0.00    +0.000 A 
ATOM      8  C   UNL     1      34.716  -4.034  35.590  0.00  0.00    +0.000 A 
ATOM      9  O   UNL     1      35.975  -3.479  35.724  0.00  0.00    +0.000 OA
ATOM     10  C   UNL     1      33.569  -3.270  35.530  0.00  0.00    +0.000 A 
ATOM     11  C   UNL     1      32.342  -3.905  35.394  0.00  0.00    +0.000 A 
ENDBRANCH   1  10
BRANCH   2  12
ATOM     12  C   UNL     1      33.712   0.485  34.646  0.00  0.00    +0.000 A 
ATOM     13  C   UNL     1      33.918   1.088  35.865  0.00  0.00    +0.000 A 
ATOM     14  C   UNL     1      33.927   2.479  36.005  0.00  0.00    +0.000 A 
ATOM     15  C   UNL     1      33.731   3.308  34.929  0.00  0.00    +0.000 A 
ATOM     16  C   UNL     1      33.523   2.685  33.692  0.00  0.00    +0.000 A 
ATOM     17  C   UNL     1      33.514   1.311  33.560  0.00  0.00    +0.000 A 
BRANCH  15  18
ATOM     18  C   UNL     1      33.741   4.786  35.076  0.00  0.00    +0.000 C 
ATOM     19  C   UNL     1      33.378   5.189  36.492  0.00  0.00    +0.000 C 
ATOM     20  C   UNL     1      35.074   5.400  34.755  0.00  0.00    +0.000 C 
ATOM     21  C   UNL     1      32.711   5.427  34.148  0.00  0.00    +0.000 C 
ENDBRANCH  15  18
ENDBRANCH   2  12
TORSDOF 3
ENDMDL
