MODEL 1
REMARK VINA RESULT:      -6.8      0.000      0.000
REMARK  Name = 
REMARK  2 active torsions:
REMARK  status: ('A' for Active; 'I' for Inactive)
REMARK    1  A    between atoms: C_2  and  C_15
REMARK    2  A    between atoms: N_3  and  N_4
REMARK                            x       y       z     vdW  Elec       q    Type
REMARK                         _______ _______ _______ _____ _____    ______ ____
ROOT
ATOM      1  N   UNL     1      31.589  20.449  11.128  0.00  0.00    +0.000 NA
ATOM      2  C   UNL     1      32.634  20.863  10.545  0.00  0.00    +0.000 C 
ATOM      3  C   UNL     1      33.870  20.039  10.626  0.00  0.00    +0.000 C 
ATOM      4  C   UNL     1      34.951  20.961  11.199  0.00  0.00    +0.000 C 
ATOM      5  C   UNL     1      35.045  22.243  10.408  0.00  0.00    +0.000 C 
ATOM      6  C   UNL     1      35.419  21.924   8.982  0.00  0.00    +0.000 C 
ATOM      7  C   UNL     1      34.352  21.000   8.407  0.00  0.00    +0.000 C 
ATOM      8  C   UNL     1      34.250  19.717   9.176  0.00  0.00    +0.000 C 
ATOM      9  C   UNL     1      33.046  21.762   8.348  0.00  0.00    +0.000 C 
ATOM     10  C   UNL     1      32.690  22.129   9.784  0.00  0.00    +0.000 C 
ATOM     11  C   UNL     1      33.751  23.019  10.396  0.00  0.00    +0.000 C 
ENDROOT
BRANCH   1  14
ATOM     12  O   UNL     1      30.581  21.921  13.272  0.00  0.00    +0.000 OA
ATOM     13  C   UNL     1      29.860  21.831  12.251  0.00  0.00    +0.000 C 
ATOM     14  N   UNL     1      30.362  21.086  11.156  0.00  0.00    +0.000 NA
BRANCH  13  15
ATOM     15  C   UNL     1      28.570  22.490  12.257  0.00  0.00    +0.000 A 
ATOM     16  C   UNL     1      28.253  23.396  13.238  0.00  0.00    +0.000 A 
ATOM     17  C   UNL     1      27.034  24.014  13.238  0.00  0.00    +0.000 A 
ATOM     18  C   UNL     1      26.130  23.729  12.259  0.00  0.00    +0.000 A 
ATOM     19  C   UNL     1      26.497  22.813  11.298  0.00  0.00    +0.000 A 
ATOM     20  N   UNL     1      27.690  22.208  11.298  0.00  0.00    +0.000 NA
ENDBRANCH  13  15
ENDBRANCH   1  14
TORSDOF 2
ENDMDL
MODEL 2
REMARK VINA RESULT:      -6.4      8.992     11.049
REMARK  Name = 
REMARK  2 active torsions:
REMARK  status: ('A' for Active; 'I' for Inactive)
REMARK    1  A    between atoms: C_2  and  C_15
REMARK    2  A    between atoms: N_3  and  N_4
REMARK                            x       y       z     vdW  Elec       q    Type
REMARK                         _______ _______ _______ _____ _____    ______ ____
ROOT
ATOM      1  N   UNL     1      30.119  26.467  19.608  0.00  0.00    +0.000 NA
ATOM      2  C   UNL     1      30.195  27.443  18.804  0.00  0.00    +0.000 C 
ATOM      3  C   UNL     1      31.338  27.495  17.854  0.00  0.00    +0.000 C 
ATOM      4  C   UNL     1      32.021  28.846  18.094  0.00  0.00    +0.000 C 
ATOM      5  C   UNL     1      31.025  29.978  18.016  0.00  0.00    +0.000 C 
ATOM      6  C   UNL     1      30.411  30.009  16.639  0.00  0.00    +0.000 C 
ATOM      7  C   UNL     1      29.737  28.666  16.389  0.00  0.00    +0.000 C 
ATOM      8  C   UNL     1      30.713  27.530  16.454  0.00  0.00    +0.000 C 
ATOM      9  C   UNL     1      28.591  28.520  17.367  0.00  0.00    +0.000 C 
ATOM     10  C   UNL     1      29.204  28.538  18.762  0.00  0.00    +0.000 C 
ATOM     11  C   UNL     1      29.913  29.848  19.028  0.00  0.00    +0.000 C 
ENDROOT
BRANCH   1  14
ATOM     12  O   UNL     1      29.690  24.095  21.010  0.00  0.00    +0.000 OA
ATOM     13  C   UNL     1      28.922  25.052  21.259  0.00  0.00    +0.000 C 
ATOM     14  N   UNL     1      29.131  26.263  20.553  0.00  0.00    +0.000 NA
BRANCH  13  15
ATOM     15  C   UNL     1      27.879  24.862  22.247  0.00  0.00    +0.000 A 
ATOM     16  C   UNL     1      27.557  25.866  23.126  0.00  0.00    +0.000 A 
ATOM     17  C   UNL     1      26.572  25.680  24.055  0.00  0.00    +0.000 A 
ATOM     18  C   UNL     1      25.907  24.492  24.107  0.00  0.00    +0.000 A 
ATOM     19  C   UNL     1      26.267  23.517  23.204  0.00  0.00    +0.000 A 
ATOM     20  N   UNL     1      27.231  23.699  22.294  0.00  0.00    +0.000 NA
ENDBRANCH  13  15
ENDBRANCH   1  14
TORSDOF 2
ENDMDL
MODEL 3
REMARK VINA RESULT:      -6.4     33.251     34.125
REMARK  Name = 
REMARK  2 active torsions:
REMARK  status: ('A' for Active; 'I' for Inactive)
REMARK    1  A    between atoms: C_2  and  C_15
REMARK    2  A    between atoms: N_3  and  N_4
REMARK                            x       y       z     vdW  Elec       q    Type
REMARK                         _______ _______ _______ _____ _____    ______ ____
ROOT
ATOM      1  N   UNL     1      23.257  -9.180  25.291  0.00  0.00    +0.000 NA
ATOM      2  C   UNL     1      24.065  -9.053  24.325  0.00  0.00    +0.000 C 
ATOM      3  C   UNL     1      24.988 -10.177  24.015  0.00  0.00    +0.000 C 
ATOM      4  C   UNL     1      26.400  -9.583  24.057  0.00  0.00    +0.000 C 
ATOM      5  C   UNL     1      26.502  -8.364  23.173  0.00  0.00    +0.000 C 
ATOM      6  C   UNL     1      26.207  -8.755  21.747  0.00  0.00    +0.000 C 
ATOM      7  C   UNL     1      24.807  -9.354  21.698  0.00  0.00    +0.000 C 
ATOM      8  C   UNL     1      24.690 -10.572  22.564  0.00  0.00    +0.000 C 
ATOM      9  C   UNL     1      23.814  -8.271  22.060  0.00  0.00    +0.000 C 
ATOM     10  C   UNL     1      24.140  -7.839  23.485  0.00  0.00    +0.000 C 
ATOM     11  C   UNL     1      25.541  -7.271  23.574  0.00  0.00    +0.000 C 
ENDROOT
BRANCH   1  14
ATOM     12  O   UNL     1      20.485  -9.440  25.119  0.00  0.00    +0.000 OA
ATOM     13  C   UNL     1      20.930  -8.383  25.622  0.00  0.00    +0.000 C 
ATOM     14  N   UNL     1      22.336  -8.240  25.715  0.00  0.00    +0.000 NA
BRANCH  13  15
ATOM     15  C   UNL     1      19.984  -7.383  26.074  0.00  0.00    +0.000 A 
ATOM     16  C   UNL     1      20.151  -6.062  25.739  0.00  0.00    +0.000 A 
ATOM     17  C   UNL     1      19.255  -5.123  26.169  0.00  0.00    +0.000 A 
ATOM     18  C   UNL     1      18.192  -5.501  26.933  0.00  0.00    +0.000 A 
ATOM     19  C   UNL     1      18.070  -6.838  27.241  0.00  0.00    +0.000 A 
ATOM     20  N   UNL     1      18.946  -7.757  26.821  0.00  0.00    +0.000 NA
ENDBRANCH  13  15
ENDBRANCH   1  14
TORSDOF 2
ENDMDL
MODEL 4
REMARK VINA RESULT:      -6.3     33.256     34.753
REMARK  Name = 
REMARK  2 active torsions:
REMARK  status: ('A' for Active; 'I' for Inactive)
REMARK    1  A    between atoms: C_2  and  C_15
REMARK    2  A    between atoms: N_3  and  N_4
REMARK                            x       y       z     vdW  Elec       q    Type
REMARK                         _______ _______ _______ _____ _____    ______ ____
ROOT
ATOM      1  N   UNL     1      34.645  -4.634  33.960  0.00  0.00    +0.000 NA
ATOM      2  C   UNL     1      34.244  -3.565  34.509  0.00  0.00    +0.000 C 
ATOM      3  C   UNL     1      34.745  -3.231  35.869  0.00  0.00    +0.000 C 
ATOM      4  C   UNL     1      33.499  -3.047  36.741  0.00  0.00    +0.000 C 
ATOM      5  C   UNL     1      32.541  -2.063  36.115  0.00  0.00    +0.000 C 
ATOM      6  C   UNL     1      33.216  -0.722  35.984  0.00  0.00    +0.000 C 
ATOM      7  C   UNL     1      34.461  -0.898  35.124  0.00  0.00    +0.000 C 
ATOM      8  C   UNL     1      35.429  -1.866  35.736  0.00  0.00    +0.000 C 
ATOM      9  C   UNL     1      34.024  -1.296  33.732  0.00  0.00    +0.000 C 
ATOM     10  C   UNL     1      33.298  -2.629  33.867  0.00  0.00    +0.000 C 
ATOM     11  C   UNL     1      32.073  -2.494  34.747  0.00  0.00    +0.000 C 
ENDROOT
BRANCH   1  14
ATOM     12  O   UNL     1      36.281  -6.096  32.239  0.00  0.00    +0.000 OA
ATOM     13  C   UNL     1      35.122  -5.837  31.842  0.00  0.00    +0.000 C 
ATOM     14  N   UNL     1      34.281  -5.095  32.708  0.00  0.00    +0.000 NA
BRANCH  13  15
ATOM     15  C   UNL     1      34.718  -6.311  30.534  0.00  0.00    +0.000 A 
ATOM     16  C   UNL     1      33.995  -5.503  29.691  0.00  0.00    +0.000 A 
ATOM     17  C   UNL     1      33.617  -5.956  28.458  0.00  0.00    +0.000 A 
ATOM     18  C   UNL     1      33.959  -7.214  28.065  0.00  0.00    +0.000 A 
ATOM     19  C   UNL     1      34.684  -7.985  28.948  0.00  0.00    +0.000 A 
ATOM     20  N   UNL     1      35.054  -7.542  30.154  0.00  0.00    +0.000 NA
ENDBRANCH  13  15
ENDBRANCH   1  14
TORSDOF 2
ENDMDL
MODEL 5
REMARK VINA RESULT:      -6.3      8.786     12.165
REMARK  Name = 
REMARK  2 active torsions:
REMARK  status: ('A' for Active; 'I' for Inactive)
REMARK    1  A    between atoms: C_2  and  C_15
REMARK    2  A    between atoms: N_3  and  N_4
REMARK                            x       y       z     vdW  Elec       q    Type
REMARK                         _______ _______ _______ _____ _____    ______ ____
ROOT
ATOM      1  N   UNL     1      29.970  25.177  20.839  0.00  0.00    +0.000 NA
ATOM      2  C   UNL     1      29.080  25.008  21.725  0.00  0.00    +0.000 C 
ATOM      3  C   UNL     1      29.478  24.419  23.032  0.00  0.00    +0.000 C 
ATOM      4  C   UNL     1      28.583  23.191  23.227  0.00  0.00    +0.000 C 
ATOM      5  C   UNL     1      27.126  23.551  23.064  0.00  0.00    +0.000 C 
ATOM      6  C   UNL     1      26.744  24.572  24.106  0.00  0.00    +0.000 C 
ATOM      7  C   UNL     1      27.636  25.794  23.924  0.00  0.00    +0.000 C 
ATOM      8  C   UNL     1      29.087  25.457  24.091  0.00  0.00    +0.000 C 
ATOM      9  C   UNL     1      27.322  26.414  22.580  0.00  0.00    +0.000 C 
ATOM     10  C   UNL     1      27.661  25.367  21.526  0.00  0.00    +0.000 C 
ATOM     11  C   UNL     1      26.815  24.124  21.703  0.00  0.00    +0.000 C 
ENDROOT
BRANCH   1  14
ATOM     12  O   UNL     1      30.097  27.885  20.186  0.00  0.00    +0.000 OA
ATOM     13  C   UNL     1      29.843  27.085  19.257  0.00  0.00    +0.000 C 
ATOM     14  N   UNL     1      29.777  25.706  19.577  0.00  0.00    +0.000 NA
BRANCH  13  15
ATOM     15  C   UNL     1      29.637  27.617  17.925  0.00  0.00    +0.000 A 
ATOM     16  C   UNL     1      30.499  27.301  16.905  0.00  0.00    +0.000 A 
ATOM     17  C   UNL     1      30.299  27.806  15.651  0.00  0.00    +0.000 A 
ATOM     18  C   UNL     1      29.238  28.626  15.413  0.00  0.00    +0.000 A 
ATOM     19  C   UNL     1      28.402  28.913  16.471  0.00  0.00    +0.000 A 
ATOM     20  N   UNL     1      28.597  28.418  17.698  0.00  0.00    +0.000 NA
ENDBRANCH  13  15
ENDBRANCH   1  14
TORSDOF 2
ENDMDL
MODEL 6
REMARK VINA RESULT:      -6.3     32.989     34.274
REMARK  Name = 
REMARK  2 active torsions:
REMARK  status: ('A' for Active; 'I' for Inactive)
REMARK    1  A    between atoms: C_2  and  C_15
REMARK    2  A    between atoms: N_3  and  N_4
REMARK                            x       y       z     vdW  Elec       q    Type
REMARK                         _______ _______ _______ _____ _____    ______ ____
ROOT
ATOM      1  N   UNL     1      34.286  -5.800  32.706  0.00  0.00    +0.000 NA
ATOM      2  C   UNL     1      33.979  -6.292  31.580  0.00  0.00    +0.000 C 
ATOM      3  C   UNL     1      34.139  -7.756  31.375  0.00  0.00    +0.000 C 
ATOM      4  C   UNL     1      35.046  -7.910  30.149  0.00  0.00    +0.000 C 
ATOM      5  C   UNL     1      34.515  -7.118  28.979  0.00  0.00    +0.000 C 
ATOM      6  C   UNL     1      33.147  -7.632  28.609  0.00  0.00    +0.000 C 
ATOM      7  C   UNL     1      32.240  -7.490  29.825  0.00  0.00    +0.000 C 
ATOM      8  C   UNL     1      32.748  -8.278  30.995  0.00  0.00    +0.000 C 
ATOM      9  C   UNL     1      32.078  -6.016  30.127  0.00  0.00    +0.000 C 
ATOM     10  C   UNL     1      33.467  -5.483  30.455  0.00  0.00    +0.000 C 
ATOM     11  C   UNL     1      34.403  -5.643  29.275  0.00  0.00    +0.000 C 
ENDROOT
BRANCH   1  14
ATOM     12  O   UNL     1      32.161  -4.632  34.083  0.00  0.00    +0.000 OA
ATOM     13  C   UNL     1      33.115  -3.886  33.766  0.00  0.00    +0.000 C 
ATOM     14  N   UNL     1      34.201  -4.468  33.067  0.00  0.00    +0.000 NA
BRANCH  13  15
ATOM     15  C   UNL     1      33.048  -2.485  34.134  0.00  0.00    +0.000 A 
ATOM     16  C   UNL     1      33.795  -1.550  33.460  0.00  0.00    +0.000 A 
ATOM     17  C   UNL     1      33.727  -0.231  33.812  0.00  0.00    +0.000 A 
ATOM     18  C   UNL     1      32.916   0.156  34.835  0.00  0.00    +0.000 A 
ATOM     19  C   UNL     1      32.188  -0.821  35.479  0.00  0.00    +0.000 A 
ATOM     20  N   UNL     1      32.253  -2.111  35.135  0.00  0.00    +0.000 NA
ENDBRANCH  13  15
ENDBRANCH   1  14
TORSDOF 2
ENDMDL
MODEL 7
REMARK VINA RESULT:      -6.3     28.964     30.863
REMARK  Name = 
REMARK  2 active torsions:
REMARK  status: ('A' for Active; 'I' for Inactive)
REMARK    1  A    between atoms: C_2  and  C_15
REMARK    2  A    between atoms: N_3  and  N_4
REMARK                            x       y       z     vdW  Elec       q    Type
REMARK                         _______ _______ _______ _____ _____    ______ ____
ROOT
ATOM      1  N   UNL     1      20.984   9.740  36.662  0.00  0.00    +0.000 NA
ATOM      2  C   UNL     1      22.115  10.042  37.147  0.00  0.00    +0.000 C 
ATOM      3  C   UNL     1      23.338   9.515  36.485  0.00  0.00    +0.000 C 
ATOM      4  C   UNL     1      24.112   8.764  37.573  0.00  0.00    +0.000 C 
ATOM      5  C   UNL     1      24.324   9.636  38.787  0.00  0.00    +0.000 C 
ATOM      6  C   UNL     1      25.133  10.848  38.397  0.00  0.00    +0.000 C 
ATOM      7  C   UNL     1      24.373  11.596  37.309  0.00  0.00    +0.000 C 
ATOM      8  C   UNL     1      24.161  10.748  36.091  0.00  0.00    +0.000 C 
ATOM      9  C   UNL     1      23.081  12.115  37.903  0.00  0.00    +0.000 C 
ATOM     10  C   UNL     1      22.282  10.894  38.343  0.00  0.00    +0.000 C 
ATOM     11  C   UNL     1      23.029  10.108  39.400  0.00  0.00    +0.000 C 
ENDROOT
BRANCH   1  14
ATOM     12  O   UNL     1      18.555   9.486  35.317  0.00  0.00    +0.000 OA
ATOM     13  C   UNL     1      18.525  10.005  36.456  0.00  0.00    +0.000 C 
ATOM     14  N   UNL     1      19.754  10.140  37.149  0.00  0.00    +0.000 NA
BRANCH  13  15
ATOM     15  C   UNL     1      17.246  10.432  36.987  0.00  0.00    +0.000 A 
ATOM     16  C   UNL     1      16.934  10.223  38.308  0.00  0.00    +0.000 A 
ATOM     17  C   UNL     1      15.726  10.628  38.803  0.00  0.00    +0.000 A 
ATOM     18  C   UNL     1      14.829  11.240  37.981  0.00  0.00    +0.000 A 
ATOM     19  C   UNL     1      15.190  11.426  36.665  0.00  0.00    +0.000 A 
ATOM     20  N   UNL     1      16.372  11.031  36.180  0.00  0.00    +0.000 NA
ENDBRANCH  13  15
ENDBRANCH   1  14
TORSDOF 2
ENDMDL
MODEL 8
REMARK VINA RESULT:      -6.2     27.240     29.925
REMARK  Name = 
REMARK  2 active torsions:
REMARK  status: ('A' for Active; 'I' for Inactive)
REMARK    1  A    between atoms: C_2  and  C_15
REMARK    2  A    between atoms: N_3  and  N_4
REMARK                            x       y       z     vdW  Elec       q    Type
REMARK                         _______ _______ _______ _____ _____    ______ ____
ROOT
ATOM      1  N   UNL     1      14.768  12.507  34.101  0.00  0.00    +0.000 NA
ATOM      2  C   UNL     1      14.858  12.613  32.842  0.00  0.00    +0.000 C 
ATOM      3  C   UNL     1      14.010  13.619  32.149  0.00  0.00    +0.000 C 
ATOM      4  C   UNL     1      13.217  12.843  31.093  0.00  0.00    +0.000 C 
ATOM      5  C   UNL     1      14.135  12.020  30.223  0.00  0.00    +0.000 C 
ATOM      6  C   UNL     1      15.093  12.934  29.502  0.00  0.00    +0.000 C 
ATOM      7  C   UNL     1      15.880  13.716  30.545  0.00  0.00    +0.000 C 
ATOM      8  C   UNL     1      14.985  14.547  31.414  0.00  0.00    +0.000 C 
ATOM      9  C   UNL     1      16.728  12.739  31.331  0.00  0.00    +0.000 C 
ATOM     10  C   UNL     1      15.764  11.783  32.022  0.00  0.00    +0.000 C 
ATOM     11  C   UNL     1      14.940  11.015  31.010  0.00  0.00    +0.000 C 
ENDROOT
BRANCH   1  14
ATOM     12  O   UNL     1      16.199  13.201  36.393  0.00  0.00    +0.000 OA
ATOM     13  C   UNL     1      16.200  11.993  36.062  0.00  0.00    +0.000 C 
ATOM     14  N   UNL     1      15.476  11.629  34.900  0.00  0.00    +0.000 NA
BRANCH  13  15
ATOM     15  C   UNL     1      16.935  11.054  36.885  0.00  0.00    +0.000 A 
ATOM     16  C   UNL     1      16.514  10.761  38.158  0.00  0.00    +0.000 A 
ATOM     17  C   UNL     1      17.212   9.874  38.928  0.00  0.00    +0.000 A 
ATOM     18  C   UNL     1      18.331   9.278  38.430  0.00  0.00    +0.000 A 
ATOM     19  C   UNL     1      18.712   9.606  37.147  0.00  0.00    +0.000 A 
ATOM     20  N   UNL     1      18.029  10.474  36.392  0.00  0.00    +0.000 NA
ENDBRANCH  13  15
ENDBRANCH   1  14
TORSDOF 2
ENDMDL
MODEL 9
REMARK VINA RESULT:      -6.2     19.344     20.230
REMARK  Name = 
REMARK  2 active torsions:
REMARK  status: ('A' for Active; 'I' for Inactive)
REMARK    1  A    between atoms: C_2  and  C_15
REMARK    2  A    between atoms: N_3  and  N_4
REMARK                            x       y       z     vdW  Elec       q    Type
REMARK                         _______ _______ _______ _____ _____    ______ ____
ROOT
ATOM      1  N   UNL     1      25.202   4.030  15.510  0.00  0.00    +0.000 NA
ATOM      2  C   UNL     1      25.964   4.767  16.204  0.00  0.00    +0.000 C 
ATOM      3  C   UNL     1      27.362   4.981  15.741  0.00  0.00    +0.000 C 
ATOM      4  C   UNL     1      28.259   4.552  16.907  0.00  0.00    +0.000 C 
ATOM      5  C   UNL     1      27.856   5.247  18.185  0.00  0.00    +0.000 C 
ATOM      6  C   UNL     1      28.006   6.738  18.011  0.00  0.00    +0.000 C 
ATOM      7  C   UNL     1      27.123   7.172  16.847  0.00  0.00    +0.000 C 
ATOM      8  C   UNL     1      27.514   6.497  15.567  0.00  0.00    +0.000 C 
ATOM      9  C   UNL     1      25.679   6.926  17.230  0.00  0.00    +0.000 C 
ATOM     10  C   UNL     1      25.536   5.426  17.455  0.00  0.00    +0.000 C 
ATOM     11  C   UNL     1      26.430   4.957  18.583  0.00  0.00    +0.000 C 
ENDROOT
BRANCH   1  14
ATOM     12  O   UNL     1      24.298   1.632  16.609  0.00  0.00    +0.000 OA
ATOM     13  C   UNL     1      23.436   2.503  16.350  0.00  0.00    +0.000 C 
ATOM     14  N   UNL     1      23.883   3.725  15.792  0.00  0.00    +0.000 NA
BRANCH  13  15
ATOM     15  C   UNL     1      22.047   2.205  16.637  0.00  0.00    +0.000 A 
ATOM     16  C   UNL     1      21.409   2.801  17.697  0.00  0.00    +0.000 A 
ATOM     17  C   UNL     1      20.099   2.516  17.962  0.00  0.00    +0.000 A 
ATOM     18  C   UNL     1      19.424   1.637  17.171  0.00  0.00    +0.000 A 
ATOM     19  C   UNL     1      20.109   1.066  16.120  0.00  0.00    +0.000 A 
ATOM     20  N   UNL     1      21.390   1.345  15.860  0.00  0.00    +0.000 NA
ENDBRANCH  13  15
ENDBRANCH   1  14
TORSDOF 2
ENDMDL
MODEL 10
REMARK VINA RESULT:      -6.1     29.607     30.597
REMARK  Name = 
REMARK  2 active torsions:
REMARK  status: ('A' for Active; 'I' for Inactive)
REMARK    1  A    between atoms: C_2  and  C_15
REMARK    2  A    between atoms: N_3  and  N_4
REMARK                            x       y       z     vdW  Elec       q    Type
REMARK                         _______ _______ _______ _____ _____    ______ ____
ROOT
ATOM      1  N   UNL     1      20.546   9.939  38.012  0.00  0.00    +0.000 NA
ATOM      2  C   UNL     1      21.812   9.966  38.011  0.00  0.00    +0.000 C 
ATOM      3  C   UNL     1      22.534   9.605  39.260  0.00  0.00    +0.000 C 
ATOM      4  C   UNL     1      23.439  10.800  39.580  0.00  0.00    +0.000 C 
ATOM      5  C   UNL     1      24.291  11.169  38.391  0.00  0.00    +0.000 C 
ATOM      6  C   UNL     1      25.176  10.003  38.030  0.00  0.00    +0.000 C 
ATOM      7  C   UNL     1      24.284   8.807  37.717  0.00  0.00    +0.000 C 
ATOM      8  C   UNL     1      23.436   8.421  38.892  0.00  0.00    +0.000 C 
ATOM      9  C   UNL     1      23.474   9.130  36.481  0.00  0.00    +0.000 C 
ATOM     10  C   UNL     1      22.613  10.339  36.827  0.00  0.00    +0.000 C 
ATOM     11  C   UNL     1      23.472  11.536  37.177  0.00  0.00    +0.000 C 
ENDROOT
BRANCH   1  14
ATOM     12  O   UNL     1      17.773   9.645  37.979  0.00  0.00    +0.000 OA
ATOM     13  C   UNL     1      18.313  10.090  36.940  0.00  0.00    +0.000 C 
ATOM     14  N   UNL     1      19.721  10.244  36.946  0.00  0.00    +0.000 NA
BRANCH  13  15
ATOM     15  C   UNL     1      17.468  10.417  35.809  0.00  0.00    +0.000 A 
ATOM     16  C   UNL     1      17.800   9.996  34.545  0.00  0.00    +0.000 A 
ATOM     17  C   UNL     1      16.999  10.308  33.482  0.00  0.00    +0.000 A 
ATOM     18  C   UNL     1      15.867  11.040  33.679  0.00  0.00    +0.000 A 
ATOM     19  C   UNL     1      15.579  11.438  34.966  0.00  0.00    +0.000 A 
ATOM     20  N   UNL     1      16.362  11.132  36.007  0.00  0.00    +0.000 NA
ENDBRANCH  13  15
ENDBRANCH   1  14
TORSDOF 2
ENDMDL
