MODEL 1
REMARK VINA RESULT:      -8.9      0.000      0.000
REMARK  Name = 
REMARK  6 active torsions:
REMARK  status: ('A' for Active; 'I' for Inactive)
REMARK    1  A    between atoms: C_2  and  C_3
REMARK    2  A    between atoms: C_5  and  C_6
REMARK    3  A    between atoms: C_15  and  O_16
REMARK    4  A    between atoms: O_16  and  C_17
REMARK    5  A    between atoms: C_17  and  C_18
REMARK    6  A    between atoms: C_22  and  C_23
REMARK                            x       y       z     vdW  Elec       q    Type
REMARK                         _______ _______ _______ _____ _____    ______ ____
ROOT
ATOM      1  C   UNL     1      40.952   5.574  14.609  0.00  0.00    +0.000 A 
ATOM      2  C   UNL     1      40.827   6.129  15.874  0.00  0.00    +0.000 A 
ATOM      3  C   UNL     1      39.825   5.742  16.743  0.00  0.00    +0.000 A 
ATOM      4  C   UNL     1      38.919   4.783  16.362  0.00  0.00    +0.000 A 
ATOM      5  C   UNL     1      37.902   4.375  17.193  0.00  0.00    +0.000 A 
ATOM      6  C   UNL     1      36.984   3.402  16.783  0.00  0.00    +0.000 A 
ATOM      7  C   UNL     1      37.048   2.815  15.555  0.00  0.00    +0.000 A 
ATOM      8  C   UNL     1      38.093   3.250  14.729  0.00  0.00    +0.000 A 
ATOM      9  C   UNL     1      39.002   4.199  15.107  0.00  0.00    +0.000 A 
ATOM     10  C   UNL     1      40.031   4.621  14.263  0.00  0.00    +0.000 A 
ENDROOT
BRANCH   3  11
ATOM     11  C   UNL     1      39.728   6.408  18.044  0.00  0.00    +0.000 A 
ATOM     12  C   UNL     1      38.665   7.284  18.236  0.00  0.00    +0.000 A 
ATOM     13  C   UNL     1      38.505   7.896  19.451  0.00  0.00    +0.000 A 
ATOM     14  C   UNL     1      39.393   7.635  20.458  0.00  0.00    +0.000 A 
ATOM     15  C   UNL     1      40.472   6.757  20.292  0.00  0.00    +0.000 A 
ATOM     16  C   UNL     1      40.614   6.151  19.058  0.00  0.00    +0.000 A 
ENDBRANCH   3  11
BRANCH   1  18
ATOM     17  O   UNL     1      42.961   5.003  13.630  0.00  0.00    +0.000 OA
ATOM     18  C   UNL     1      42.037   6.074  13.747  0.00  0.00    +0.000 C 
ENDBRANCH   1  18
BRANCH   7  19
ATOM     19  O   UNL     1      36.161   1.863  15.119  0.00  0.00    +0.000 OA
BRANCH  19  20
ATOM     20  C   UNL     1      35.518   0.841  15.653  0.00  0.00    +0.000 C 
BRANCH  20  21
ATOM     21  C   UNL     1      36.120  -0.112  16.560  0.00  0.00    +0.000 A 
ATOM     22  C   UNL     1      35.844  -0.003  17.934  0.00  0.00    +0.000 A 
ATOM     23  C   UNL     1      36.378  -0.929  18.812  0.00  0.00    +0.000 A 
ATOM     24  C   UNL     1      37.159  -1.932  18.333  0.00  0.00    +0.000 A 
ATOM     25  C   UNL     1      37.441  -2.056  16.990  0.00  0.00    +0.000 A 
ATOM     26  C   UNL     1      36.932  -1.157  16.094  0.00  0.00    +0.000 A 
BRANCH  25  27
ATOM     27  C   UNL     1      38.292  -3.199  16.546  0.00  0.00    +0.000 C 
ATOM     28  O   UNL     1      39.604  -2.765  16.314  0.00  0.00    +0.000 OA
ATOM     29  C   UNL     1      37.776  -3.733  15.250  0.00  0.00    +0.000 C 
ATOM     30  C   UNL     1      36.533  -4.566  15.362  0.00  0.00    +0.000 C 
ATOM     31  O   UNL     1      36.405  -5.219  16.577  0.00  0.00    +0.000 OA
ATOM     32  C   UNL     1      37.690  -5.565  17.033  0.00  0.00    +0.000 C 
ATOM     33  C   UNL     1      38.317  -4.298  17.572  0.00  0.00    +0.000 C 
ENDBRANCH  25  27
ENDBRANCH  20  21
ENDBRANCH  19  20
ENDBRANCH   7  19
TORSDOF 6
ENDMDL
MODEL 2
REMARK VINA RESULT:      -8.8      2.773      4.957
REMARK  Name = 
REMARK  6 active torsions:
REMARK  status: ('A' for Active; 'I' for Inactive)
REMARK    1  A    between atoms: C_2  and  C_3
REMARK    2  A    between atoms: C_5  and  C_6
REMARK    3  A    between atoms: C_15  and  O_16
REMARK    4  A    between atoms: O_16  and  C_17
REMARK    5  A    between atoms: C_17  and  C_18
REMARK    6  A    between atoms: C_22  and  C_23
REMARK                            x       y       z     vdW  Elec       q    Type
REMARK                         _______ _______ _______ _____ _____    ______ ____
ROOT
ATOM      1  C   UNL     1      44.283   6.962  17.315  0.00  0.00    +0.000 A 
ATOM      2  C   UNL     1      44.460   7.101  18.683  0.00  0.00    +0.000 A 
ATOM      3  C   UNL     1      43.420   6.917  19.574  0.00  0.00    +0.000 A 
ATOM      4  C   UNL     1      42.170   6.586  19.111  0.00  0.00    +0.000 A 
ATOM      5  C   UNL     1      41.106   6.401  19.963  0.00  0.00    +0.000 A 
ATOM      6  C   UNL     1      39.839   6.071  19.471  0.00  0.00    +0.000 A 
ATOM      7  C   UNL     1      39.595   5.919  18.138  0.00  0.00    +0.000 A 
ATOM      8  C   UNL     1      40.696   6.113  17.294  0.00  0.00    +0.000 A 
ATOM      9  C   UNL     1      41.943   6.435  17.751  0.00  0.00    +0.000 A 
ATOM     10  C   UNL     1      43.024   6.631  16.889  0.00  0.00    +0.000 A 
ENDROOT
BRANCH   3  11
ATOM     11  C   UNL     1      43.672   7.129  21.001  0.00  0.00    +0.000 A 
ATOM     12  C   UNL     1      43.886   6.002  21.788  0.00  0.00    +0.000 A 
ATOM     13  C   UNL     1      44.171   6.151  23.119  0.00  0.00    +0.000 A 
ATOM     14  C   UNL     1      44.241   7.408  23.655  0.00  0.00    +0.000 A 
ATOM     15  C   UNL     1      44.029   8.560  22.887  0.00  0.00    +0.000 A 
ATOM     16  C   UNL     1      43.743   8.385  21.546  0.00  0.00    +0.000 A 
ENDBRANCH   3  11
BRANCH   1  18
ATOM     17  O   UNL     1      45.342   6.268  15.387  0.00  0.00    +0.000 OA
ATOM     18  C   UNL     1      45.447   7.207  16.446  0.00  0.00    +0.000 C 
ENDBRANCH   1  18
BRANCH   7  19
ATOM     19  O   UNL     1      38.363   5.602  17.622  0.00  0.00    +0.000 OA
BRANCH  19  20
ATOM     20  C   UNL     1      37.886   5.224  16.450  0.00  0.00    +0.000 C 
BRANCH  20  21
ATOM     21  C   UNL     1      37.680   3.844  16.066  0.00  0.00    +0.000 A 
ATOM     22  C   UNL     1      38.563   3.262  15.140  0.00  0.00    +0.000 A 
ATOM     23  C   UNL     1      38.408   1.933  14.792  0.00  0.00    +0.000 A 
ATOM     24  C   UNL     1      37.405   1.208  15.353  0.00  0.00    +0.000 A 
ATOM     25  C   UNL     1      36.530   1.759  16.262  0.00  0.00    +0.000 A 
ATOM     26  C   UNL     1      36.652   3.071  16.627  0.00  0.00    +0.000 A 
BRANCH  25  27
ATOM     27  C   UNL     1      35.468   0.887  16.844  0.00  0.00    +0.000 C 
ATOM     28  O   UNL     1      34.217   1.512  16.746  0.00  0.00    +0.000 OA
ATOM     29  C   UNL     1      35.735   0.678  18.299  0.00  0.00    +0.000 C 
ATOM     30  C   UNL     1      36.841  -0.288  18.604  0.00  0.00    +0.000 C 
ATOM     31  O   UNL     1      37.018  -1.261  17.634  0.00  0.00    +0.000 OA
ATOM     32  C   UNL     1      35.761  -1.574  17.086  0.00  0.00    +0.000 C 
ATOM     33  C   UNL     1      35.403  -0.442  16.146  0.00  0.00    +0.000 C 
ENDBRANCH  25  27
ENDBRANCH  20  21
ENDBRANCH  19  20
ENDBRANCH   7  19
TORSDOF 6
ENDMDL
MODEL 3
REMARK VINA RESULT:      -8.8      2.313      4.037
REMARK  Name = 
REMARK  6 active torsions:
REMARK  status: ('A' for Active; 'I' for Inactive)
REMARK    1  A    between atoms: C_2  and  C_3
REMARK    2  A    between atoms: C_5  and  C_6
REMARK    3  A    between atoms: C_15  and  O_16
REMARK    4  A    between atoms: O_16  and  C_17
REMARK    5  A    between atoms: C_17  and  C_18
REMARK    6  A    between atoms: C_22  and  C_23
REMARK                            x       y       z     vdW  Elec       q    Type
REMARK                         _______ _______ _______ _____ _____    ______ ____
ROOT
ATOM      1  C   UNL     1      36.167   6.151  14.042  0.00  0.00    +0.000 A 
ATOM      2  C   UNL     1      37.089   6.372  15.054  0.00  0.00    +0.000 A 
ATOM      3  C   UNL     1      38.055   5.438  15.376  0.00  0.00    +0.000 A 
ATOM      4  C   UNL     1      38.119   4.252  14.686  0.00  0.00    +0.000 A 
ATOM      5  C   UNL     1      39.060   3.293  14.980  0.00  0.00    +0.000 A 
ATOM      6  C   UNL     1      39.105   2.088  14.270  0.00  0.00    +0.000 A 
ATOM      7  C   UNL     1      38.231   1.805  13.264  0.00  0.00    +0.000 A 
ATOM      8  C   UNL     1      37.284   2.800  12.987  0.00  0.00    +0.000 A 
ATOM      9  C   UNL     1      37.220   3.984  13.666  0.00  0.00    +0.000 A 
ATOM     10  C   UNL     1      36.261   4.958  13.375  0.00  0.00    +0.000 A 
ENDROOT
BRANCH   3  11
ATOM     11  C   UNL     1      38.963   5.722  16.490  0.00  0.00    +0.000 A 
ATOM     12  C   UNL     1      38.513   5.431  17.773  0.00  0.00    +0.000 A 
ATOM     13  C   UNL     1      39.342   5.635  18.843  0.00  0.00    +0.000 A 
ATOM     14  C   UNL     1      40.603   6.124  18.633  0.00  0.00    +0.000 A 
ATOM     15  C   UNL     1      41.082   6.427  17.352  0.00  0.00    +0.000 A 
ATOM     16  C   UNL     1      40.227   6.212  16.287  0.00  0.00    +0.000 A 
ENDBRANCH   3  11
BRANCH   1  18
ATOM     17  O   UNL     1      33.903   6.533  13.817  0.00  0.00    +0.000 OA
ATOM     18  C   UNL     1      35.158   7.196  13.794  0.00  0.00    +0.000 C 
ENDBRANCH   1  18
BRANCH   7  19
ATOM     19  O   UNL     1      38.243   0.632  12.553  0.00  0.00    +0.000 OA
BRANCH  19  20
ATOM     20  C   UNL     1      38.133  -0.655  12.829  0.00  0.00    +0.000 C 
BRANCH  20  21
ATOM     21  C   UNL     1      38.161  -1.202  14.168  0.00  0.00    +0.000 A 
ATOM     22  C   UNL     1      39.352  -1.783  14.637  0.00  0.00    +0.000 A 
ATOM     23  C   UNL     1      39.410  -2.273  15.929  0.00  0.00    +0.000 A 
ATOM     24  C   UNL     1      38.315  -2.184  16.727  0.00  0.00    +0.000 A 
ATOM     25  C   UNL     1      37.139  -1.618  16.288  0.00  0.00    +0.000 A 
ATOM     26  C   UNL     1      37.045  -1.125  15.015  0.00  0.00    +0.000 A 
BRANCH  25  27
ATOM     27  C   UNL     1      35.989  -1.542  17.237  0.00  0.00    +0.000 C 
ATOM     28  O   UNL     1      35.194  -2.691  17.129  0.00  0.00    +0.000 OA
ATOM     29  C   UNL     1      35.122  -0.380  16.880  0.00  0.00    +0.000 C 
ATOM     30  C   UNL     1      35.670   0.960  17.274  0.00  0.00    +0.000 C 
ATOM     31  O   UNL     1      36.499   0.921  18.383  0.00  0.00    +0.000 OA
ATOM     32  C   UNL     1      36.031  -0.081  19.252  0.00  0.00    +0.000 C 
ATOM     33  C   UNL     1      36.457  -1.407  18.659  0.00  0.00    +0.000 C 
ENDBRANCH  25  27
ENDBRANCH  20  21
ENDBRANCH  19  20
ENDBRANCH   7  19
TORSDOF 6
ENDMDL
MODEL 4
REMARK VINA RESULT:      -8.7      2.207      2.775
REMARK  Name = 
REMARK  6 active torsions:
REMARK  status: ('A' for Active; 'I' for Inactive)
REMARK    1  A    between atoms: C_2  and  C_3
REMARK    2  A    between atoms: C_5  and  C_6
REMARK    3  A    between atoms: C_15  and  O_16
REMARK    4  A    between atoms: O_16  and  C_17
REMARK    5  A    between atoms: C_17  and  C_18
REMARK    6  A    between atoms: C_22  and  C_23
REMARK                            x       y       z     vdW  Elec       q    Type
REMARK                         _______ _______ _______ _____ _____    ______ ____
ROOT
ATOM      1  C   UNL     1      40.776   5.547  14.563  0.00  0.00    +0.000 A 
ATOM      2  C   UNL     1      40.640   6.125  15.817  0.00  0.00    +0.000 A 
ATOM      3  C   UNL     1      39.684   5.695  16.716  0.00  0.00    +0.000 A 
ATOM      4  C   UNL     1      38.835   4.670  16.378  0.00  0.00    +0.000 A 
ATOM      5  C   UNL     1      37.864   4.218  17.242  0.00  0.00    +0.000 A 
ATOM      6  C   UNL     1      37.005   3.176  16.876  0.00  0.00    +0.000 A 
ATOM      7  C   UNL     1      37.082   2.563  15.661  0.00  0.00    +0.000 A 
ATOM      8  C   UNL     1      38.080   3.044  14.803  0.00  0.00    +0.000 A 
ATOM      9  C   UNL     1      38.931   4.059  15.137  0.00  0.00    +0.000 A 
ATOM     10  C   UNL     1      39.913   4.526  14.261  0.00  0.00    +0.000 A 
ENDROOT
BRANCH   3  11
ATOM     11  C   UNL     1      39.568   6.387  18.002  0.00  0.00    +0.000 A 
ATOM     12  C   UNL     1      38.517   7.285  18.154  0.00  0.00    +0.000 A 
ATOM     13  C   UNL     1      38.340   7.922  19.353  0.00  0.00    +0.000 A 
ATOM     14  C   UNL     1      39.201   7.665  20.385  0.00  0.00    +0.000 A 
ATOM     15  C   UNL     1      40.268   6.766  20.260  0.00  0.00    +0.000 A 
ATOM     16  C   UNL     1      40.427   6.135  19.040  0.00  0.00    +0.000 A 
ENDBRANCH   3  11
BRANCH   1  18
ATOM     17  O   UNL     1      42.976   5.324  13.906  0.00  0.00    +0.000 OA
ATOM     18  C   UNL     1      41.807   6.094  13.665  0.00  0.00    +0.000 C 
ENDBRANCH   1  18
BRANCH   7  19
ATOM     19  O   UNL     1      36.252   1.544  15.269  0.00  0.00    +0.000 OA
BRANCH  19  20
ATOM     20  C   UNL     1      36.283   0.224  15.287  0.00  0.00    +0.000 C 
BRANCH  20  21
ATOM     21  C   UNL     1      37.491  -0.556  15.446  0.00  0.00    +0.000 A 
ATOM     22  C   UNL     1      37.522  -1.563  16.426  0.00  0.00    +0.000 A 
ATOM     23  C   UNL     1      38.653  -2.346  16.564  0.00  0.00    +0.000 A 
ATOM     24  C   UNL     1      39.718  -2.132  15.749  0.00  0.00    +0.000 A 
ATOM     25  C   UNL     1      39.708  -1.151  14.782  0.00  0.00    +0.000 A 
ATOM     26  C   UNL     1      38.607  -0.356  14.619  0.00  0.00    +0.000 A 
BRANCH  25  27
ATOM     27  C   UNL     1      40.913  -0.996  13.915  0.00  0.00    +0.000 C 
ATOM     28  O   UNL     1      41.509   0.254  14.131  0.00  0.00    +0.000 OA
ATOM     29  C   UNL     1      40.506  -1.040  12.479  0.00  0.00    +0.000 C 
ATOM     30  C   UNL     1      40.179  -2.408  11.958  0.00  0.00    +0.000 C 
ATOM     31  O   UNL     1      40.855  -3.429  12.605  0.00  0.00    +0.000 OA
ATOM     32  C   UNL     1      42.127  -2.955  12.973  0.00  0.00    +0.000 C 
ATOM     33  C   UNL     1      41.928  -2.071  14.186  0.00  0.00    +0.000 C 
ENDBRANCH  25  27
ENDBRANCH  20  21
ENDBRANCH  19  20
ENDBRANCH   7  19
TORSDOF 6
ENDMDL
MODEL 5
REMARK VINA RESULT:      -8.6     24.944     28.270
REMARK  Name = 
REMARK  6 active torsions:
REMARK  status: ('A' for Active; 'I' for Inactive)
REMARK    1  A    between atoms: C_2  and  C_3
REMARK    2  A    between atoms: C_5  and  C_6
REMARK    3  A    between atoms: C_15  and  O_16
REMARK    4  A    between atoms: O_16  and  C_17
REMARK    5  A    between atoms: C_17  and  C_18
REMARK    6  A    between atoms: C_22  and  C_23
REMARK                            x       y       z     vdW  Elec       q    Type
REMARK                         _______ _______ _______ _____ _____    ______ ____
ROOT
ATOM      1  C   UNL     1      29.129  15.571  37.217  0.00  0.00    +0.000 A 
ATOM      2  C   UNL     1      28.319  15.678  36.097  0.00  0.00    +0.000 A 
ATOM      3  C   UNL     1      26.946  15.536  36.175  0.00  0.00    +0.000 A 
ATOM      4  C   UNL     1      26.351  15.281  37.387  0.00  0.00    +0.000 A 
ATOM      5  C   UNL     1      24.990  15.124  37.507  0.00  0.00    +0.000 A 
ATOM      6  C   UNL     1      24.403  14.858  38.749  0.00  0.00    +0.000 A 
ATOM      7  C   UNL     1      25.140  14.740  39.889  0.00  0.00    +0.000 A 
ATOM      8  C   UNL     1      26.523  14.904  39.737  0.00  0.00    +0.000 A 
ATOM      9  C   UNL     1      27.119  15.165  38.536  0.00  0.00    +0.000 A 
ATOM     10  C   UNL     1      28.502  15.317  38.408  0.00  0.00    +0.000 A 
ENDROOT
BRANCH   3  11
ATOM     11  C   UNL     1      26.161  15.613  34.942  0.00  0.00    +0.000 A 
ATOM     12  C   UNL     1      25.613  16.848  34.609  0.00  0.00    +0.000 A 
ATOM     13  C   UNL     1      24.909  16.982  33.442  0.00  0.00    +0.000 A 
ATOM     14  C   UNL     1      24.755  15.898  32.620  0.00  0.00    +0.000 A 
ATOM     15  C   UNL     1      25.296  14.644  32.931  0.00  0.00    +0.000 A 
ATOM     16  C   UNL     1      26.003  14.532  34.114  0.00  0.00    +0.000 A 
ENDBRANCH   3  11
BRANCH   1  18
ATOM     17  O   UNL     1      31.001  14.525  36.367  0.00  0.00    +0.000 OA
ATOM     18  C   UNL     1      30.583  15.711  37.026  0.00  0.00    +0.000 C 
ENDBRANCH   1  18
BRANCH   7  19
ATOM     19  O   UNL     1      24.597  14.474  41.121  0.00  0.00    +0.000 OA
BRANCH  19  20
ATOM     20  C   UNL     1      25.051  14.124  42.311  0.00  0.00    +0.000 C 
BRANCH  20  21
ATOM     21  C   UNL     1      25.176  12.754  42.759  0.00  0.00    +0.000 A 
ATOM     22  C   UNL     1      24.439  12.341  43.883  0.00  0.00    +0.000 A 
ATOM     23  C   UNL     1      24.513  11.025  44.301  0.00  0.00    +0.000 A 
ATOM     24  C   UNL     1      25.296  10.150  43.619  0.00  0.00    +0.000 A 
ATOM     25  C   UNL     1      26.026  10.534  42.516  0.00  0.00    +0.000 A 
ATOM     26  C   UNL     1      25.978  11.828  42.076  0.00  0.00    +0.000 A 
BRANCH  25  27
ATOM     27  C   UNL     1      26.847   9.504  41.813  0.00  0.00    +0.000 C 
ATOM     28  O   UNL     1      26.017   8.530  41.241  0.00  0.00    +0.000 OA
ATOM     29  C   UNL     1      27.722   8.803  42.800  0.00  0.00    +0.000 C 
ATOM     30  C   UNL     1      28.914   9.592  43.256  0.00  0.00    +0.000 C 
ATOM     31  O   UNL     1      29.374  10.503  42.320  0.00  0.00    +0.000 OA
ATOM     32  C   UNL     1      29.168   9.964  41.037  0.00  0.00    +0.000 C 
ATOM     33  C   UNL     1      27.693  10.118  40.733  0.00  0.00    +0.000 C 
ENDBRANCH  25  27
ENDBRANCH  20  21
ENDBRANCH  19  20
ENDBRANCH   7  19
TORSDOF 6
ENDMDL
MODEL 6
REMARK VINA RESULT:      -8.5      2.349      3.953
REMARK  Name = 
REMARK  6 active torsions:
REMARK  status: ('A' for Active; 'I' for Inactive)
REMARK    1  A    between atoms: C_2  and  C_3
REMARK    2  A    between atoms: C_5  and  C_6
REMARK    3  A    between atoms: C_15  and  O_16
REMARK    4  A    between atoms: O_16  and  C_17
REMARK    5  A    between atoms: C_17  and  C_18
REMARK    6  A    between atoms: C_22  and  C_23
REMARK                            x       y       z     vdW  Elec       q    Type
REMARK                         _______ _______ _______ _____ _____    ______ ____
ROOT
ATOM      1  C   UNL     1      43.567   6.908  16.316  0.00  0.00    +0.000 A 
ATOM      2  C   UNL     1      43.814   7.110  17.665  0.00  0.00    +0.000 A 
ATOM      3  C   UNL     1      42.856   6.853  18.627  0.00  0.00    +0.000 A 
ATOM      4  C   UNL     1      41.620   6.383  18.256  0.00  0.00    +0.000 A 
ATOM      5  C   UNL     1      40.636   6.122  19.181  0.00  0.00    +0.000 A 
ATOM      6  C   UNL     1      39.381   5.651  18.782  0.00  0.00    +0.000 A 
ATOM      7  C   UNL     1      39.071   5.430  17.473  0.00  0.00    +0.000 A 
ATOM      8  C   UNL     1      40.091   5.704  16.554  0.00  0.00    +0.000 A 
ATOM      9  C   UNL     1      41.325   6.165  16.919  0.00  0.00    +0.000 A 
ATOM     10  C   UNL     1      42.324   6.438  15.982  0.00  0.00    +0.000 A 
ENDROOT
BRANCH   3  11
ATOM     11  C   UNL     1      43.174   7.137  20.028  0.00  0.00    +0.000 A 
ATOM     12  C   UNL     1      43.442   6.053  20.857  0.00  0.00    +0.000 A 
ATOM     13  C   UNL     1      43.789   6.270  22.163  0.00  0.00    +0.000 A 
ATOM     14  C   UNL     1      43.867   7.552  22.635  0.00  0.00    +0.000 A 
ATOM     15  C   UNL     1      43.602   8.663  21.822  0.00  0.00    +0.000 A 
ATOM     16  C   UNL     1      43.254   8.419  20.507  0.00  0.00    +0.000 A 
ENDBRANCH   3  11
BRANCH   1  18
ATOM     17  O   UNL     1      44.722   6.137  14.474  0.00  0.00    +0.000 OA
ATOM     18  C   UNL     1      44.644   7.238  15.366  0.00  0.00    +0.000 C 
ENDBRANCH   1  18
BRANCH   7  19
ATOM     19  O   UNL     1      37.848   4.974  17.048  0.00  0.00    +0.000 OA
BRANCH  19  20
ATOM     20  C   UNL     1      37.359   4.433  15.947  0.00  0.00    +0.000 C 
BRANCH  20  21
ATOM     21  C   UNL     1      36.776   3.110  15.885  0.00  0.00    +0.000 A 
ATOM     22  C   UNL     1      35.489   2.914  16.415  0.00  0.00    +0.000 A 
ATOM     23  C   UNL     1      34.898   1.666  16.327  0.00  0.00    +0.000 A 
ATOM     24  C   UNL     1      35.570   0.649  15.728  0.00  0.00    +0.000 A 
ATOM     25  C   UNL     1      36.831   0.821  15.203  0.00  0.00    +0.000 A 
ATOM     26  C   UNL     1      37.447   2.040  15.273  0.00  0.00    +0.000 A 
BRANCH  25  27
ATOM     27  C   UNL     1      37.491  -0.345  14.544  0.00  0.00    +0.000 C 
ATOM     28  O   UNL     1      37.149  -0.393  13.186  0.00  0.00    +0.000 OA
ATOM     29  C   UNL     1      36.997  -1.613  15.161  0.00  0.00    +0.000 C 
ATOM     30  C   UNL     1      37.569  -1.920  16.513  0.00  0.00    +0.000 C 
ATOM     31  O   UNL     1      38.837  -1.400  16.716  0.00  0.00    +0.000 OA
ATOM     32  C   UNL     1      39.527  -1.422  15.491  0.00  0.00    +0.000 C 
ATOM     33  C   UNL     1      38.987  -0.272  14.667  0.00  0.00    +0.000 C 
ENDBRANCH  25  27
ENDBRANCH  20  21
ENDBRANCH  19  20
ENDBRANCH   7  19
TORSDOF 6
ENDMDL
MODEL 7
REMARK VINA RESULT:      -8.5      2.872      9.321
REMARK  Name = 
REMARK  6 active torsions:
REMARK  status: ('A' for Active; 'I' for Inactive)
REMARK    1  A    between atoms: C_2  and  C_3
REMARK    2  A    between atoms: C_5  and  C_6
REMARK    3  A    between atoms: C_15  and  O_16
REMARK    4  A    between atoms: O_16  and  C_17
REMARK    5  A    between atoms: C_17  and  C_18
REMARK    6  A    between atoms: C_22  and  C_23
REMARK                            x       y       z     vdW  Elec       q    Type
REMARK                         _______ _______ _______ _____ _____    ______ ____
ROOT
ATOM      1  C   UNL     1      41.615  -1.339  14.165  0.00  0.00    +0.000 A 
ATOM      2  C   UNL     1      40.661  -2.287  14.504  0.00  0.00    +0.000 A 
ATOM      3  C   UNL     1      39.378  -1.930  14.872  0.00  0.00    +0.000 A 
ATOM      4  C   UNL     1      39.019  -0.604  14.909  0.00  0.00    +0.000 A 
ATOM      5  C   UNL     1      37.755  -0.206  15.276  0.00  0.00    +0.000 A 
ATOM      6  C   UNL     1      37.411   1.150  15.314  0.00  0.00    +0.000 A 
ATOM      7  C   UNL     1      38.298   2.133  14.994  0.00  0.00    +0.000 A 
ATOM      8  C   UNL     1      39.577   1.698  14.623  0.00  0.00    +0.000 A 
ATOM      9  C   UNL     1      39.937   0.381  14.578  0.00  0.00    +0.000 A 
ATOM     10  C   UNL     1      41.221  -0.028  14.213  0.00  0.00    +0.000 A 
ENDROOT
BRANCH   3  11
ATOM     11  C   UNL     1      38.440  -2.984  15.263  0.00  0.00    +0.000 A 
ATOM     12  C   UNL     1      38.623  -3.573  16.510  0.00  0.00    +0.000 A 
ATOM     13  C   UNL     1      37.744  -4.531  16.940  0.00  0.00    +0.000 A 
ATOM     14  C   UNL     1      36.699  -4.895  16.136  0.00  0.00    +0.000 A 
ATOM     15  C   UNL     1      36.491  -4.319  14.876  0.00  0.00    +0.000 A 
ATOM     16  C   UNL     1      37.390  -3.354  14.463  0.00  0.00    +0.000 A 
ENDBRANCH   3  11
BRANCH   1  18
ATOM     17  O   UNL     1      42.767  -2.867  12.877  0.00  0.00    +0.000 OA
ATOM     18  C   UNL     1      42.963  -1.819  13.815  0.00  0.00    +0.000 C 
ENDBRANCH   1  18
BRANCH   7  19
ATOM     19  O   UNL     1      37.995   3.471  15.027  0.00  0.00    +0.000 OA
BRANCH  19  20
ATOM     20  C   UNL     1      37.986   4.428  15.938  0.00  0.00    +0.000 C 
BRANCH  20  21
ATOM     21  C   UNL     1      39.166   5.141  16.375  0.00  0.00    +0.000 A 
ATOM     22  C   UNL     1      40.160   5.448  15.429  0.00  0.00    +0.000 A 
ATOM     23  C   UNL     1      41.276   6.165  15.820  0.00  0.00    +0.000 A 
ATOM     24  C   UNL     1      41.394   6.565  17.112  0.00  0.00    +0.000 A 
ATOM     25  C   UNL     1      40.432   6.276  18.054  0.00  0.00    +0.000 A 
ATOM     26  C   UNL     1      39.317   5.566  17.704  0.00  0.00    +0.000 A 
BRANCH  25  27
ATOM     27  C   UNL     1      40.632   6.770  19.449  0.00  0.00    +0.000 C 
ATOM     28  O   UNL     1      41.144   5.747  20.258  0.00  0.00    +0.000 OA
ATOM     29  C   UNL     1      39.316   7.167  20.032  0.00  0.00    +0.000 C 
ATOM     30  C   UNL     1      38.774   8.475  19.534  0.00  0.00    +0.000 C 
ATOM     31  O   UNL     1      39.753   9.373  19.144  0.00  0.00    +0.000 OA
ATOM     32  C   UNL     1      40.876   9.192  19.971  0.00  0.00    +0.000 C 
ATOM     33  C   UNL     1      41.576   7.940  19.487  0.00  0.00    +0.000 C 
ENDBRANCH  25  27
ENDBRANCH  20  21
ENDBRANCH  19  20
ENDBRANCH   7  19
TORSDOF 6
ENDMDL
MODEL 8
REMARK VINA RESULT:      -8.4      1.569      2.682
REMARK  Name = 
REMARK  6 active torsions:
REMARK  status: ('A' for Active; 'I' for Inactive)
REMARK    1  A    between atoms: C_2  and  C_3
REMARK    2  A    between atoms: C_5  and  C_6
REMARK    3  A    between atoms: C_15  and  O_16
REMARK    4  A    between atoms: O_16  and  C_17
REMARK    5  A    between atoms: C_17  and  C_18
REMARK    6  A    between atoms: C_22  and  C_23
REMARK                            x       y       z     vdW  Elec       q    Type
REMARK                         _______ _______ _______ _____ _____    ______ ____
ROOT
ATOM      1  C   UNL     1      41.888   6.173  14.701  0.00  0.00    +0.000 A 
ATOM      2  C   UNL     1      41.444   6.571  15.953  0.00  0.00    +0.000 A 
ATOM      3  C   UNL     1      40.315   6.025  16.533  0.00  0.00    +0.000 A 
ATOM      4  C   UNL     1      39.600   5.059  15.866  0.00  0.00    +0.000 A 
ATOM      5  C   UNL     1      38.466   4.495  16.405  0.00  0.00    +0.000 A 
ATOM      6  C   UNL     1      37.748   3.519  15.707  0.00  0.00    +0.000 A 
ATOM      7  C   UNL     1      38.128   3.081  14.473  0.00  0.00    +0.000 A 
ATOM      8  C   UNL     1      39.285   3.672  13.950  0.00  0.00    +0.000 A 
ATOM      9  C   UNL     1      40.004   4.628  14.612  0.00  0.00    +0.000 A 
ATOM     10  C   UNL     1      41.151   5.208  14.066  0.00  0.00    +0.000 A 
ENDROOT
BRANCH   3  11
ATOM     11  C   UNL     1      39.879   6.531  17.836  0.00  0.00    +0.000 A 
ATOM     12  C   UNL     1      40.650   6.193  18.944  0.00  0.00    +0.000 A 
ATOM     13  C   UNL     1      40.310   6.680  20.178  0.00  0.00    +0.000 A 
ATOM     14  C   UNL     1      39.217   7.493  20.302  0.00  0.00    +0.000 A 
ATOM     15  C   UNL     1      38.423   7.849  19.204  0.00  0.00    +0.000 A 
ATOM     16  C   UNL     1      38.785   7.346  17.969  0.00  0.00    +0.000 A 
ENDBRANCH   3  11
BRANCH   1  18
ATOM     17  O   UNL     1      42.672   7.443  12.943  0.00  0.00    +0.000 OA
ATOM     18  C   UNL     1      43.085   6.835  14.157  0.00  0.00    +0.000 C 
ENDBRANCH   1  18
BRANCH   7  19
ATOM     19  O   UNL     1      37.443   2.129  13.760  0.00  0.00    +0.000 OA
BRANCH  19  20
ATOM     20  C   UNL     1      37.646   0.875  13.398  0.00  0.00    +0.000 C 
BRANCH  20  21
ATOM     21  C   UNL     1      38.175  -0.146  14.275  0.00  0.00    +0.000 A 
ATOM     22  C   UNL     1      39.545  -0.455  14.203  0.00  0.00    +0.000 A 
ATOM     23  C   UNL     1      40.078  -1.398  15.062  0.00  0.00    +0.000 A 
ATOM     24  C   UNL     1      39.270  -2.011  15.965  0.00  0.00    +0.000 A 
ATOM     25  C   UNL     1      37.926  -1.722  16.053  0.00  0.00    +0.000 A 
ATOM     26  C   UNL     1      37.365  -0.797  15.218  0.00  0.00    +0.000 A 
BRANCH  25  27
ATOM     27  C   UNL     1      37.114  -2.428  17.088  0.00  0.00    +0.000 C 
ATOM     28  O   UNL     1      36.433  -3.511  16.516  0.00  0.00    +0.000 OA
ATOM     29  C   UNL     1      36.076  -1.500  17.628  0.00  0.00    +0.000 C 
ATOM     30  C   UNL     1      36.591  -0.467  18.586  0.00  0.00    +0.000 C 
ATOM     31  O   UNL     1      37.716  -0.868  19.289  0.00  0.00    +0.000 OA
ATOM     32  C   UNL     1      37.626  -2.253  19.518  0.00  0.00    +0.000 C 
ATOM     33  C   UNL     1      37.974  -2.934  18.212  0.00  0.00    +0.000 C 
ENDBRANCH  25  27
ENDBRANCH  20  21
ENDBRANCH  19  20
ENDBRANCH   7  19
TORSDOF 6
ENDMDL
MODEL 9
REMARK VINA RESULT:      -8.4      3.198      5.864
REMARK  Name = 
REMARK  6 active torsions:
REMARK  status: ('A' for Active; 'I' for Inactive)
REMARK    1  A    between atoms: C_2  and  C_3
REMARK    2  A    between atoms: C_5  and  C_6
REMARK    3  A    between atoms: C_15  and  O_16
REMARK    4  A    between atoms: O_16  and  C_17
REMARK    5  A    between atoms: C_17  and  C_18
REMARK    6  A    between atoms: C_22  and  C_23
REMARK                            x       y       z     vdW  Elec       q    Type
REMARK                         _______ _______ _______ _____ _____    ______ ____
ROOT
ATOM      1  C   UNL     1      44.780   6.907  17.786  0.00  0.00    +0.000 A 
ATOM      2  C   UNL     1      44.951   6.797  19.158  0.00  0.00    +0.000 A 
ATOM      3  C   UNL     1      43.879   6.639  20.015  0.00  0.00    +0.000 A 
ATOM      4  C   UNL     1      42.602   6.587  19.514  0.00  0.00    +0.000 A 
ATOM      5  C   UNL     1      41.507   6.438  20.333  0.00  0.00    +0.000 A 
ATOM      6  C   UNL     1      40.213   6.394  19.803  0.00  0.00    +0.000 A 
ATOM      7  C   UNL     1      39.972   6.496  18.465  0.00  0.00    +0.000 A 
ATOM      8  C   UNL     1      41.105   6.646  17.655  0.00  0.00    +0.000 A 
ATOM      9  C   UNL     1      42.379   6.692  18.149  0.00  0.00    +0.000 A 
ATOM     10  C   UNL     1      43.493   6.850  17.322  0.00  0.00    +0.000 A 
ENDROOT
BRANCH   3  11
ATOM     11  C   UNL     1      44.135   6.579  21.456  0.00  0.00    +0.000 A 
ATOM     12  C   UNL     1      44.508   5.350  21.989  0.00  0.00    +0.000 A 
ATOM     13  C   UNL     1      44.803   5.253  23.323  0.00  0.00    +0.000 A 
ATOM     14  C   UNL     1      44.725   6.368  24.112  0.00  0.00    +0.000 A 
ATOM     15  C   UNL     1      44.351   7.618  23.601  0.00  0.00    +0.000 A 
ATOM     16  C   UNL     1      44.059   7.692  22.253  0.00  0.00    +0.000 A 
ENDBRANCH   3  11
BRANCH   1  18
ATOM     17  O   UNL     1      45.874   6.170  15.894  0.00  0.00    +0.000 OA
ATOM     18  C   UNL     1      45.984   7.102  16.960  0.00  0.00    +0.000 C 
ENDBRANCH   1  18
BRANCH   7  19
ATOM     19  O   UNL     1      38.716   6.463  17.914  0.00  0.00    +0.000 OA
BRANCH  19  20
ATOM     20  C   UNL     1      38.202   6.238  16.718  0.00  0.00    +0.000 C 
BRANCH  20  21
ATOM     21  C   UNL     1      38.392   5.013  15.972  0.00  0.00    +0.000 A 
ATOM     22  C   UNL     1      39.448   4.944  15.046  0.00  0.00    +0.000 A 
ATOM     23  C   UNL     1      39.671   3.767  14.353  0.00  0.00    +0.000 A 
ATOM     24  C   UNL     1      38.870   2.695  14.581  0.00  0.00    +0.000 A 
ATOM     25  C   UNL     1      37.831   2.742  15.484  0.00  0.00    +0.000 A 
ATOM     26  C   UNL     1      37.579   3.889  16.185  0.00  0.00    +0.000 A 
BRANCH  25  27
ATOM     27  C   UNL     1      37.011   1.512  15.688  0.00  0.00    +0.000 C 
ATOM     28  O   UNL     1      37.831   0.376  15.690  0.00  0.00    +0.000 OA
ATOM     29  C   UNL     1      36.054   1.355  14.552  0.00  0.00    +0.000 C 
ATOM     30  C   UNL     1      34.871   2.277  14.592  0.00  0.00    +0.000 C 
ATOM     31  O   UNL     1      34.501   2.657  15.871  0.00  0.00    +0.000 OA
ATOM     32  C   UNL     1      34.757   1.584  16.744  0.00  0.00    +0.000 C 
ATOM     33  C   UNL     1      36.251   1.565  16.985  0.00  0.00    +0.000 C 
ENDBRANCH  25  27
ENDBRANCH  20  21
ENDBRANCH  19  20
ENDBRANCH   7  19
TORSDOF 6
ENDMDL
MODEL 10
REMARK VINA RESULT:      -8.3      3.983      8.240
REMARK  Name = 
REMARK  6 active torsions:
REMARK  status: ('A' for Active; 'I' for Inactive)
REMARK    1  A    between atoms: C_2  and  C_3
REMARK    2  A    between atoms: C_5  and  C_6
REMARK    3  A    between atoms: C_15  and  O_16
REMARK    4  A    between atoms: O_16  and  C_17
REMARK    5  A    between atoms: C_17  and  C_18
REMARK    6  A    between atoms: C_22  and  C_23
REMARK                            x       y       z     vdW  Elec       q    Type
REMARK                         _______ _______ _______ _____ _____    ______ ____
ROOT
ATOM      1  C   UNL     1      42.573  -1.692  14.096  0.00  0.00    +0.000 A 
ATOM      2  C   UNL     1      42.325  -1.668  12.731  0.00  0.00    +0.000 A 
ATOM      3  C   UNL     1      41.094  -2.014  12.208  0.00  0.00    +0.000 A 
ATOM      4  C   UNL     1      40.075  -2.394  13.047  0.00  0.00    +0.000 A 
ATOM      5  C   UNL     1      38.837  -2.753  12.567  0.00  0.00    +0.000 A 
ATOM      6  C   UNL     1      37.814  -3.144  13.437  0.00  0.00    +0.000 A 
ATOM      7  C   UNL     1      37.988  -3.190  14.789  0.00  0.00    +0.000 A 
ATOM      8  C   UNL     1      39.258  -2.819  15.249  0.00  0.00    +0.000 A 
ATOM      9  C   UNL     1      40.273  -2.434  14.419  0.00  0.00    +0.000 A 
ATOM     10  C   UNL     1      41.533  -2.076  14.902  0.00  0.00    +0.000 A 
ENDROOT
BRANCH   3  11
ATOM     11  C   UNL     1      40.923  -2.011  10.754  0.00  0.00    +0.000 A 
ATOM     12  C   UNL     1      41.135  -3.211  10.083  0.00  0.00    +0.000 A 
ATOM     13  C   UNL     1      40.942  -3.270   8.728  0.00  0.00    +0.000 A 
ATOM     14  C   UNL     1      40.544  -2.148   8.055  0.00  0.00    +0.000 A 
ATOM     15  C   UNL     1      40.323  -0.927   8.706  0.00  0.00    +0.000 A 
ATOM     16  C   UNL     1      40.523  -0.891  10.073  0.00  0.00    +0.000 A 
ENDBRANCH   3  11
BRANCH   1  18
ATOM     17  O   UNL     1      44.736  -1.321  13.386  0.00  0.00    +0.000 OA
ATOM     18  C   UNL     1      43.926  -1.333  14.552  0.00  0.00    +0.000 C 
ENDBRANCH   1  18
BRANCH   7  19
ATOM     19  O   UNL     1      37.008  -3.575  15.669  0.00  0.00    +0.000 OA
BRANCH  19  20
ATOM     20  C   UNL     1      35.933  -3.025  16.204  0.00  0.00    +0.000 C 
BRANCH  20  21
ATOM     21  C   UNL     1      35.935  -1.761  16.909  0.00  0.00    +0.000 A 
ATOM     22  C   UNL     1      36.178  -1.760  18.293  0.00  0.00    +0.000 A 
ATOM     23  C   UNL     1      36.225  -0.559  18.977  0.00  0.00    +0.000 A 
ATOM     24  C   UNL     1      36.038   0.603  18.299  0.00  0.00    +0.000 A 
ATOM     25  C   UNL     1      35.800   0.624  16.943  0.00  0.00    +0.000 A 
ATOM     26  C   UNL     1      35.744  -0.545  16.235  0.00  0.00    +0.000 A 
BRANCH  25  27
ATOM     27  C   UNL     1      35.625   1.946  16.272  0.00  0.00    +0.000 C 
ATOM     28  O   UNL     1      34.294   2.371  16.375  0.00  0.00    +0.000 OA
ATOM     29  C   UNL     1      35.927   1.812  14.816  0.00  0.00    +0.000 C 
ATOM     30  C   UNL     1      37.386   1.717  14.480  0.00  0.00    +0.000 C 
ATOM     31  O   UNL     1      38.212   2.360  15.389  0.00  0.00    +0.000 OA
ATOM     32  C   UNL     1      37.537   3.492  15.878  0.00  0.00    +0.000 C 
ATOM     33  C   UNL     1      36.517   2.993  16.879  0.00  0.00    +0.000 C 
ENDBRANCH  25  27
ENDBRANCH  20  21
ENDBRANCH  19  20
ENDBRANCH   7  19
TORSDOF 6
ENDMDL
