MODEL 1
REMARK VINA RESULT:      -5.9      0.000      0.000
REMARK  Name = 
REMARK  3 active torsions:
REMARK  status: ('A' for Active; 'I' for Inactive)
REMARK    1  A    between atoms: C_2  and  O_3
REMARK    2  A    between atoms: O_3  and  C_4
REMARK    3  A    between atoms: C_10  and  C_11
REMARK                            x       y       z     vdW  Elec       q    Type
REMARK                         _______ _______ _______ _____ _____    ______ ____
ROOT
ATOM      1  C   UNL     1      20.031  13.551  38.588  0.00  0.00    +0.000 A 
ATOM      2  C   UNL     1      20.850  12.747  39.354  0.00  0.00    +0.000 A 
ATOM      3  C   UNL     1      20.693  11.375  39.402  0.00  0.00    +0.000 A 
ATOM      4  C   UNL     1      19.679  10.810  38.653  0.00  0.00    +0.000 A 
ATOM      5  N   UNL     1      19.232   9.546  38.549  0.00  0.00    +0.000 NA
ATOM      6  C   UNL     1      18.173   9.514  37.753  0.00  0.00    +0.000 A 
ATOM      7  C   UNL     1      17.881  10.813  37.287  0.00  0.00    +0.000 A 
ATOM      8  C   UNL     1      18.832  11.584  37.864  0.00  0.00    +0.000 A 
ATOM      9  C   UNL     1      19.048  12.920  37.866  0.00  0.00    +0.000 A 
ENDROOT
BRANCH   7  10
ATOM     10  C   UNL     1      16.820  11.155  36.315  0.00  0.00    +0.000 A 
ATOM     11  N   UNL     1      17.133  11.255  35.021  0.00  0.00    +0.000 NA
ATOM     12  C   UNL     1      16.224  11.575  34.141  0.00  0.00    +0.000 A 
ATOM     13  N   UNL     1      16.447  11.665  32.728  0.00  0.00    +0.000 NA
ATOM     14  C   UNL     1      15.340  11.978  31.858  0.00  0.00    +0.000 C 
ATOM     15  S   UNL     1      14.825  11.772  35.089  0.00  0.00    +0.000 S 
ATOM     16  C   UNL     1      15.522  11.411  36.642  0.00  0.00    +0.000 A 
ATOM     17  C   UNL     1      14.797  11.432  37.955  0.00  0.00    +0.000 C 
ENDBRANCH   7  10
BRANCH   1  18
ATOM     18  O   UNL     1      20.229  14.950  38.586  0.00  0.00    +0.000 OA
BRANCH  18  20
ATOM     19  C   UNL     1      18.932  16.366  40.045  0.00  0.00    +0.000 C 
ATOM     20  C   UNL     1      20.212  15.632  39.829  0.00  0.00    +0.000 C 
ENDBRANCH  18  20
ENDBRANCH   1  18
TORSDOF 3
ENDMDL
MODEL 2
REMARK VINA RESULT:      -5.9      2.880      3.661
REMARK  Name = 
REMARK  3 active torsions:
REMARK  status: ('A' for Active; 'I' for Inactive)
REMARK    1  A    between atoms: C_2  and  O_3
REMARK    2  A    between atoms: O_3  and  C_4
REMARK    3  A    between atoms: C_10  and  C_11
REMARK                            x       y       z     vdW  Elec       q    Type
REMARK                         _______ _______ _______ _____ _____    ______ ____
ROOT
ATOM      1  C   UNL     1      19.807  10.445  38.192  0.00  0.00    +0.000 A 
ATOM      2  C   UNL     1      19.626   9.948  39.466  0.00  0.00    +0.000 A 
ATOM      3  C   UNL     1      18.369   9.767  40.012  0.00  0.00    +0.000 A 
ATOM      4  C   UNL     1      17.273  10.102  39.242  0.00  0.00    +0.000 A 
ATOM      5  N   UNL     1      15.954  10.114  39.508  0.00  0.00    +0.000 NA
ATOM      6  C   UNL     1      15.295  10.594  38.462  0.00  0.00    +0.000 A 
ATOM      7  C   UNL     1      16.200  10.921  37.431  0.00  0.00    +0.000 A 
ATOM      8  C   UNL     1      17.409  10.604  37.950  0.00  0.00    +0.000 A 
ATOM      9  C   UNL     1      18.671  10.751  37.483  0.00  0.00    +0.000 A 
ENDROOT
BRANCH   7  10
ATOM     10  C   UNL     1      15.825  11.406  36.084  0.00  0.00    +0.000 A 
ATOM     11  N   UNL     1      14.990  12.441  35.977  0.00  0.00    +0.000 NA
ATOM     12  C   UNL     1      14.624  12.881  34.804  0.00  0.00    +0.000 A 
ATOM     13  N   UNL     1      13.770  14.010  34.581  0.00  0.00    +0.000 NA
ATOM     14  C   UNL     1      13.485  14.422  33.228  0.00  0.00    +0.000 C 
ATOM     15  S   UNL     1      15.440  11.838  33.733  0.00  0.00    +0.000 S 
ATOM     16  C   UNL     1      16.249  10.850  34.914  0.00  0.00    +0.000 A 
ATOM     17  C   UNL     1      17.144   9.684  34.617  0.00  0.00    +0.000 C 
ENDBRANCH   7  10
BRANCH   1  18
ATOM     18  O   UNL     1      21.115  10.620  37.689  0.00  0.00    +0.000 OA
BRANCH  18  20
ATOM     19  C   UNL     1      22.869  10.218  36.083  0.00  0.00    +0.000 C 
ATOM     20  C   UNL     1      21.520   9.830  36.582  0.00  0.00    +0.000 C 
ENDBRANCH  18  20
ENDBRANCH   1  18
TORSDOF 3
ENDMDL
MODEL 3
REMARK VINA RESULT:      -5.9     20.904     22.400
REMARK  Name = 
REMARK  3 active torsions:
REMARK  status: ('A' for Active; 'I' for Inactive)
REMARK    1  A    between atoms: C_2  and  O_3
REMARK    2  A    between atoms: O_3  and  C_4
REMARK    3  A    between atoms: C_10  and  C_11
REMARK                            x       y       z     vdW  Elec       q    Type
REMARK                         _______ _______ _______ _____ _____    ______ ____
ROOT
ATOM      1  C   UNL     1      33.717  -0.725  33.992  0.00  0.00    +0.000 A 
ATOM      2  C   UNL     1      34.344  -0.588  35.213  0.00  0.00    +0.000 A 
ATOM      3  C   UNL     1      34.785  -1.680  35.938  0.00  0.00    +0.000 A 
ATOM      4  C   UNL     1      34.581  -2.938  35.405  0.00  0.00    +0.000 A 
ATOM      5  N   UNL     1      34.819  -4.171  35.888  0.00  0.00    +0.000 NA
ATOM      6  C   UNL     1      34.374  -5.077  35.030  0.00  0.00    +0.000 A 
ATOM      7  C   UNL     1      33.809  -4.439  33.905  0.00  0.00    +0.000 A 
ATOM      8  C   UNL     1      33.955  -3.121  34.175  0.00  0.00    +0.000 A 
ATOM      9  C   UNL     1      33.554  -2.005  33.523  0.00  0.00    +0.000 A 
ENDROOT
BRANCH   7  10
ATOM     10  C   UNL     1      33.285  -5.127  32.705  0.00  0.00    +0.000 A 
ATOM     11  N   UNL     1      33.933  -4.992  31.546  0.00  0.00    +0.000 NA
ATOM     12  C   UNL     1      33.486  -5.570  30.464  0.00  0.00    +0.000 A 
ATOM     13  N   UNL     1      34.129  -5.524  29.185  0.00  0.00    +0.000 NA
ATOM     14  C   UNL     1      33.554  -6.252  28.080  0.00  0.00    +0.000 C 
ATOM     15  S   UNL     1      32.079  -6.361  31.006  0.00  0.00    +0.000 S 
ATOM     16  C   UNL     1      32.151  -5.883  32.677  0.00  0.00    +0.000 A 
ATOM     17  C   UNL     1      31.152  -6.242  33.736  0.00  0.00    +0.000 C 
ENDBRANCH   7  10
BRANCH   1  18
ATOM     18  O   UNL     1      33.277   0.425  33.300  0.00  0.00    +0.000 OA
BRANCH  18  20
ATOM     19  C   UNL     1      33.787   2.754  32.936  0.00  0.00    +0.000 C 
ATOM     20  C   UNL     1      33.448   1.689  33.922  0.00  0.00    +0.000 C 
ENDBRANCH  18  20
ENDBRANCH   1  18
TORSDOF 3
ENDMDL
MODEL 4
REMARK VINA RESULT:      -5.8     22.150     23.501
REMARK  Name = 
REMARK  3 active torsions:
REMARK  status: ('A' for Active; 'I' for Inactive)
REMARK    1  A    between atoms: C_2  and  O_3
REMARK    2  A    between atoms: O_3  and  C_4
REMARK    3  A    between atoms: C_10  and  C_11
REMARK                            x       y       z     vdW  Elec       q    Type
REMARK                         _______ _______ _______ _____ _____    ______ ____
ROOT
ATOM      1  C   UNL     1      31.287  24.352  24.698  0.00  0.00    +0.000 A 
ATOM      2  C   UNL     1      30.753  23.166  25.158  0.00  0.00    +0.000 A 
ATOM      3  C   UNL     1      29.639  22.589  24.578  0.00  0.00    +0.000 A 
ATOM      4  C   UNL     1      29.056  23.237  23.507  0.00  0.00    +0.000 A 
ATOM      5  N   UNL     1      27.945  22.978  22.793  0.00  0.00    +0.000 NA
ATOM      6  C   UNL     1      27.754  23.943  21.905  0.00  0.00    +0.000 A 
ATOM      7  C   UNL     1      28.780  24.905  22.010  0.00  0.00    +0.000 A 
ATOM      8  C   UNL     1      29.562  24.434  23.010  0.00  0.00    +0.000 A 
ATOM      9  C   UNL     1      30.657  24.937  23.627  0.00  0.00    +0.000 A 
ENDROOT
BRANCH   7  10
ATOM     10  C   UNL     1      28.944  26.082  21.128  0.00  0.00    +0.000 A 
ATOM     11  N   UNL     1      29.854  26.038  20.153  0.00  0.00    +0.000 NA
ATOM     12  C   UNL     1      30.037  27.067  19.370  0.00  0.00    +0.000 A 
ATOM     13  N   UNL     1      30.954  27.106  18.269  0.00  0.00    +0.000 NA
ATOM     14  C   UNL     1      31.021  28.291  17.449  0.00  0.00    +0.000 C 
ATOM     15  S   UNL     1      28.921  28.205  19.965  0.00  0.00    +0.000 S 
ATOM     16  C   UNL     1      28.246  27.246  21.250  0.00  0.00    +0.000 A 
ATOM     17  C   UNL     1      27.185  27.690  22.212  0.00  0.00    +0.000 C 
ENDBRANCH   7  10
BRANCH   1  18
ATOM     18  O   UNL     1      32.420  24.903  25.337  0.00  0.00    +0.000 OA
BRANCH  18  20
ATOM     19  C   UNL     1      34.631  25.628  24.703  0.00  0.00    +0.000 C 
ATOM     20  C   UNL     1      33.704  24.479  24.907  0.00  0.00    +0.000 C 
ENDBRANCH  18  20
ENDBRANCH   1  18
TORSDOF 3
ENDMDL
MODEL 5
REMARK VINA RESULT:      -5.8     21.943     23.689
REMARK  Name = 
REMARK  3 active torsions:
REMARK  status: ('A' for Active; 'I' for Inactive)
REMARK    1  A    between atoms: C_2  and  O_3
REMARK    2  A    between atoms: O_3  and  C_4
REMARK    3  A    between atoms: C_10  and  C_11
REMARK                            x       y       z     vdW  Elec       q    Type
REMARK                         _______ _______ _______ _____ _____    ______ ____
ROOT
ATOM      1  C   UNL     1      21.296  -8.085  25.790  0.00  0.00    +0.000 A 
ATOM      2  C   UNL     1      21.269  -6.792  25.310  0.00  0.00    +0.000 A 
ATOM      3  C   UNL     1      20.192  -5.953  25.522  0.00  0.00    +0.000 A 
ATOM      4  C   UNL     1      19.119  -6.443  26.241  0.00  0.00    +0.000 A 
ATOM      5  N   UNL     1      17.920  -5.913  26.544  0.00  0.00    +0.000 NA
ATOM      6  C   UNL     1      17.191  -6.809  27.194  0.00  0.00    +0.000 A 
ATOM      7  C   UNL     1      17.922  -8.006  27.348  0.00  0.00    +0.000 A 
ATOM      8  C   UNL     1      19.105  -7.740  26.746  0.00  0.00    +0.000 A 
ATOM      9  C   UNL     1      20.197  -8.502  26.500  0.00  0.00    +0.000 A 
ENDROOT
BRANCH   7  10
ATOM     10  C   UNL     1      17.465  -9.199  28.093  0.00  0.00    +0.000 A 
ATOM     11  N   UNL     1      17.780  -9.317  29.384  0.00  0.00    +0.000 NA
ATOM     12  C   UNL     1      17.408 -10.367  30.065  0.00  0.00    +0.000 A 
ATOM     13  N   UNL     1      17.656 -10.568  31.462  0.00  0.00    +0.000 NA
ATOM     14  C   UNL     1      17.144 -11.753  32.106  0.00  0.00    +0.000 C 
ATOM     15  S   UNL     1      16.572 -11.296  28.910  0.00  0.00    +0.000 S 
ATOM     16  C   UNL     1      16.754 -10.227  27.550  0.00  0.00    +0.000 A 
ATOM     17  C   UNL     1      16.244 -10.479  26.162  0.00  0.00    +0.000 C 
ENDBRANCH   7  10
BRANCH   1  18
ATOM     18  O   UNL     1      22.418  -8.904  25.533  0.00  0.00    +0.000 OA
BRANCH  18  20
ATOM     19  C   UNL     1      23.445  -9.175  23.367  0.00  0.00    +0.000 C 
ATOM     20  C   UNL     1      23.416  -8.416  24.649  0.00  0.00    +0.000 C 
ENDBRANCH  18  20
ENDBRANCH   1  18
TORSDOF 3
ENDMDL
MODEL 6
REMARK VINA RESULT:      -5.7     21.917     23.769
REMARK  Name = 
REMARK  3 active torsions:
REMARK  status: ('A' for Active; 'I' for Inactive)
REMARK    1  A    between atoms: C_2  and  O_3
REMARK    2  A    between atoms: O_3  and  C_4
REMARK    3  A    between atoms: C_10  and  C_11
REMARK                            x       y       z     vdW  Elec       q    Type
REMARK                         _______ _______ _______ _____ _____    ______ ____
ROOT
ATOM      1  C   UNL     1      21.190  -7.902  25.649  0.00  0.00    +0.000 A 
ATOM      2  C   UNL     1      21.178  -6.555  25.349  0.00  0.00    +0.000 A 
ATOM      3  C   UNL     1      20.107  -5.742  25.669  0.00  0.00    +0.000 A 
ATOM      4  C   UNL     1      19.025  -6.314  26.309  0.00  0.00    +0.000 A 
ATOM      5  N   UNL     1      17.829  -5.819  26.676  0.00  0.00    +0.000 NA
ATOM      6  C   UNL     1      17.088  -6.788  27.194  0.00  0.00    +0.000 A 
ATOM      7  C   UNL     1      17.807  -8.002  27.186  0.00  0.00    +0.000 A 
ATOM      8  C   UNL     1      18.997  -7.668  26.632  0.00  0.00    +0.000 A 
ATOM      9  C   UNL     1      20.082  -8.401  26.289  0.00  0.00    +0.000 A 
ENDROOT
BRANCH   7  10
ATOM     10  C   UNL     1      17.334  -9.281  27.759  0.00  0.00    +0.000 A 
ATOM     11  N   UNL     1      16.364  -9.952  27.134  0.00  0.00    +0.000 NA
ATOM     12  C   UNL     1      15.911 -11.074  27.624  0.00  0.00    +0.000 A 
ATOM     13  N   UNL     1      14.906 -11.889  27.009  0.00  0.00    +0.000 NA
ATOM     14  C   UNL     1      14.531 -13.136  27.632  0.00  0.00    +0.000 C 
ATOM     15  S   UNL     1      16.832 -11.272  29.041  0.00  0.00    +0.000 S 
ATOM     16  C   UNL     1      17.799  -9.832  28.916  0.00  0.00    +0.000 A 
ATOM     17  C   UNL     1      18.836  -9.383  29.901  0.00  0.00    +0.000 C 
ENDBRANCH   7  10
BRANCH   1  18
ATOM     18  O   UNL     1      22.306  -8.688  25.287  0.00  0.00    +0.000 OA
BRANCH  18  20
ATOM     19  C   UNL     1      23.336  -8.556  23.110  0.00  0.00    +0.000 C 
ATOM     20  C   UNL     1      23.336  -8.081  24.523  0.00  0.00    +0.000 C 
ENDBRANCH  18  20
ENDBRANCH   1  18
TORSDOF 3
ENDMDL
MODEL 7
REMARK VINA RESULT:      -5.6     21.100     22.683
REMARK  Name = 
REMARK  3 active torsions:
REMARK  status: ('A' for Active; 'I' for Inactive)
REMARK    1  A    between atoms: C_2  and  O_3
REMARK    2  A    between atoms: O_3  and  C_4
REMARK    3  A    between atoms: C_10  and  C_11
REMARK                            x       y       z     vdW  Elec       q    Type
REMARK                         _______ _______ _______ _____ _____    ______ ____
ROOT
ATOM      1  C   UNL     1      33.764  -1.229  33.923  0.00  0.00    +0.000 A 
ATOM      2  C   UNL     1      34.528  -1.093  35.063  0.00  0.00    +0.000 A 
ATOM      3  C   UNL     1      35.028  -2.185  35.747  0.00  0.00    +0.000 A 
ATOM      4  C   UNL     1      34.741  -3.444  35.257  0.00  0.00    +0.000 A 
ATOM      5  N   UNL     1      35.011  -4.677  35.725  0.00  0.00    +0.000 NA
ATOM      6  C   UNL     1      34.454  -5.583  34.934  0.00  0.00    +0.000 A 
ATOM      7  C   UNL     1      33.776  -4.946  33.873  0.00  0.00    +0.000 A 
ATOM      8  C   UNL     1      33.977  -3.628  34.108  0.00  0.00    +0.000 A 
ATOM      9  C   UNL     1      33.524  -2.511  33.491  0.00  0.00    +0.000 A 
ENDROOT
BRANCH   7  10
ATOM     10  C   UNL     1      33.107  -5.635  32.749  0.00  0.00    +0.000 A 
ATOM     11  N   UNL     1      31.816  -5.956  32.861  0.00  0.00    +0.000 NA
ATOM     12  C   UNL     1      31.201  -6.583  31.895  0.00  0.00    +0.000 A 
ATOM     13  N   UNL     1      29.811  -6.933  31.900  0.00  0.00    +0.000 NA
ATOM     14  C   UNL     1      29.243  -7.579  30.742  0.00  0.00    +0.000 C 
ATOM     15  S   UNL     1      32.423  -6.779  30.727  0.00  0.00    +0.000 S 
ATOM     16  C   UNL     1      33.720  -6.004  31.589  0.00  0.00    +0.000 A 
ATOM     17  C   UNL     1      35.131  -5.855  31.102  0.00  0.00    +0.000 C 
ENDBRANCH   7  10
BRANCH   1  18
ATOM     18  O   UNL     1      33.269  -0.078  33.271  0.00  0.00    +0.000 OA
BRANCH  18  20
ATOM     19  C   UNL     1      33.940   2.170  32.711  0.00  0.00    +0.000 C 
ATOM     20  C   UNL     1      34.178   0.711  32.521  0.00  0.00    +0.000 C 
ENDBRANCH  18  20
ENDBRANCH   1  18
TORSDOF 3
ENDMDL
MODEL 8
REMARK VINA RESULT:      -5.6     18.472     20.049
REMARK  Name = 
REMARK  3 active torsions:
REMARK  status: ('A' for Active; 'I' for Inactive)
REMARK    1  A    between atoms: C_2  and  O_3
REMARK    2  A    between atoms: O_3  and  C_4
REMARK    3  A    between atoms: C_10  and  C_11
REMARK                            x       y       z     vdW  Elec       q    Type
REMARK                         _______ _______ _______ _____ _____    ______ ____
ROOT
ATOM      1  C   UNL     1      29.587  24.991  23.607  0.00  0.00    +0.000 A 
ATOM      2  C   UNL     1      29.396  24.515  22.326  0.00  0.00    +0.000 A 
ATOM      3  C   UNL     1      28.232  23.873  21.948  0.00  0.00    +0.000 A 
ATOM      4  C   UNL     1      27.242  23.712  22.897  0.00  0.00    +0.000 A 
ATOM      5  N   UNL     1      26.055  23.080  22.863  0.00  0.00    +0.000 NA
ATOM      6  C   UNL     1      25.488  23.135  24.060  0.00  0.00    +0.000 A 
ATOM      7  C   UNL     1      26.320  23.841  24.955  0.00  0.00    +0.000 A 
ATOM      8  C   UNL     1      27.391  24.180  24.200  0.00  0.00    +0.000 A 
ATOM      9  C   UNL     1      28.557  24.801  24.495  0.00  0.00    +0.000 A 
ENDROOT
BRANCH   7  10
ATOM     10  C   UNL     1      25.982  24.174  26.356  0.00  0.00    +0.000 A 
ATOM     11  N   UNL     1      25.043  25.091  26.596  0.00  0.00    +0.000 NA
ATOM     12  C   UNL     1      24.735  25.422  27.821  0.00  0.00    +0.000 A 
ATOM     13  N   UNL     1      23.714  26.360  28.184  0.00  0.00    +0.000 NA
ATOM     14  C   UNL     1      23.439  26.597  29.580  0.00  0.00    +0.000 C 
ATOM     15  S   UNL     1      25.775  24.450  28.753  0.00  0.00    +0.000 S 
ATOM     16  C   UNL     1      26.585  23.629  27.450  0.00  0.00    +0.000 A 
ATOM     17  C   UNL     1      27.679  22.614  27.599  0.00  0.00    +0.000 C 
ENDBRANCH   7  10
BRANCH   1  18
ATOM     18  O   UNL     1      30.802  25.629  23.941  0.00  0.00    +0.000 OA
BRANCH  18  20
ATOM     19  C   UNL     1      32.127  23.724  24.598  0.00  0.00    +0.000 C 
ATOM     20  C   UNL     1      31.595  25.064  24.973  0.00  0.00    +0.000 C 
ENDBRANCH  18  20
ENDBRANCH   1  18
TORSDOF 3
ENDMDL
MODEL 9
REMARK VINA RESULT:      -5.6     29.727     32.205
REMARK  Name = 
REMARK  3 active torsions:
REMARK  status: ('A' for Active; 'I' for Inactive)
REMARK    1  A    between atoms: C_2  and  O_3
REMARK    2  A    between atoms: O_3  and  C_4
REMARK    3  A    between atoms: C_10  and  C_11
REMARK                            x       y       z     vdW  Elec       q    Type
REMARK                         _______ _______ _______ _____ _____    ______ ____
ROOT
ATOM      1  C   UNL     1      35.095  23.713   9.551  0.00  0.00    +0.000 A 
ATOM      2  C   UNL     1      36.249  22.986   9.763  0.00  0.00    +0.000 A 
ATOM      3  C   UNL     1      36.251  21.808  10.487  0.00  0.00    +0.000 A 
ATOM      4  C   UNL     1      35.051  21.363  11.005  0.00  0.00    +0.000 A 
ATOM      5  N   UNL     1      34.743  20.320  11.798  0.00  0.00    +0.000 NA
ATOM      6  C   UNL     1      33.452  20.354  12.094  0.00  0.00    +0.000 A 
ATOM      7  C   UNL     1      32.844  21.466  11.474  0.00  0.00    +0.000 A 
ATOM      8  C   UNL     1      33.863  22.063  10.813  0.00  0.00    +0.000 A 
ATOM      9  C   UNL     1      33.939  23.206  10.091  0.00  0.00    +0.000 A 
ENDROOT
BRANCH   7  10
ATOM     10  C   UNL     1      31.400  21.782  11.510  0.00  0.00    +0.000 A 
ATOM     11  N   UNL     1      30.880  22.315  12.617  0.00  0.00    +0.000 NA
ATOM     12  C   UNL     1      29.605  22.588  12.688  0.00  0.00    +0.000 A 
ATOM     13  N   UNL     1      28.959  23.199  13.812  0.00  0.00    +0.000 NA
ATOM     14  C   UNL     1      27.549  23.495  13.739  0.00  0.00    +0.000 C 
ATOM     15  S   UNL     1      29.023  22.096  11.166  0.00  0.00    +0.000 S 
ATOM     16  C   UNL     1      30.527  21.543  10.490  0.00  0.00    +0.000 A 
ATOM     17  C   UNL     1      30.709  20.942   9.128  0.00  0.00    +0.000 C 
ENDBRANCH   7  10
BRANCH   1  18
ATOM     18  O   UNL     1      35.153  24.916   8.813  0.00  0.00    +0.000 OA
BRANCH  18  20
ATOM     19  C   UNL     1      34.735  24.251   6.533  0.00  0.00    +0.000 C 
ATOM     20  C   UNL     1      34.287  25.063   7.700  0.00  0.00    +0.000 C 
ENDBRANCH  18  20
ENDBRANCH   1  18
TORSDOF 3
ENDMDL
MODEL 10
REMARK VINA RESULT:      -5.6      4.798      6.895
REMARK  Name = 
REMARK  3 active torsions:
REMARK  status: ('A' for Active; 'I' for Inactive)
REMARK    1  A    between atoms: C_2  and  O_3
REMARK    2  A    between atoms: O_3  and  C_4
REMARK    3  A    between atoms: C_10  and  C_11
REMARK                            x       y       z     vdW  Elec       q    Type
REMARK                         _______ _______ _______ _____ _____    ______ ____
ROOT
ATOM      1  C   UNL     1      18.770   5.442  40.580  0.00  0.00    +0.000 A 
ATOM      2  C   UNL     1      18.105   5.023  41.713  0.00  0.00    +0.000 A 
ATOM      3  C   UNL     1      17.239   5.851  42.404  0.00  0.00    +0.000 A 
ATOM      4  C   UNL     1      17.048   7.133  41.928  0.00  0.00    +0.000 A 
ATOM      5  N   UNL     1      16.347   8.177  42.406  0.00  0.00    +0.000 NA
ATOM      6  C   UNL     1      16.536   9.232  41.627  0.00  0.00    +0.000 A 
ATOM      7  C   UNL     1      17.403   8.898  40.565  0.00  0.00    +0.000 A 
ATOM      8  C   UNL     1      17.696   7.596  40.786  0.00  0.00    +0.000 A 
ATOM      9  C   UNL     1      18.527   6.728  40.162  0.00  0.00    +0.000 A 
ENDROOT
BRANCH   7  10
ATOM     10  C   UNL     1      17.778   9.797  39.451  0.00  0.00    +0.000 A 
ATOM     11  N   UNL     1      16.922   9.973  38.443  0.00  0.00    +0.000 NA
ATOM     12  C   UNL     1      17.231  10.744  37.436  0.00  0.00    +0.000 A 
ATOM     13  N   UNL     1      16.367  11.033  36.330  0.00  0.00    +0.000 NA
ATOM     14  C   UNL     1      16.813  11.946  35.306  0.00  0.00    +0.000 C 
ATOM     15  S   UNL     1      18.792  11.289  37.837  0.00  0.00    +0.000 S 
ATOM     16  C   UNL     1      18.967  10.456  39.353  0.00  0.00    +0.000 A 
ATOM     17  C   UNL     1      20.175  10.494  40.241  0.00  0.00    +0.000 C 
ENDBRANCH   7  10
BRANCH   1  18
ATOM     18  O   UNL     1      19.653   4.558  39.920  0.00  0.00    +0.000 OA
BRANCH  18  20
ATOM     19  C   UNL     1      20.322   2.297  40.426  0.00  0.00    +0.000 C 
ATOM     20  C   UNL     1      20.506   3.748  40.712  0.00  0.00    +0.000 C 
ENDBRANCH  18  20
ENDBRANCH   1  18
TORSDOF 3
ENDMDL
