MODEL 1
REMARK VINA RESULT:      -7.6      0.000      0.000
REMARK  Name = 
REMARK  8 active torsions:
REMARK  status: ('A' for Active; 'I' for Inactive)
REMARK    1  A    between atoms: O_2  and  C_3
REMARK    2  A    between atoms: C_8  and  O_9
REMARK    3  A    between atoms: O_9  and  C_10
REMARK    4  A    between atoms: C_10  and  C_11
REMARK    5  A    between atoms: C_11  and  N_12
REMARK    6  A    between atoms: C_13  and  S_14
REMARK    7  A    between atoms: S_14  and  C_15
REMARK    8  A    between atoms: C_15  and  C_16
REMARK                            x       y       z     vdW  Elec       q    Type
REMARK                         _______ _______ _______ _____ _____    ______ ____
ROOT
ATOM      1  N   UNL     1      38.211   3.770  15.448  0.00  0.00    +0.000 N 
ATOM      2  C   UNL     1      37.206   3.248  16.154  0.00  0.00    +0.000 A 
ATOM      3  N   UNL     1      37.330   3.759  17.417  0.00  0.00    +0.000 NA
ATOM      4  C   UNL     1      38.388   4.568  17.447  0.00  0.00    +0.000 A 
ATOM      5  C   UNL     1      38.974   5.340  18.443  0.00  0.00    +0.000 A 
ATOM      6  C   UNL     1      40.090   6.087  18.160  0.00  0.00    +0.000 A 
ATOM      7  C   UNL     1      40.660   6.104  16.915  0.00  0.00    +0.000 A 
ATOM      8  C   UNL     1      40.102   5.354  15.920  0.00  0.00    +0.000 A 
ATOM      9  C   UNL     1      38.963   4.587  16.199  0.00  0.00    +0.000 A 
ENDROOT
BRANCH   1  10
ATOM     10  C   UNL     1      38.554   3.503  14.052  0.00  0.00    +0.000 C 
BRANCH  10  11
ATOM     11  C   UNL     1      39.630   2.415  14.085  0.00  0.00    +0.000 C 
BRANCH  11  12
ATOM     12  O   UNL     1      39.210   1.288  14.829  0.00  0.00    +0.000 OA
BRANCH  12  18
ATOM     13  C   UNL     1      38.539  -0.559  13.486  0.00  0.00    +0.000 A 
ATOM     14  C   UNL     1      38.758  -1.812  12.949  0.00  0.00    +0.000 A 
ATOM     15  C   UNL     1      39.951  -2.447  13.275  0.00  0.00    +0.000 A 
ATOM     16  C   UNL     1      40.880  -1.870  14.092  0.00  0.00    +0.000 A 
ATOM     17  C   UNL     1      40.667  -0.633  14.624  0.00  0.00    +0.000 A 
ATOM     18  C   UNL     1      39.480   0.035  14.318  0.00  0.00    +0.000 A 
BRANCH  13  20
ATOM     19  C   UNL     1      37.070   0.536  11.871  0.00  0.00    +0.000 C 
ATOM     20  O   UNL     1      37.354   0.138  13.197  0.00  0.00    +0.000 OA
ENDBRANCH  13  20
ENDBRANCH  12  18
ENDBRANCH  11  12
ENDBRANCH  10  11
ENDBRANCH   1  10
BRANCH   2  21
ATOM     21  S   UNL     1      35.899   2.152  15.630  0.00  0.00    +0.000 S 
BRANCH  21  22
ATOM     22  C   UNL     1      35.112   1.389  17.048  0.00  0.00    +0.000 C 
BRANCH  22  23
ATOM     23  C   UNL     1      35.942   0.284  17.546  0.00  0.00    +0.000 A 
ATOM     24  N   UNL     1      36.216  -0.253  18.726  0.00  0.00    +0.000 NA
ATOM     25  C   UNL     1      37.073  -1.284  18.621  0.00  0.00    +0.000 A 
ATOM     26  C   UNL     1      37.681  -2.176  19.481  0.00  0.00    +0.000 A 
ATOM     27  C   UNL     1      38.550  -3.169  19.073  0.00  0.00    +0.000 A 
ATOM     28  C   UNL     1      38.828  -3.275  17.720  0.00  0.00    +0.000 A 
ATOM     29  C   UNL     1      38.237  -2.399  16.822  0.00  0.00    +0.000 A 
ATOM     30  C   UNL     1      37.367  -1.413  17.273  0.00  0.00    +0.000 A 
ATOM     31  N   UNL     1      36.681  -0.468  16.662  0.00  0.00    +0.000 NA
ENDBRANCH  22  23
ENDBRANCH  21  22
ENDBRANCH   2  21
TORSDOF 8
ENDMDL
MODEL 2
REMARK VINA RESULT:      -7.4      1.769      6.019
REMARK  Name = 
REMARK  8 active torsions:
REMARK  status: ('A' for Active; 'I' for Inactive)
REMARK    1  A    between atoms: O_2  and  C_3
REMARK    2  A    between atoms: C_8  and  O_9
REMARK    3  A    between atoms: O_9  and  C_10
REMARK    4  A    between atoms: C_10  and  C_11
REMARK    5  A    between atoms: C_11  and  N_12
REMARK    6  A    between atoms: C_13  and  S_14
REMARK    7  A    between atoms: S_14  and  C_15
REMARK    8  A    between atoms: C_15  and  C_16
REMARK                            x       y       z     vdW  Elec       q    Type
REMARK                         _______ _______ _______ _____ _____    ______ ____
ROOT
ATOM      1  N   UNL     1      36.265   1.366  15.424  0.00  0.00    +0.000 N 
ATOM      2  C   UNL     1      36.946   2.415  15.887  0.00  0.00    +0.000 A 
ATOM      3  N   UNL     1      36.948   2.290  17.250  0.00  0.00    +0.000 NA
ATOM      4  C   UNL     1      36.281   1.184  17.577  0.00  0.00    +0.000 A 
ATOM      5  C   UNL     1      35.974   0.575  18.788  0.00  0.00    +0.000 A 
ATOM      6  C   UNL     1      35.249  -0.591  18.801  0.00  0.00    +0.000 A 
ATOM      7  C   UNL     1      34.809  -1.189  17.650  0.00  0.00    +0.000 A 
ATOM      8  C   UNL     1      35.099  -0.609  16.449  0.00  0.00    +0.000 A 
ATOM      9  C   UNL     1      35.837   0.581  16.424  0.00  0.00    +0.000 A 
ENDROOT
BRANCH   1  10
ATOM     10  C   UNL     1      35.934   1.059  14.033  0.00  0.00    +0.000 C 
BRANCH  10  11
ATOM     11  C   UNL     1      37.172   0.373  13.450  0.00  0.00    +0.000 C 
BRANCH  11  12
ATOM     12  O   UNL     1      37.319  -0.946  13.941  0.00  0.00    +0.000 OA
BRANCH  12  18
ATOM     13  C   UNL     1      39.320  -1.644  15.023  0.00  0.00    +0.000 A 
ATOM     14  C   UNL     1      40.573  -2.224  15.000  0.00  0.00    +0.000 A 
ATOM     15  C   UNL     1      41.039  -2.690  13.776  0.00  0.00    +0.000 A 
ATOM     16  C   UNL     1      40.301  -2.587  12.633  0.00  0.00    +0.000 A 
ATOM     17  C   UNL     1      39.064  -2.014  12.651  0.00  0.00    +0.000 A 
ATOM     18  C   UNL     1      38.563  -1.535  13.863  0.00  0.00    +0.000 A 
BRANCH  13  20
ATOM     19  C   UNL     1      38.460  -2.042  17.274  0.00  0.00    +0.000 C 
ATOM     20  O   UNL     1      38.789  -1.151  16.226  0.00  0.00    +0.000 OA
ENDBRANCH  13  20
ENDBRANCH  12  18
ENDBRANCH  11  12
ENDBRANCH  10  11
ENDBRANCH   1  10
BRANCH   2  21
ATOM     21  S   UNL     1      37.764   3.724  14.991  0.00  0.00    +0.000 S 
BRANCH  21  22
ATOM     22  C   UNL     1      37.530   5.295  15.819  0.00  0.00    +0.000 C 
BRANCH  22  23
ATOM     23  C   UNL     1      38.728   5.633  16.599  0.00  0.00    +0.000 A 
ATOM     24  N   UNL     1      40.003   5.880  16.340  0.00  0.00    +0.000 NA
ATOM     25  C   UNL     1      40.701   6.143  17.458  0.00  0.00    +0.000 A 
ATOM     26  C   UNL     1      42.008   6.454  17.776  0.00  0.00    +0.000 A 
ATOM     27  C   UNL     1      42.455   6.680  19.064  0.00  0.00    +0.000 A 
ATOM     28  C   UNL     1      41.536   6.588  20.097  0.00  0.00    +0.000 A 
ATOM     29  C   UNL     1      40.213   6.278  19.820  0.00  0.00    +0.000 A 
ATOM     30  C   UNL     1      39.804   6.057  18.509  0.00  0.00    +0.000 A 
ATOM     31  N   UNL     1      38.641   5.753  17.967  0.00  0.00    +0.000 NA
ENDBRANCH  22  23
ENDBRANCH  21  22
ENDBRANCH   2  21
TORSDOF 8
ENDMDL
MODEL 3
REMARK VINA RESULT:      -7.4      2.059      6.123
REMARK  Name = 
REMARK  8 active torsions:
REMARK  status: ('A' for Active; 'I' for Inactive)
REMARK    1  A    between atoms: O_2  and  C_3
REMARK    2  A    between atoms: C_8  and  O_9
REMARK    3  A    between atoms: O_9  and  C_10
REMARK    4  A    between atoms: C_10  and  C_11
REMARK    5  A    between atoms: C_11  and  N_12
REMARK    6  A    between atoms: C_13  and  S_14
REMARK    7  A    between atoms: S_14  and  C_15
REMARK    8  A    between atoms: C_15  and  C_16
REMARK                            x       y       z     vdW  Elec       q    Type
REMARK                         _______ _______ _______ _____ _____    ______ ____
ROOT
ATOM      1  N   UNL     1      36.424   1.665  15.245  0.00  0.00    +0.000 N 
ATOM      2  C   UNL     1      36.819   2.764  15.888  0.00  0.00    +0.000 A 
ATOM      3  N   UNL     1      36.632   2.508  17.219  0.00  0.00    +0.000 NA
ATOM      4  C   UNL     1      36.138   1.278  17.351  0.00  0.00    +0.000 A 
ATOM      5  C   UNL     1      35.765   0.509  18.447  0.00  0.00    +0.000 A 
ATOM      6  C   UNL     1      35.275  -0.759  18.256  0.00  0.00    +0.000 A 
ATOM      7  C   UNL     1      35.138  -1.308  17.009  0.00  0.00    +0.000 A 
ATOM      8  C   UNL     1      35.499  -0.572  15.917  0.00  0.00    +0.000 A 
ATOM      9  C   UNL     1      35.999   0.724  16.101  0.00  0.00    +0.000 A 
ENDROOT
BRANCH   1  10
ATOM     10  C   UNL     1      36.378   1.443  13.800  0.00  0.00    +0.000 C 
BRANCH  10  11
ATOM     11  C   UNL     1      37.773   0.952  13.406  0.00  0.00    +0.000 C 
BRANCH  11  12
ATOM     12  O   UNL     1      37.778  -0.433  13.120  0.00  0.00    +0.000 OA
BRANCH  12  18
ATOM     13  C   UNL     1      39.637  -1.901  12.894  0.00  0.00    +0.000 A 
ATOM     14  C   UNL     1      40.626  -2.699  13.436  0.00  0.00    +0.000 A 
ATOM     15  C   UNL     1      40.691  -2.785  14.822  0.00  0.00    +0.000 A 
ATOM     16  C   UNL     1      39.820  -2.115  15.630  0.00  0.00    +0.000 A 
ATOM     17  C   UNL     1      38.843  -1.326  15.100  0.00  0.00    +0.000 A 
ATOM     18  C   UNL     1      38.747  -1.216  13.712  0.00  0.00    +0.000 A 
BRANCH  13  20
ATOM     19  C   UNL     1      40.209  -2.653  10.642  0.00  0.00    +0.000 C 
ATOM     20  O   UNL     1      39.516  -1.770  11.501  0.00  0.00    +0.000 OA
ENDBRANCH  13  20
ENDBRANCH  12  18
ENDBRANCH  11  12
ENDBRANCH  10  11
ENDBRANCH   1  10
BRANCH   2  21
ATOM     21  S   UNL     1      37.511   4.275  15.236  0.00  0.00    +0.000 S 
BRANCH  21  22
ATOM     22  C   UNL     1      39.168   4.532  15.868  0.00  0.00    +0.000 C 
BRANCH  22  23
ATOM     23  C   UNL     1      39.122   5.400  17.052  0.00  0.00    +0.000 A 
ATOM     24  N   UNL     1      39.824   5.540  18.167  0.00  0.00    +0.000 NA
ATOM     25  C   UNL     1      39.339   6.522  18.947  0.00  0.00    +0.000 A 
ATOM     26  C   UNL     1      39.655   7.084  20.167  0.00  0.00    +0.000 A 
ATOM     27  C   UNL     1      38.949   8.123  20.743  0.00  0.00    +0.000 A 
ATOM     28  C   UNL     1      37.858   8.629  20.054  0.00  0.00    +0.000 A 
ATOM     29  C   UNL     1      37.507   8.093  18.824  0.00  0.00    +0.000 A 
ATOM     30  C   UNL     1      38.244   7.047  18.279  0.00  0.00    +0.000 A 
ATOM     31  N   UNL     1      38.141   6.361  17.158  0.00  0.00    +0.000 NA
ENDBRANCH  22  23
ENDBRANCH  21  22
ENDBRANCH   2  21
TORSDOF 8
ENDMDL
MODEL 4
REMARK VINA RESULT:      -7.4      2.058      6.151
REMARK  Name = 
REMARK  8 active torsions:
REMARK  status: ('A' for Active; 'I' for Inactive)
REMARK    1  A    between atoms: O_2  and  C_3
REMARK    2  A    between atoms: C_8  and  O_9
REMARK    3  A    between atoms: O_9  and  C_10
REMARK    4  A    between atoms: C_10  and  C_11
REMARK    5  A    between atoms: C_11  and  N_12
REMARK    6  A    between atoms: C_13  and  S_14
REMARK    7  A    between atoms: S_14  and  C_15
REMARK    8  A    between atoms: C_15  and  C_16
REMARK                            x       y       z     vdW  Elec       q    Type
REMARK                         _______ _______ _______ _____ _____    ______ ____
ROOT
ATOM      1  N   UNL     1      36.683   0.658  14.988  0.00  0.00    +0.000 N 
ATOM      2  C   UNL     1      37.243   1.817  15.336  0.00  0.00    +0.000 A 
ATOM      3  N   UNL     1      36.984   1.973  16.671  0.00  0.00    +0.000 NA
ATOM      4  C   UNL     1      36.287   0.920  17.096  0.00  0.00    +0.000 A 
ATOM      5  C   UNL     1      35.764   0.554  18.330  0.00  0.00    +0.000 A 
ATOM      6  C   UNL     1      35.073  -0.625  18.455  0.00  0.00    +0.000 A 
ATOM      7  C   UNL     1      34.874  -1.470  17.396  0.00  0.00    +0.000 A 
ATOM      8  C   UNL     1      35.379  -1.132  16.174  0.00  0.00    +0.000 A 
ATOM      9  C   UNL     1      36.086   0.070  16.035  0.00  0.00    +0.000 A 
ENDROOT
BRANCH   1  10
ATOM     10  C   UNL     1      36.633   0.054  13.657  0.00  0.00    +0.000 C 
BRANCH  10  11
ATOM     11  C   UNL     1      37.917  -0.767  13.520  0.00  0.00    +0.000 C 
BRANCH  11  12
ATOM     12  O   UNL     1      37.652  -2.157  13.532  0.00  0.00    +0.000 OA
BRANCH  12  18
ATOM     13  C   UNL     1      37.053  -3.837  15.107  0.00  0.00    +0.000 A 
ATOM     14  C   UNL     1      37.301  -4.575  16.248  0.00  0.00    +0.000 A 
ATOM     15  C   UNL     1      38.476  -4.305  16.941  0.00  0.00    +0.000 A 
ATOM     16  C   UNL     1      39.359  -3.353  16.524  0.00  0.00    +0.000 A 
ATOM     17  C   UNL     1      39.118  -2.622  15.399  0.00  0.00    +0.000 A 
ATOM     18  C   UNL     1      37.948  -2.866  14.678  0.00  0.00    +0.000 A 
BRANCH  13  20
ATOM     19  C   UNL     1      34.868  -4.901  14.866  0.00  0.00    +0.000 C 
ATOM     20  O   UNL     1      35.885  -4.059  14.360  0.00  0.00    +0.000 OA
ENDBRANCH  13  20
ENDBRANCH  12  18
ENDBRANCH  11  12
ENDBRANCH  10  11
ENDBRANCH   1  10
BRANCH   2  21
ATOM     21  S   UNL     1      38.194   2.961  14.350  0.00  0.00    +0.000 S 
BRANCH  21  22
ATOM     22  C   UNL     1      37.798   4.652  14.792  0.00  0.00    +0.000 C 
BRANCH  22  23
ATOM     23  C   UNL     1      38.755   5.146  15.790  0.00  0.00    +0.000 A 
ATOM     24  N   UNL     1      40.001   5.596  15.784  0.00  0.00    +0.000 NA
ATOM     25  C   UNL     1      40.421   5.927  17.017  0.00  0.00    +0.000 A 
ATOM     26  C   UNL     1      41.577   6.426  17.584  0.00  0.00    +0.000 A 
ATOM     27  C   UNL     1      41.727   6.677  18.934  0.00  0.00    +0.000 A 
ATOM     28  C   UNL     1      40.654   6.409  19.769  0.00  0.00    +0.000 A 
ATOM     29  C   UNL     1      39.474   5.907  19.239  0.00  0.00    +0.000 A 
ATOM     30  C   UNL     1      39.364   5.669  17.874  0.00  0.00    +0.000 A 
ATOM     31  N   UNL     1      38.390   5.206  17.116  0.00  0.00    +0.000 NA
ENDBRANCH  22  23
ENDBRANCH  21  22
ENDBRANCH   2  21
TORSDOF 8
ENDMDL
MODEL 5
REMARK VINA RESULT:      -7.2      2.111      6.186
REMARK  Name = 
REMARK  8 active torsions:
REMARK  status: ('A' for Active; 'I' for Inactive)
REMARK    1  A    between atoms: O_2  and  C_3
REMARK    2  A    between atoms: C_8  and  O_9
REMARK    3  A    between atoms: O_9  and  C_10
REMARK    4  A    between atoms: C_10  and  C_11
REMARK    5  A    between atoms: C_11  and  N_12
REMARK    6  A    between atoms: C_13  and  S_14
REMARK    7  A    between atoms: S_14  and  C_15
REMARK    8  A    between atoms: C_15  and  C_16
REMARK                            x       y       z     vdW  Elec       q    Type
REMARK                         _______ _______ _______ _____ _____    ______ ____
ROOT
ATOM      1  N   UNL     1      38.479   0.034  14.352  0.00  0.00    +0.000 N 
ATOM      2  C   UNL     1      38.611   1.312  13.996  0.00  0.00    +0.000 A 
ATOM      3  N   UNL     1      39.952   1.514  13.815  0.00  0.00    +0.000 NA
ATOM      4  C   UNL     1      40.592   0.371  14.059  0.00  0.00    +0.000 A 
ATOM      5  C   UNL     1      41.931  -0.001  14.030  0.00  0.00    +0.000 A 
ATOM      6  C   UNL     1      42.288  -1.289  14.342  0.00  0.00    +0.000 A 
ATOM      7  C   UNL     1      41.363  -2.240  14.684  0.00  0.00    +0.000 A 
ATOM      8  C   UNL     1      40.042  -1.898  14.719  0.00  0.00    +0.000 A 
ATOM      9  C   UNL     1      39.667  -0.585  14.403  0.00  0.00    +0.000 A 
ENDROOT
BRANCH   1  10
ATOM     10  C   UNL     1      37.248  -0.671  14.709  0.00  0.00    +0.000 C 
BRANCH  10  11
ATOM     11  C   UNL     1      37.037  -0.417  16.204  0.00  0.00    +0.000 C 
BRANCH  11  12
ATOM     12  O   UNL     1      36.272  -1.443  16.805  0.00  0.00    +0.000 OA
BRANCH  12  18
ATOM     13  C   UNL     1      36.154  -3.779  16.368  0.00  0.00    +0.000 A 
ATOM     14  C   UNL     1      36.673  -5.057  16.447  0.00  0.00    +0.000 A 
ATOM     15  C   UNL     1      37.898  -5.210  17.088  0.00  0.00    +0.000 A 
ATOM     16  C   UNL     1      38.573  -4.152  17.623  0.00  0.00    +0.000 A 
ATOM     17  C   UNL     1      38.063  -2.890  17.547  0.00  0.00    +0.000 A 
ATOM     18  C   UNL     1      36.836  -2.698  16.911  0.00  0.00    +0.000 A 
BRANCH  13  20
ATOM     19  C   UNL     1      34.589  -4.261  14.556  0.00  0.00    +0.000 C 
ATOM     20  O   UNL     1      34.921  -3.554  15.734  0.00  0.00    +0.000 OA
ENDBRANCH  13  20
ENDBRANCH  12  18
ENDBRANCH  11  12
ENDBRANCH  10  11
ENDBRANCH   1  10
BRANCH   2  21
ATOM     21  S   UNL     1      37.357   2.554  13.732  0.00  0.00    +0.000 S 
BRANCH  21  22
ATOM     22  C   UNL     1      36.791   3.218  15.298  0.00  0.00    +0.000 C 
BRANCH  22  23
ATOM     23  C   UNL     1      37.851   4.029  15.910  0.00  0.00    +0.000 A 
ATOM     24  N   UNL     1      38.914   4.697  15.485  0.00  0.00    +0.000 NA
ATOM     25  C   UNL     1      39.573   5.287  16.497  0.00  0.00    +0.000 A 
ATOM     26  C   UNL     1      40.698   6.074  16.640  0.00  0.00    +0.000 A 
ATOM     27  C   UNL     1      41.156   6.552  17.852  0.00  0.00    +0.000 A 
ATOM     28  C   UNL     1      40.443   6.221  18.993  0.00  0.00    +0.000 A 
ATOM     29  C   UNL     1      39.306   5.433  18.894  0.00  0.00    +0.000 A 
ATOM     30  C   UNL     1      38.879   4.971  17.654  0.00  0.00    +0.000 A 
ATOM     31  N   UNL     1      37.862   4.224  17.272  0.00  0.00    +0.000 NA
ENDBRANCH  22  23
ENDBRANCH  21  22
ENDBRANCH   2  21
TORSDOF 8
ENDMDL
MODEL 6
REMARK VINA RESULT:      -7.1      1.906      6.086
REMARK  Name = 
REMARK  8 active torsions:
REMARK  status: ('A' for Active; 'I' for Inactive)
REMARK    1  A    between atoms: O_2  and  C_3
REMARK    2  A    between atoms: C_8  and  O_9
REMARK    3  A    between atoms: O_9  and  C_10
REMARK    4  A    between atoms: C_10  and  C_11
REMARK    5  A    between atoms: C_11  and  N_12
REMARK    6  A    between atoms: C_13  and  S_14
REMARK    7  A    between atoms: S_14  and  C_15
REMARK    8  A    between atoms: C_15  and  C_16
REMARK                            x       y       z     vdW  Elec       q    Type
REMARK                         _______ _______ _______ _____ _____    ______ ____
ROOT
ATOM      1  N   UNL     1      38.393  -0.080  13.837  0.00  0.00    +0.000 N 
ATOM      2  C   UNL     1      38.615   1.209  13.580  0.00  0.00    +0.000 A 
ATOM      3  N   UNL     1      39.969   1.382  13.671  0.00  0.00    +0.000 NA
ATOM      4  C   UNL     1      40.529   0.212  13.973  0.00  0.00    +0.000 A 
ATOM      5  C   UNL     1      41.841  -0.195  14.183  0.00  0.00    +0.000 A 
ATOM      6  C   UNL     1      42.109  -1.506  14.489  0.00  0.00    +0.000 A 
ATOM      7  C   UNL     1      41.118  -2.446  14.597  0.00  0.00    +0.000 A 
ATOM      8  C   UNL     1      39.822  -2.070  14.395  0.00  0.00    +0.000 A 
ATOM      9  C   UNL     1      39.538  -0.734  14.083  0.00  0.00    +0.000 A 
ENDROOT
BRANCH   1  10
ATOM     10  C   UNL     1      37.104  -0.767  13.913  0.00  0.00    +0.000 C 
BRANCH  10  11
ATOM     11  C   UNL     1      36.497  -0.370  15.261  0.00  0.00    +0.000 C 
BRANCH  11  12
ATOM     12  O   UNL     1      35.988  -1.492  15.956  0.00  0.00    +0.000 OA
BRANCH  12  18
ATOM     13  C   UNL     1      37.441  -1.789  17.816  0.00  0.00    +0.000 A 
ATOM     14  C   UNL     1      38.338  -2.543  18.547  0.00  0.00    +0.000 A 
ATOM     15  C   UNL     1      38.649  -3.810  18.067  0.00  0.00    +0.000 A 
ATOM     16  C   UNL     1      38.099  -4.304  16.920  0.00  0.00    +0.000 A 
ATOM     17  C   UNL     1      37.213  -3.563  16.196  0.00  0.00    +0.000 A 
ATOM     18  C   UNL     1      36.878  -2.286  16.648  0.00  0.00    +0.000 A 
BRANCH  13  20
ATOM     19  C   UNL     1      36.043  -0.329  19.188  0.00  0.00    +0.000 C 
ATOM     20  O   UNL     1      37.084  -0.500  18.246  0.00  0.00    +0.000 OA
ENDBRANCH  13  20
ENDBRANCH  12  18
ENDBRANCH  11  12
ENDBRANCH  10  11
ENDBRANCH   1  10
BRANCH   2  21
ATOM     21  S   UNL     1      37.458   2.497  13.146  0.00  0.00    +0.000 S 
BRANCH  21  22
ATOM     22  C   UNL     1      36.487   2.977  14.574  0.00  0.00    +0.000 C 
BRANCH  22  23
ATOM     23  C   UNL     1      37.343   3.659  15.554  0.00  0.00    +0.000 A 
ATOM     24  N   UNL     1      37.412   3.742  16.874  0.00  0.00    +0.000 NA
ATOM     25  C   UNL     1      38.422   4.533  17.276  0.00  0.00    +0.000 A 
ATOM     26  C   UNL     1      38.942   4.963  18.480  0.00  0.00    +0.000 A 
ATOM     27  C   UNL     1      40.030   5.808  18.591  0.00  0.00    +0.000 A 
ATOM     28  C   UNL     1      40.633   6.249  17.424  0.00  0.00    +0.000 A 
ATOM     29  C   UNL     1      40.142   5.839  16.194  0.00  0.00    +0.000 A 
ATOM     30  C   UNL     1      39.044   4.988  16.125  0.00  0.00    +0.000 A 
ATOM     31  N   UNL     1      38.381   4.452  15.120  0.00  0.00    +0.000 NA
ENDBRANCH  22  23
ENDBRANCH  21  22
ENDBRANCH   2  21
TORSDOF 8
ENDMDL
MODEL 7
REMARK VINA RESULT:      -7.1      1.506      5.642
REMARK  Name = 
REMARK  8 active torsions:
REMARK  status: ('A' for Active; 'I' for Inactive)
REMARK    1  A    between atoms: O_2  and  C_3
REMARK    2  A    between atoms: C_8  and  O_9
REMARK    3  A    between atoms: O_9  and  C_10
REMARK    4  A    between atoms: C_10  and  C_11
REMARK    5  A    between atoms: C_11  and  N_12
REMARK    6  A    between atoms: C_13  and  S_14
REMARK    7  A    between atoms: S_14  and  C_15
REMARK    8  A    between atoms: C_15  and  C_16
REMARK                            x       y       z     vdW  Elec       q    Type
REMARK                         _______ _______ _______ _____ _____    ______ ____
ROOT
ATOM      1  N   UNL     1      37.283  -0.307  15.312  0.00  0.00    +0.000 N 
ATOM      2  C   UNL     1      36.551   0.420  16.157  0.00  0.00    +0.000 A 
ATOM      3  N   UNL     1      36.724  -0.150  17.389  0.00  0.00    +0.000 NA
ATOM      4  C   UNL     1      37.547  -1.190  17.266  0.00  0.00    +0.000 A 
ATOM      5  C   UNL     1      38.063  -2.114  18.167  0.00  0.00    +0.000 A 
ATOM      6  C   UNL     1      38.910  -3.099  17.725  0.00  0.00    +0.000 A 
ATOM      7  C   UNL     1      39.274  -3.211  16.409  0.00  0.00    +0.000 A 
ATOM      8  C   UNL     1      38.780  -2.315  15.506  0.00  0.00    +0.000 A 
ATOM      9  C   UNL     1      37.914  -1.306  15.947  0.00  0.00    +0.000 A 
ENDROOT
BRANCH   1  10
ATOM     10  C   UNL     1      37.402  -0.143  13.864  0.00  0.00    +0.000 C 
BRANCH  10  11
ATOM     11  C   UNL     1      38.660   0.700  13.640  0.00  0.00    +0.000 C 
BRANCH  11  12
ATOM     12  O   UNL     1      39.464   0.173  12.602  0.00  0.00    +0.000 OA
BRANCH  12  18
ATOM     13  C   UNL     1      40.851  -1.715  12.186  0.00  0.00    +0.000 A 
ATOM     14  C   UNL     1      41.933  -2.517  12.492  0.00  0.00    +0.000 A 
ATOM     15  C   UNL     1      42.708  -2.153  13.587  0.00  0.00    +0.000 A 
ATOM     16  C   UNL     1      42.425  -1.052  14.341  0.00  0.00    +0.000 A 
ATOM     17  C   UNL     1      41.358  -0.259  14.043  0.00  0.00    +0.000 A 
ATOM     18  C   UNL     1      40.557  -0.593  12.949  0.00  0.00    +0.000 A 
BRANCH  13  20
ATOM     19  C   UNL     1      40.499  -2.873  10.065  0.00  0.00    +0.000 C 
ATOM     20  O   UNL     1      40.026  -2.025  11.092  0.00  0.00    +0.000 OA
ENDBRANCH  13  20
ENDBRANCH  12  18
ENDBRANCH  11  12
ENDBRANCH  10  11
ENDBRANCH   1  10
BRANCH   2  21
ATOM     21  S   UNL     1      35.566   1.875  15.845  0.00  0.00    +0.000 S 
BRANCH  21  22
ATOM     22  C   UNL     1      36.510   3.087  14.922  0.00  0.00    +0.000 C 
BRANCH  22  23
ATOM     23  C   UNL     1      37.431   3.793  15.821  0.00  0.00    +0.000 A 
ATOM     24  N   UNL     1      37.548   3.971  17.129  0.00  0.00    +0.000 NA
ATOM     25  C   UNL     1      38.610   4.734  17.440  0.00  0.00    +0.000 A 
ATOM     26  C   UNL     1      39.191   5.225  18.591  0.00  0.00    +0.000 A 
ATOM     27  C   UNL     1      40.324   6.016  18.606  0.00  0.00    +0.000 A 
ATOM     28  C   UNL     1      40.910   6.336  17.392  0.00  0.00    +0.000 A 
ATOM     29  C   UNL     1      40.357   5.862  16.211  0.00  0.00    +0.000 A 
ATOM     30  C   UNL     1      39.216   5.068  16.240  0.00  0.00    +0.000 A 
ATOM     31  N   UNL     1      38.493   4.495  15.298  0.00  0.00    +0.000 NA
ENDBRANCH  22  23
ENDBRANCH  21  22
ENDBRANCH   2  21
TORSDOF 8
ENDMDL
MODEL 8
REMARK VINA RESULT:      -7.0      1.202      1.987
REMARK  Name = 
REMARK  8 active torsions:
REMARK  status: ('A' for Active; 'I' for Inactive)
REMARK    1  A    between atoms: O_2  and  C_3
REMARK    2  A    between atoms: C_8  and  O_9
REMARK    3  A    between atoms: O_9  and  C_10
REMARK    4  A    between atoms: C_10  and  C_11
REMARK    5  A    between atoms: C_11  and  N_12
REMARK    6  A    between atoms: C_13  and  S_14
REMARK    7  A    between atoms: S_14  and  C_15
REMARK    8  A    between atoms: C_15  and  C_16
REMARK                            x       y       z     vdW  Elec       q    Type
REMARK                         _______ _______ _______ _____ _____    ______ ____
ROOT
ATOM      1  N   UNL     1      37.286   3.824  15.166  0.00  0.00    +0.000 N 
ATOM      2  C   UNL     1      36.560   3.064  15.987  0.00  0.00    +0.000 A 
ATOM      3  N   UNL     1      37.058   3.286  17.242  0.00  0.00    +0.000 NA
ATOM      4  C   UNL     1      38.058   4.163  17.154  0.00  0.00    +0.000 A 
ATOM      5  C   UNL     1      38.907   4.741  18.090  0.00  0.00    +0.000 A 
ATOM      6  C   UNL     1      39.866   5.634  17.681  0.00  0.00    +0.000 A 
ATOM      7  C   UNL     1      40.021   5.986  16.366  0.00  0.00    +0.000 A 
ATOM      8  C   UNL     1      39.198   5.431  15.429  0.00  0.00    +0.000 A 
ATOM      9  C   UNL     1      38.217   4.517  15.836  0.00  0.00    +0.000 A 
ENDROOT
BRANCH   1  10
ATOM     10  C   UNL     1      37.185   3.913  13.709  0.00  0.00    +0.000 C 
BRANCH  10  11
ATOM     11  C   UNL     1      37.641   2.553  13.173  0.00  0.00    +0.000 C 
BRANCH  11  12
ATOM     12  O   UNL     1      38.372   1.828  14.143  0.00  0.00    +0.000 OA
BRANCH  12  18
ATOM     13  C   UNL     1      39.748  -0.112  14.077  0.00  0.00    +0.000 A 
ATOM     14  C   UNL     1      39.918  -1.474  13.925  0.00  0.00    +0.000 A 
ATOM     15  C   UNL     1      38.783  -2.237  13.677  0.00  0.00    +0.000 A 
ATOM     16  C   UNL     1      37.541  -1.679  13.585  0.00  0.00    +0.000 A 
ATOM     17  C   UNL     1      37.369  -0.335  13.734  0.00  0.00    +0.000 A 
ATOM     18  C   UNL     1      38.487   0.463  13.984  0.00  0.00    +0.000 A 
BRANCH  13  20
ATOM     19  C   UNL     1      42.148   0.313  13.930  0.00  0.00    +0.000 C 
ATOM     20  O   UNL     1      40.853   0.717  14.329  0.00  0.00    +0.000 OA
ENDBRANCH  13  20
ENDBRANCH  12  18
ENDBRANCH  11  12
ENDBRANCH  10  11
ENDBRANCH   1  10
BRANCH   2  21
ATOM     21  S   UNL     1      35.177   1.996  15.622  0.00  0.00    +0.000 S 
BRANCH  21  22
ATOM     22  C   UNL     1      34.760   0.998  17.051  0.00  0.00    +0.000 C 
BRANCH  22  23
ATOM     23  C   UNL     1      35.473  -0.284  16.990  0.00  0.00    +0.000 A 
ATOM     24  N   UNL     1      35.170  -1.538  16.686  0.00  0.00    +0.000 NA
ATOM     25  C   UNL     1      36.233  -2.353  16.799  0.00  0.00    +0.000 A 
ATOM     26  C   UNL     1      36.491  -3.697  16.618  0.00  0.00    +0.000 A 
ATOM     27  C   UNL     1      37.729  -4.277  16.817  0.00  0.00    +0.000 A 
ATOM     28  C   UNL     1      38.773  -3.461  17.223  0.00  0.00    +0.000 A 
ATOM     29  C   UNL     1      38.555  -2.105  17.416  0.00  0.00    +0.000 A 
ATOM     30  C   UNL     1      37.294  -1.560  17.205  0.00  0.00    +0.000 A 
ATOM     31  N   UNL     1      36.811  -0.338  17.309  0.00  0.00    +0.000 NA
ENDBRANCH  22  23
ENDBRANCH  21  22
ENDBRANCH   2  21
TORSDOF 8
ENDMDL
MODEL 9
REMARK VINA RESULT:      -6.9      3.446      5.302
REMARK  Name = 
REMARK  8 active torsions:
REMARK  status: ('A' for Active; 'I' for Inactive)
REMARK    1  A    between atoms: O_2  and  C_3
REMARK    2  A    between atoms: C_8  and  O_9
REMARK    3  A    between atoms: O_9  and  C_10
REMARK    4  A    between atoms: C_10  and  C_11
REMARK    5  A    between atoms: C_11  and  N_12
REMARK    6  A    between atoms: C_13  and  S_14
REMARK    7  A    between atoms: S_14  and  C_15
REMARK    8  A    between atoms: C_15  and  C_16
REMARK                            x       y       z     vdW  Elec       q    Type
REMARK                         _______ _______ _______ _____ _____    ______ ____
ROOT
ATOM      1  N   UNL     1      37.439   3.814  15.583  0.00  0.00    +0.000 N 
ATOM      2  C   UNL     1      36.749   3.115  16.486  0.00  0.00    +0.000 A 
ATOM      3  N   UNL     1      37.266   3.465  17.704  0.00  0.00    +0.000 NA
ATOM      4  C   UNL     1      38.239   4.355  17.515  0.00  0.00    +0.000 A 
ATOM      5  C   UNL     1      39.090   5.040  18.375  0.00  0.00    +0.000 A 
ATOM      6  C   UNL     1      40.015   5.915  17.865  0.00  0.00    +0.000 A 
ATOM      7  C   UNL     1      40.136   6.147  16.520  0.00  0.00    +0.000 A 
ATOM      8  C   UNL     1      39.311   5.487  15.657  0.00  0.00    +0.000 A 
ATOM      9  C   UNL     1      38.363   4.590  16.167  0.00  0.00    +0.000 A 
ENDROOT
BRANCH   1  10
ATOM     10  C   UNL     1      37.308   3.765  14.127  0.00  0.00    +0.000 C 
BRANCH  10  11
ATOM     11  C   UNL     1      35.942   4.379  13.808  0.00  0.00    +0.000 C 
BRANCH  11  12
ATOM     12  O   UNL     1      36.041   5.764  13.544  0.00  0.00    +0.000 OA
BRANCH  12  18
ATOM     13  C   UNL     1      34.145   6.850  12.601  0.00  0.00    +0.000 A 
ATOM     14  C   UNL     1      33.453   7.364  11.522  0.00  0.00    +0.000 A 
ATOM     15  C   UNL     1      34.054   7.268  10.272  0.00  0.00    +0.000 A 
ATOM     16  C   UNL     1      35.279   6.692  10.100  0.00  0.00    +0.000 A 
ATOM     17  C   UNL     1      35.965   6.184  11.163  0.00  0.00    +0.000 A 
ATOM     18  C   UNL     1      35.392   6.263  12.433  0.00  0.00    +0.000 A 
BRANCH  13  20
ATOM     19  C   UNL     1      33.729   8.092  14.663  0.00  0.00    +0.000 C 
ATOM     20  O   UNL     1      33.595   6.915  13.892  0.00  0.00    +0.000 OA
ENDBRANCH  13  20
ENDBRANCH  12  18
ENDBRANCH  11  12
ENDBRANCH  10  11
ENDBRANCH   1  10
BRANCH   2  21
ATOM     21  S   UNL     1      35.389   1.984  16.251  0.00  0.00    +0.000 S 
BRANCH  21  22
ATOM     22  C   UNL     1      35.708   0.434  17.094  0.00  0.00    +0.000 C 
BRANCH  22  23
ATOM     23  C   UNL     1      36.897  -0.211  16.521  0.00  0.00    +0.000 A 
ATOM     24  N   UNL     1      37.778   0.071  15.572  0.00  0.00    +0.000 NA
ATOM     25  C   UNL     1      38.703  -0.895  15.444  0.00  0.00    +0.000 A 
ATOM     26  C   UNL     1      39.810  -1.126  14.653  0.00  0.00    +0.000 A 
ATOM     27  C   UNL     1      40.603  -2.254  14.747  0.00  0.00    +0.000 A 
ATOM     28  C   UNL     1      40.266  -3.209  15.692  0.00  0.00    +0.000 A 
ATOM     29  C   UNL     1      39.161  -3.015  16.508  0.00  0.00    +0.000 A 
ATOM     30  C   UNL     1      38.388  -1.866  16.380  0.00  0.00    +0.000 A 
ATOM     31  N   UNL     1      37.311  -1.431  17.004  0.00  0.00    +0.000 NA
ENDBRANCH  22  23
ENDBRANCH  21  22
ENDBRANCH   2  21
TORSDOF 8
ENDMDL
MODEL 10
REMARK VINA RESULT:      -6.9      2.613      3.134
REMARK  Name = 
REMARK  8 active torsions:
REMARK  status: ('A' for Active; 'I' for Inactive)
REMARK    1  A    between atoms: O_2  and  C_3
REMARK    2  A    between atoms: C_8  and  O_9
REMARK    3  A    between atoms: O_9  and  C_10
REMARK    4  A    between atoms: C_10  and  C_11
REMARK    5  A    between atoms: C_11  and  N_12
REMARK    6  A    between atoms: C_13  and  S_14
REMARK    7  A    between atoms: S_14  and  C_15
REMARK    8  A    between atoms: C_15  and  C_16
REMARK                            x       y       z     vdW  Elec       q    Type
REMARK                         _______ _______ _______ _____ _____    ______ ____
ROOT
ATOM      1  N   UNL     1      36.432   2.129  14.997  0.00  0.00    +0.000 N 
ATOM      2  C   UNL     1      35.347   2.138  15.773  0.00  0.00    +0.000 A 
ATOM      3  N   UNL     1      34.671   3.285  15.459  0.00  0.00    +0.000 NA
ATOM      4  C   UNL     1      35.349   3.935  14.514  0.00  0.00    +0.000 A 
ATOM      5  C   UNL     1      35.137   5.127  13.833  0.00  0.00    +0.000 A 
ATOM      6  C   UNL     1      36.042   5.544  12.889  0.00  0.00    +0.000 A 
ATOM      7  C   UNL     1      37.164   4.820  12.584  0.00  0.00    +0.000 A 
ATOM      8  C   UNL     1      37.393   3.645  13.240  0.00  0.00    +0.000 A 
ATOM      9  C   UNL     1      36.476   3.211  14.206  0.00  0.00    +0.000 A 
ENDROOT
BRANCH   1  10
ATOM     10  C   UNL     1      37.509   1.140  14.979  0.00  0.00    +0.000 C 
BRANCH  10  11
ATOM     11  C   UNL     1      37.016  -0.000  14.084  0.00  0.00    +0.000 C 
BRANCH  11  12
ATOM     12  O   UNL     1      38.014  -0.418  13.173  0.00  0.00    +0.000 OA
BRANCH  12  18
ATOM     13  C   UNL     1      40.383  -0.449  13.392  0.00  0.00    +0.000 A 
ATOM     14  C   UNL     1      41.550  -1.008  13.875  0.00  0.00    +0.000 A 
ATOM     15  C   UNL     1      41.435  -2.153  14.655  0.00  0.00    +0.000 A 
ATOM     16  C   UNL     1      40.226  -2.715  14.942  0.00  0.00    +0.000 A 
ATOM     17  C   UNL     1      39.072  -2.166  14.468  0.00  0.00    +0.000 A 
ATOM     18  C   UNL     1      39.149  -1.016  13.681  0.00  0.00    +0.000 A 
BRANCH  13  20
ATOM     19  C   UNL     1      41.215   0.733  11.424  0.00  0.00    +0.000 C 
ATOM     20  O   UNL     1      40.428   0.708  12.598  0.00  0.00    +0.000 OA
ENDBRANCH  13  20
ENDBRANCH  12  18
ENDBRANCH  11  12
ENDBRANCH  10  11
ENDBRANCH   1  10
BRANCH   2  21
ATOM     21  S   UNL     1      34.787   0.925  16.956  0.00  0.00    +0.000 S 
BRANCH  21  22
ATOM     22  C   UNL     1      36.035   0.648  18.212  0.00  0.00    +0.000 C 
BRANCH  22  23
ATOM     23  C   UNL     1      36.622  -0.688  18.047  0.00  0.00    +0.000 A 
ATOM     24  N   UNL     1      37.689  -1.330  18.500  0.00  0.00    +0.000 NA
ATOM     25  C   UNL     1      37.763  -2.583  18.019  0.00  0.00    +0.000 A 
ATOM     26  C   UNL     1      38.620  -3.658  18.145  0.00  0.00    +0.000 A 
ATOM     27  C   UNL     1      38.437  -4.869  17.506  0.00  0.00    +0.000 A 
ATOM     28  C   UNL     1      37.326  -5.012  16.689  0.00  0.00    +0.000 A 
ATOM     29  C   UNL     1      36.440  -3.956  16.536  0.00  0.00    +0.000 A 
ATOM     30  C   UNL     1      36.661  -2.753  17.197  0.00  0.00    +0.000 A 
ATOM     31  N   UNL     1      36.004  -1.611  17.234  0.00  0.00    +0.000 NA
ENDBRANCH  22  23
ENDBRANCH  21  22
ENDBRANCH   2  21
TORSDOF 8
ENDMDL
