MODEL 1
REMARK VINA RESULT:      -6.6      0.000      0.000
REMARK  Name = 
REMARK  3 active torsions:
REMARK  status: ('A' for Active; 'I' for Inactive)
REMARK    1  A    between atoms: C_2  and  C_14
REMARK    2  A    between atoms: N_3  and  C_4
REMARK    3  A    between atoms: C_17  and  N_18
REMARK                            x       y       z     vdW  Elec       q    Type
REMARK                         _______ _______ _______ _____ _____    ______ ____
ROOT
ATOM      1  O   UNL     1      19.102   9.189  38.043  0.00  0.00    +0.000 OA
ATOM      2  C   UNL     1      17.937   9.637  37.901  0.00  0.00    +0.000 C 
ATOM      3  N   UNL     1      17.120   9.679  39.049  0.00  0.00    +0.000 NA
ENDROOT
BRANCH   3   4
ATOM      4  C   UNL     1      17.602   9.225  40.337  0.00  0.00    +0.000 C 
ATOM      5  C   UNL     1      17.835   7.717  40.334  0.00  0.00    +0.000 C 
ATOM      6  C   UNL     1      18.281   7.346  41.737  0.00  0.00    +0.000 C 
ATOM      7  C   UNL     1      19.537   8.133  42.087  0.00  0.00    +0.000 C 
ATOM      8  C   UNL     1      19.266   9.615  42.094  0.00  0.00    +0.000 C 
ATOM      9  C   UNL     1      18.142   9.949  43.061  0.00  0.00    +0.000 C 
ATOM     10  C   UNL     1      16.894   9.134  42.744  0.00  0.00    +0.000 C 
ATOM     11  C   UNL     1      17.196   7.651  42.752  0.00  0.00    +0.000 C 
ATOM     12  C   UNL     1      16.482   9.502  41.339  0.00  0.00    +0.000 C 
ATOM     13  C   UNL     1      18.852   9.989  40.672  0.00  0.00    +0.000 C 
ENDBRANCH   3   4
BRANCH   2  14
ATOM     14  C   UNL     1      17.415  10.102  36.629  0.00  0.00    +0.000 A 
ATOM     15  C   UNL     1      16.402  11.032  36.531  0.00  0.00    +0.000 A 
ATOM     16  C   UNL     1      15.935  11.447  35.278  0.00  0.00    +0.000 A 
ATOM     17  C   UNL     1      16.486  10.926  34.132  0.00  0.00    +0.000 A 
ATOM     18  C   UNL     1      17.496   9.998  34.208  0.00  0.00    +0.000 A 
ATOM     19  C   UNL     1      17.935   9.609  35.455  0.00  0.00    +0.000 A 
BRANCH  17  20
ATOM     20  N   UNL     1      16.010  11.349  32.876  0.00  0.00    +0.000 N 
ATOM     21  O   UNL     1      16.402  10.824  31.827  0.00  0.00    +0.000 OA
ATOM     22  O   UNL     1      15.079  12.375  32.787  0.00  0.00    +0.000 OA
ENDBRANCH  17  20
ENDBRANCH   2  14
TORSDOF 3
ENDMDL
MODEL 2
REMARK VINA RESULT:      -6.5     18.438     20.011
REMARK  Name = 
REMARK  3 active torsions:
REMARK  status: ('A' for Active; 'I' for Inactive)
REMARK    1  A    between atoms: C_2  and  C_14
REMARK    2  A    between atoms: N_3  and  C_4
REMARK    3  A    between atoms: C_17  and  N_18
REMARK                            x       y       z     vdW  Elec       q    Type
REMARK                         _______ _______ _______ _____ _____    ______ ____
ROOT
ATOM      1  O   UNL     1      31.987  -0.192  34.551  0.00  0.00    +0.000 OA
ATOM      2  C   UNL     1      33.158   0.216  34.755  0.00  0.00    +0.000 C 
ATOM      3  N   UNL     1      34.151  -0.762  34.967  0.00  0.00    +0.000 NA
ENDROOT
BRANCH   3   4
ATOM      4  C   UNL     1      33.836  -2.175  34.950  0.00  0.00    +0.000 C 
ATOM      5  C   UNL     1      32.662  -2.485  35.875  0.00  0.00    +0.000 C 
ATOM      6  C   UNL     1      32.458  -3.989  35.823  0.00  0.00    +0.000 C 
ATOM      7  C   UNL     1      32.196  -4.408  34.382  0.00  0.00    +0.000 C 
ATOM      8  C   UNL     1      33.380  -4.100  33.503  0.00  0.00    +0.000 C 
ATOM      9  C   UNL     1      34.633  -4.776  34.036  0.00  0.00    +0.000 C 
ATOM     10  C   UNL     1      34.878  -4.395  35.490  0.00  0.00    +0.000 C 
ATOM     11  C   UNL     1      33.676  -4.723  36.349  0.00  0.00    +0.000 C 
ATOM     12  C   UNL     1      35.057  -2.895  35.520  0.00  0.00    +0.000 C 
ATOM     13  C   UNL     1      33.561  -2.583  33.530  0.00  0.00    +0.000 C 
ENDBRANCH   3   4
BRANCH   2  14
ATOM     14  C   UNL     1      33.515   1.623  34.779  0.00  0.00    +0.000 A 
ATOM     15  C   UNL     1      33.456   2.428  33.662  0.00  0.00    +0.000 A 
ATOM     16  C   UNL     1      33.812   3.780  33.739  0.00  0.00    +0.000 A 
ATOM     17  C   UNL     1      34.225   4.315  34.936  0.00  0.00    +0.000 A 
ATOM     18  C   UNL     1      34.291   3.529  36.061  0.00  0.00    +0.000 A 
ATOM     19  C   UNL     1      33.935   2.202  35.954  0.00  0.00    +0.000 A 
BRANCH  17  20
ATOM     20  N   UNL     1      34.581   5.676  35.005  0.00  0.00    +0.000 N 
ATOM     21  O   UNL     1      33.767   6.541  35.349  0.00  0.00    +0.000 OA
ATOM     22  O   UNL     1      35.870   6.081  34.685  0.00  0.00    +0.000 OA
ENDBRANCH  17  20
ENDBRANCH   2  14
TORSDOF 3
ENDMDL
MODEL 3
REMARK VINA RESULT:      -6.4     18.604     20.098
REMARK  Name = 
REMARK  3 active torsions:
REMARK  status: ('A' for Active; 'I' for Inactive)
REMARK    1  A    between atoms: C_2  and  C_14
REMARK    2  A    between atoms: N_3  and  C_4
REMARK    3  A    between atoms: C_17  and  N_18
REMARK                            x       y       z     vdW  Elec       q    Type
REMARK                         _______ _______ _______ _____ _____    ______ ____
ROOT
ATOM      1  O   UNL     1      33.607  -1.030  36.461  0.00  0.00    +0.000 OA
ATOM      2  C   UNL     1      33.618  -0.480  35.331  0.00  0.00    +0.000 C 
ATOM      3  N   UNL     1      33.553  -1.324  34.204  0.00  0.00    +0.000 NA
ENDROOT
BRANCH   3   4
ATOM      4  C   UNL     1      33.476  -2.764  34.342  0.00  0.00    +0.000 C 
ATOM      5  C   UNL     1      33.528  -3.447  32.978  0.00  0.00    +0.000 C 
ATOM      6  C   UNL     1      33.383  -4.937  33.236  0.00  0.00    +0.000 C 
ATOM      7  C   UNL     1      34.501  -5.393  34.164  0.00  0.00    +0.000 C 
ATOM      8  C   UNL     1      34.410  -4.709  35.503  0.00  0.00    +0.000 C 
ATOM      9  C   UNL     1      33.053  -4.959  36.141  0.00  0.00    +0.000 C 
ATOM     10  C   UNL     1      31.927  -4.544  35.201  0.00  0.00    +0.000 C 
ATOM     11  C   UNL     1      32.042  -5.252  33.868  0.00  0.00    +0.000 C 
ATOM     12  C   UNL     1      32.104  -3.067  34.941  0.00  0.00    +0.000 C 
ATOM     13  C   UNL     1      34.590  -3.215  35.243  0.00  0.00    +0.000 C 
ENDBRANCH   3   4
BRANCH   2  14
ATOM     14  C   UNL     1      33.694   0.959  35.150  0.00  0.00    +0.000 A 
ATOM     15  C   UNL     1      34.003   1.825  36.178  0.00  0.00    +0.000 A 
ATOM     16  C   UNL     1      34.064   3.205  35.951  0.00  0.00    +0.000 A 
ATOM     17  C   UNL     1      33.813   3.707  34.696  0.00  0.00    +0.000 A 
ATOM     18  C   UNL     1      33.502   2.860  33.659  0.00  0.00    +0.000 A 
ATOM     19  C   UNL     1      33.450   1.507  33.913  0.00  0.00    +0.000 A 
BRANCH  17  20
ATOM     20  N   UNL     1      33.875   5.096  34.476  0.00  0.00    +0.000 N 
ATOM     21  O   UNL     1      32.877   5.741  34.130  0.00  0.00    +0.000 OA
ATOM     22  O   UNL     1      35.071   5.782  34.645  0.00  0.00    +0.000 OA
ENDBRANCH  17  20
ENDBRANCH   2  14
TORSDOF 3
ENDMDL
MODEL 4
REMARK VINA RESULT:      -6.4      0.374      2.028
REMARK  Name = 
REMARK  3 active torsions:
REMARK  status: ('A' for Active; 'I' for Inactive)
REMARK    1  A    between atoms: C_2  and  C_14
REMARK    2  A    between atoms: N_3  and  C_4
REMARK    3  A    between atoms: C_17  and  N_18
REMARK                            x       y       z     vdW  Elec       q    Type
REMARK                         _______ _______ _______ _____ _____    ______ ____
ROOT
ATOM      1  O   UNL     1      19.302   9.209  37.901  0.00  0.00    +0.000 OA
ATOM      2  C   UNL     1      18.119   9.608  37.761  0.00  0.00    +0.000 C 
ATOM      3  N   UNL     1      17.306   9.623  38.912  0.00  0.00    +0.000 NA
ENDROOT
BRANCH   3   4
ATOM      4  C   UNL     1      17.811   9.197  40.200  0.00  0.00    +0.000 C 
ATOM      5  C   UNL     1      16.802   9.489  41.308  0.00  0.00    +0.000 C 
ATOM      6  C   UNL     1      17.454   9.057  42.610  0.00  0.00    +0.000 C 
ATOM      7  C   UNL     1      17.816   7.581  42.521  0.00  0.00    +0.000 C 
ATOM      8  C   UNL     1      18.822   7.332  41.428  0.00  0.00    +0.000 C 
ATOM      9  C   UNL     1      20.069   8.174  41.647  0.00  0.00    +0.000 C 
ATOM     10  C   UNL     1      19.710   9.650  41.779  0.00  0.00    +0.000 C 
ATOM     11  C   UNL     1      18.705   9.868  42.888  0.00  0.00    +0.000 C 
ATOM     12  C   UNL     1      19.045  10.051  40.483  0.00  0.00    +0.000 C 
ATOM     13  C   UNL     1      18.150   7.736  40.117  0.00  0.00    +0.000 C 
ENDBRANCH   3   4
BRANCH   2  14
ATOM     14  C   UNL     1      17.575  10.044  36.488  0.00  0.00    +0.000 A 
ATOM     15  C   UNL     1      18.022   9.557  35.278  0.00  0.00    +0.000 A 
ATOM     16  C   UNL     1      17.463  10.011  34.077  0.00  0.00    +0.000 A 
ATOM     17  C   UNL     1      16.460  10.951  34.099  0.00  0.00    +0.000 A 
ATOM     18  C   UNL     1      16.001  11.449  35.294  0.00  0.00    +0.000 A 
ATOM     19  C   UNL     1      16.570  10.983  36.459  0.00  0.00    +0.000 A 
BRANCH  17  20
ATOM     20  N   UNL     1      15.903  11.402  32.886  0.00  0.00    +0.000 N 
ATOM     21  O   UNL     1      15.043  12.292  32.861  0.00  0.00    +0.000 OA
ATOM     22  O   UNL     1      16.312  10.854  31.678  0.00  0.00    +0.000 OA
ENDBRANCH  17  20
ENDBRANCH   2  14
TORSDOF 3
ENDMDL
MODEL 5
REMARK VINA RESULT:      -6.4     22.327     23.573
REMARK  Name = 
REMARK  3 active torsions:
REMARK  status: ('A' for Active; 'I' for Inactive)
REMARK    1  A    between atoms: C_2  and  C_14
REMARK    2  A    between atoms: N_3  and  C_4
REMARK    3  A    between atoms: C_17  and  N_18
REMARK                            x       y       z     vdW  Elec       q    Type
REMARK                         _______ _______ _______ _____ _____    ______ ____
ROOT
ATOM      1  O   UNL     1      25.342   2.531  18.024  0.00  0.00    +0.000 OA
ATOM      2  C   UNL     1      24.416   3.189  17.488  0.00  0.00    +0.000 C 
ATOM      3  N   UNL     1      24.714   4.507  17.085  0.00  0.00    +0.000 NA
ENDROOT
BRANCH   3   4
ATOM      4  C   UNL     1      26.030   5.078  17.281  0.00  0.00    +0.000 C 
ATOM      5  C   UNL     1      26.429   5.042  18.754  0.00  0.00    +0.000 C 
ATOM      6  C   UNL     1      27.788   5.711  18.849  0.00  0.00    +0.000 C 
ATOM      7  C   UNL     1      28.774   4.969  17.956  0.00  0.00    +0.000 C 
ATOM      8  C   UNL     1      28.356   5.037  16.511  0.00  0.00    +0.000 C 
ATOM      9  C   UNL     1      28.215   6.483  16.062  0.00  0.00    +0.000 C 
ATOM     10  C   UNL     1      27.263   7.244  16.976  0.00  0.00    +0.000 C 
ATOM     11  C   UNL     1      27.712   7.163  18.419  0.00  0.00    +0.000 C 
ATOM     12  C   UNL     1      25.925   6.549  16.882  0.00  0.00    +0.000 C 
ATOM     13  C   UNL     1      27.005   4.333  16.414  0.00  0.00    +0.000 C 
ENDBRANCH   3   4
BRANCH   2  14
ATOM     14  C   UNL     1      23.083   2.654  17.273  0.00  0.00    +0.000 A 
ATOM     15  C   UNL     1      21.990   3.056  18.011  0.00  0.00    +0.000 A 
ATOM     16  C   UNL     1      20.725   2.508  17.764  0.00  0.00    +0.000 A 
ATOM     17  C   UNL     1      20.566   1.561  16.780  0.00  0.00    +0.000 A 
ATOM     18  C   UNL     1      21.644   1.147  16.036  0.00  0.00    +0.000 A 
ATOM     19  C   UNL     1      22.876   1.704  16.301  0.00  0.00    +0.000 A 
BRANCH  17  20
ATOM     20  N   UNL     1      19.291   1.015  16.539  0.00  0.00    +0.000 N 
ATOM     21  O   UNL     1      18.290   1.418  17.144  0.00  0.00    +0.000 OA
ATOM     22  O   UNL     1      19.126  -0.000  15.606  0.00  0.00    +0.000 OA
ENDBRANCH  17  20
ENDBRANCH   2  14
TORSDOF 3
ENDMDL
MODEL 6
REMARK VINA RESULT:      -6.3     20.443     21.786
REMARK  Name = 
REMARK  3 active torsions:
REMARK  status: ('A' for Active; 'I' for Inactive)
REMARK    1  A    between atoms: C_2  and  C_14
REMARK    2  A    between atoms: N_3  and  C_4
REMARK    3  A    between atoms: C_17  and  N_18
REMARK                            x       y       z     vdW  Elec       q    Type
REMARK                         _______ _______ _______ _____ _____    ______ ____
ROOT
ATOM      1  O   UNL     1      29.776  22.558  28.776  0.00  0.00    +0.000 OA
ATOM      2  C   UNL     1      30.527  22.789  27.795  0.00  0.00    +0.000 C 
ATOM      3  N   UNL     1      31.911  22.873  28.051  0.00  0.00    +0.000 NA
ENDROOT
BRANCH   3   4
ATOM      4  C   UNL     1      32.444  22.702  29.386  0.00  0.00    +0.000 C 
ATOM      5  C   UNL     1      33.968  22.614  29.359  0.00  0.00    +0.000 C 
ATOM      6  C   UNL     1      34.412  22.380  30.792  0.00  0.00    +0.000 C 
ATOM      7  C   UNL     1      33.904  23.520  31.665  0.00  0.00    +0.000 C 
ATOM      8  C   UNL     1      32.399  23.567  31.678  0.00  0.00    +0.000 C 
ATOM      9  C   UNL     1      31.827  22.240  32.150  0.00  0.00    +0.000 C 
ATOM     10  C   UNL     1      32.362  21.088  31.308  0.00  0.00    +0.000 C 
ATOM     11  C   UNL     1      33.875  21.063  31.320  0.00  0.00    +0.000 C 
ATOM     12  C   UNL     1      31.928  21.354  29.886  0.00  0.00    +0.000 C 
ATOM     13  C   UNL     1      31.958  23.837  30.241  0.00  0.00    +0.000 C 
ENDBRANCH   3   4
BRANCH   2  14
ATOM     14  C   UNL     1      30.032  22.967  26.442  0.00  0.00    +0.000 A 
ATOM     15  C   UNL     1      28.689  22.964  26.131  0.00  0.00    +0.000 A 
ATOM     16  C   UNL     1      28.263  23.140  24.809  0.00  0.00    +0.000 A 
ATOM     17  C   UNL     1      29.188  23.316  23.808  0.00  0.00    +0.000 A 
ATOM     18  C   UNL     1      30.531  23.321  24.096  0.00  0.00    +0.000 A 
ATOM     19  C   UNL     1      30.920  23.145  25.406  0.00  0.00    +0.000 A 
BRANCH  17  20
ATOM     20  N   UNL     1      28.752  23.492  22.480  0.00  0.00    +0.000 N 
ATOM     21  O   UNL     1      27.623  23.137  22.118  0.00  0.00    +0.000 OA
ATOM     22  O   UNL     1      29.588  24.075  21.537  0.00  0.00    +0.000 OA
ENDBRANCH  17  20
ENDBRANCH   2  14
TORSDOF 3
ENDMDL
MODEL 7
REMARK VINA RESULT:      -6.3     20.448     22.000
REMARK  Name = 
REMARK  3 active torsions:
REMARK  status: ('A' for Active; 'I' for Inactive)
REMARK    1  A    between atoms: C_2  and  C_14
REMARK    2  A    between atoms: N_3  and  C_4
REMARK    3  A    between atoms: C_17  and  N_18
REMARK                            x       y       z     vdW  Elec       q    Type
REMARK                         _______ _______ _______ _____ _____    ______ ____
ROOT
ATOM      1  O   UNL     1      29.687  22.423  28.395  0.00  0.00    +0.000 OA
ATOM      2  C   UNL     1      30.479  22.796  27.493  0.00  0.00    +0.000 C 
ATOM      3  N   UNL     1      31.825  22.993  27.861  0.00  0.00    +0.000 NA
ENDROOT
BRANCH   3   4
ATOM      4  C   UNL     1      32.277  22.776  29.220  0.00  0.00    +0.000 C 
ATOM      5  C   UNL     1      31.262  23.310  30.226  0.00  0.00    +0.000 C 
ATOM      6  C   UNL     1      31.859  23.082  31.604  0.00  0.00    +0.000 C 
ATOM      7  C   UNL     1      32.141  21.597  31.787  0.00  0.00    +0.000 C 
ATOM      8  C   UNL     1      33.157  21.110  30.787  0.00  0.00    +0.000 C 
ATOM      9  C   UNL     1      34.443  21.914  30.894  0.00  0.00    +0.000 C 
ATOM     10  C   UNL     1      34.163  23.405  30.754  0.00  0.00    +0.000 C 
ATOM     11  C   UNL     1      33.146  23.866  31.775  0.00  0.00    +0.000 C 
ATOM     12  C   UNL     1      33.550  23.604  29.388  0.00  0.00    +0.000 C 
ATOM     13  C   UNL     1      32.538  21.308  29.404  0.00  0.00    +0.000 C 
ENDBRANCH   3   4
BRANCH   2  14
ATOM     14  C   UNL     1      30.066  23.024  26.120  0.00  0.00    +0.000 A 
ATOM     15  C   UNL     1      30.933  23.468  25.144  0.00  0.00    +0.000 A 
ATOM     16  C   UNL     1      30.484  23.673  23.833  0.00  0.00    +0.000 A 
ATOM     17  C   UNL     1      29.170  23.432  23.512  0.00  0.00    +0.000 A 
ATOM     18  C   UNL     1      28.291  22.990  24.471  0.00  0.00    +0.000 A 
ATOM     19  C   UNL     1      28.761  22.797  25.751  0.00  0.00    +0.000 A 
BRANCH  17  20
ATOM     20  N   UNL     1      28.726  23.641  22.191  0.00  0.00    +0.000 N 
ATOM     21  O   UNL     1      27.584  23.326  21.836  0.00  0.00    +0.000 OA
ATOM     22  O   UNL     1      29.571  24.213  21.249  0.00  0.00    +0.000 OA
ENDBRANCH  17  20
ENDBRANCH   2  14
TORSDOF 3
ENDMDL
MODEL 8
REMARK VINA RESULT:      -6.2     21.404     23.229
REMARK  Name = 
REMARK  3 active torsions:
REMARK  status: ('A' for Active; 'I' for Inactive)
REMARK    1  A    between atoms: C_2  and  C_14
REMARK    2  A    between atoms: N_3  and  C_4
REMARK    3  A    between atoms: C_17  and  N_18
REMARK                            x       y       z     vdW  Elec       q    Type
REMARK                         _______ _______ _______ _____ _____    ______ ____
ROOT
ATOM      1  O   UNL     1      34.390  -5.765  33.830  0.00  0.00    +0.000 OA
ATOM      2  C   UNL     1      33.952  -4.675  33.383  0.00  0.00    +0.000 C 
ATOM      3  N   UNL     1      33.563  -4.645  32.029  0.00  0.00    +0.000 NA
ENDROOT
BRANCH   3   4
ATOM      4  C   UNL     1      33.664  -5.819  31.187  0.00  0.00    +0.000 C 
ATOM      5  C   UNL     1      35.120  -6.234  30.999  0.00  0.00    +0.000 C 
ATOM      6  C   UNL     1      35.110  -7.430  30.063  0.00  0.00    +0.000 C 
ATOM      7  C   UNL     1      34.259  -8.535  30.674  0.00  0.00    +0.000 C 
ATOM      8  C   UNL     1      32.827  -8.094  30.830  0.00  0.00    +0.000 C 
ATOM      9  C   UNL     1      32.252  -7.655  29.493  0.00  0.00    +0.000 C 
ATOM     10  C   UNL     1      33.122  -6.579  28.856  0.00  0.00    +0.000 C 
ATOM     11  C   UNL     1      34.551  -7.053  28.705  0.00  0.00    +0.000 C 
ATOM     12  C   UNL     1      33.135  -5.411  29.813  0.00  0.00    +0.000 C 
ATOM     13  C   UNL     1      32.838  -6.914  31.800  0.00  0.00    +0.000 C 
ENDBRANCH   3   4
BRANCH   2  14
ATOM     14  C   UNL     1      33.835  -3.475  34.193  0.00  0.00    +0.000 A 
ATOM     15  C   UNL     1      34.055  -3.469  35.555  0.00  0.00    +0.000 A 
ATOM     16  C   UNL     1      33.929  -2.285  36.291  0.00  0.00    +0.000 A 
ATOM     17  C   UNL     1      33.584  -1.115  35.656  0.00  0.00    +0.000 A 
ATOM     18  C   UNL     1      33.360  -1.101  34.301  0.00  0.00    +0.000 A 
ATOM     19  C   UNL     1      33.491  -2.282  33.603  0.00  0.00    +0.000 A 
BRANCH  17  20
ATOM     20  N   UNL     1      33.459   0.072  36.404  0.00  0.00    +0.000 N 
ATOM     21  O   UNL     1      33.802   1.166  35.941  0.00  0.00    +0.000 OA
ATOM     22  O   UNL     1      32.941   0.039  37.692  0.00  0.00    +0.000 OA
ENDBRANCH  17  20
ENDBRANCH   2  14
TORSDOF 3
ENDMDL
MODEL 9
REMARK VINA RESULT:      -6.2     20.193     23.300
REMARK  Name = 
REMARK  3 active torsions:
REMARK  status: ('A' for Active; 'I' for Inactive)
REMARK    1  A    between atoms: C_2  and  C_14
REMARK    2  A    between atoms: N_3  and  C_4
REMARK    3  A    between atoms: C_17  and  N_18
REMARK                            x       y       z     vdW  Elec       q    Type
REMARK                         _______ _______ _______ _____ _____    ______ ____
ROOT
ATOM      1  O   UNL     1      28.243  22.416  26.175  0.00  0.00    +0.000 OA
ATOM      2  C   UNL     1      29.286  23.013  26.542  0.00  0.00    +0.000 C 
ATOM      3  N   UNL     1      29.783  24.021  25.691  0.00  0.00    +0.000 NA
ENDROOT
BRANCH   3   4
ATOM      4  C   UNL     1      29.120  24.355  24.448  0.00  0.00    +0.000 C 
ATOM      5  C   UNL     1      29.082  23.153  23.508  0.00  0.00    +0.000 C 
ATOM      6  C   UNL     1      28.422  23.628  22.226  0.00  0.00    +0.000 C 
ATOM      7  C   UNL     1      27.034  24.166  22.548  0.00  0.00    +0.000 C 
ATOM      8  C   UNL     1      27.112  25.358  23.464  0.00  0.00    +0.000 C 
ATOM      9  C   UNL     1      27.977  26.449  22.852  0.00  0.00    +0.000 C 
ATOM     10  C   UNL     1      29.354  25.908  22.488  0.00  0.00    +0.000 C 
ATOM     11  C   UNL     1      29.243  24.716  21.562  0.00  0.00    +0.000 C 
ATOM     12  C   UNL     1      29.981  25.421  23.773  0.00  0.00    +0.000 C 
ATOM     13  C   UNL     1      27.744  24.868  24.765  0.00  0.00    +0.000 C 
ENDBRANCH   3   4
BRANCH   2  14
ATOM     14  C   UNL     1      29.980  22.709  27.780  0.00  0.00    +0.000 A 
ATOM     15  C   UNL     1      29.431  22.948  29.022  0.00  0.00    +0.000 A 
ATOM     16  C   UNL     1      30.142  22.636  30.187  0.00  0.00    +0.000 A 
ATOM     17  C   UNL     1      31.399  22.087  30.098  0.00  0.00    +0.000 A 
ATOM     18  C   UNL     1      31.964  21.842  28.870  0.00  0.00    +0.000 A 
ATOM     19  C   UNL     1      31.240  22.160  27.741  0.00  0.00    +0.000 A 
BRANCH  17  20
ATOM     20  N   UNL     1      32.109  21.777  31.275  0.00  0.00    +0.000 N 
ATOM     21  O   UNL     1      31.570  21.181  32.216  0.00  0.00    +0.000 OA
ATOM     22  O   UNL     1      33.444  22.136  31.406  0.00  0.00    +0.000 OA
ENDBRANCH  17  20
ENDBRANCH   2  14
TORSDOF 3
ENDMDL
MODEL 10
REMARK VINA RESULT:      -6.1     17.482     18.627
REMARK  Name = 
REMARK  3 active torsions:
REMARK  status: ('A' for Active; 'I' for Inactive)
REMARK    1  A    between atoms: C_2  and  C_14
REMARK    2  A    between atoms: N_3  and  C_4
REMARK    3  A    between atoms: C_17  and  N_18
REMARK                            x       y       z     vdW  Elec       q    Type
REMARK                         _______ _______ _______ _____ _____    ______ ____
ROOT
ATOM      1  O   UNL     1      33.829   7.104  37.085  0.00  0.00    +0.000 OA
ATOM      2  C   UNL     1      34.374   6.763  36.005  0.00  0.00    +0.000 C 
ATOM      3  N   UNL     1      35.299   7.664  35.440  0.00  0.00    +0.000 NA
ENDROOT
BRANCH   3   4
ATOM      4  C   UNL     1      35.609   8.928  36.075  0.00  0.00    +0.000 C 
ATOM      5  C   UNL     1      34.336   9.647  36.513  0.00  0.00    +0.000 C 
ATOM      6  C   UNL     1      34.772  10.973  37.110  0.00  0.00    +0.000 C 
ATOM      7  C   UNL     1      35.725  10.710  38.268  0.00  0.00    +0.000 C 
ATOM      8  C   UNL     1      36.975  10.013  37.796  0.00  0.00    +0.000 C 
ATOM      9  C   UNL     1      37.665  10.826  36.713  0.00  0.00    +0.000 C 
ATOM     10  C   UNL     1      36.705  11.130  35.569  0.00  0.00    +0.000 C 
ATOM     11  C   UNL     1      35.464  11.835  36.072  0.00  0.00    +0.000 C 
ATOM     12  C   UNL     1      36.268   9.798  35.006  0.00  0.00    +0.000 C 
ATOM     13  C   UNL     1      36.535   8.665  37.229  0.00  0.00    +0.000 C 
ENDBRANCH   3   4
BRANCH   2  14
ATOM     14  C   UNL     1      34.092   5.506  35.336  0.00  0.00    +0.000 A 
ATOM     15  C   UNL     1      33.345   5.426  34.180  0.00  0.00    +0.000 A 
ATOM     16  C   UNL     1      33.101   4.188  33.574  0.00  0.00    +0.000 A 
ATOM     17  C   UNL     1      33.608   3.039  34.132  0.00  0.00    +0.000 A 
ATOM     18  C   UNL     1      34.354   3.097  35.284  0.00  0.00    +0.000 A 
ATOM     19  C   UNL     1      34.577   4.330  35.857  0.00  0.00    +0.000 A 
BRANCH  17  20
ATOM     20  N   UNL     1      33.358   1.797  33.516  0.00  0.00    +0.000 N 
ATOM     21  O   UNL     1      32.482   1.032  33.937  0.00  0.00    +0.000 OA
ATOM     22  O   UNL     1      34.097   1.400  32.409  0.00  0.00    +0.000 OA
ENDBRANCH  17  20
ENDBRANCH   2  14
TORSDOF 3
ENDMDL
