MODEL 1
REMARK VINA RESULT:      -8.3      0.000      0.000
REMARK  Name = 
REMARK  10 active torsions:
REMARK  status: ('A' for Active; 'I' for Inactive)
REMARK    1  A    between atoms: C_2  and  C_3
REMARK    2  A    between atoms: C_7  and  C_8
REMARK    3  A    between atoms: C_10  and  N_11
REMARK    4  A    between atoms: C_12  and  C_14
REMARK    5  A    between atoms: C_14  and  O_15
REMARK    6  A    between atoms: O_15  and  C_16
REMARK    7  A    between atoms: C_16  and  C_18
REMARK    8  A    between atoms: C_18  and  C_19
REMARK    9  A    between atoms: C_19  and  C_20
REMARK   10  A    between atoms: C_19  and  C_26
REMARK                            x       y       z     vdW  Elec       q    Type
REMARK                         _______ _______ _______ _____ _____    ______ ____
ROOT
ATOM      1  C   UNL     1      38.758   4.590  17.217  0.00  0.00    +0.000 C 
ATOM      2  O   UNL     1      39.407   5.011  16.228  0.00  0.00    +0.000 OA
ENDROOT
BRANCH   1   3
ATOM      3  O   UNL     1      37.700   3.737  16.956  0.00  0.00    +0.000 OA
BRANCH   3   4
ATOM      4  C   UNL     1      37.247   3.545  15.657  0.00  0.00    +0.000 C 
BRANCH   4   6
ATOM      5  N   UNL     1      37.152   1.006  16.016  0.00  0.00    +0.000 NA
ATOM      6  C   UNL     1      36.639   2.195  15.452  0.00  0.00    +0.000 C 
ATOM      7  O   UNL     1      35.611   2.114  14.733  0.00  0.00    +0.000 OA
BRANCH   5  13
ATOM      8  C   UNL     1      35.613  -0.692  16.713  0.00  0.00    +0.000 A 
ATOM      9  C   UNL     1      35.046  -1.927  16.557  0.00  0.00    +0.000 A 
ATOM     10  C   UNL     1      35.432  -2.758  15.524  0.00  0.00    +0.000 A 
ATOM     11  C   UNL     1      36.393  -2.348  14.643  0.00  0.00    +0.000 A 
ATOM     12  C   UNL     1      36.983  -1.106  14.776  0.00  0.00    +0.000 A 
ATOM     13  C   UNL     1      36.580  -0.281  15.824  0.00  0.00    +0.000 A 
BRANCH   8  15
ATOM     14  C   UNL     1      35.678  -0.325  19.166  0.00  0.00    +0.000 C 
ATOM     15  C   UNL     1      35.179   0.170  17.829  0.00  0.00    +0.000 C 
ENDBRANCH   8  15
BRANCH  12  16
ATOM     16  C   UNL     1      38.025  -0.681  13.813  0.00  0.00    +0.000 C 
ATOM     17  C   UNL     1      37.394  -0.108  12.568  0.00  0.00    +0.000 C 
ENDBRANCH  12  16
ENDBRANCH   5  13
ENDBRANCH   4   6
ENDBRANCH   3   4
ENDBRANCH   1   3
BRANCH   1  18
ATOM     18  C   UNL     1      39.099   4.986  18.619  0.00  0.00    +0.000 C 
BRANCH  18  19
ATOM     19  C   UNL     1      39.693   6.349  18.592  0.00  0.00    +0.000 C 
BRANCH  19  20
ATOM     20  C   UNL     1      38.825   7.441  19.021  0.00  0.00    +0.000 A 
ATOM     21  C   UNL     1      38.846   7.969  20.305  0.00  0.00    +0.000 A 
ATOM     22  C   UNL     1      38.002   8.990  20.637  0.00  0.00    +0.000 A 
ATOM     23  C   UNL     1      37.124   9.502  19.698  0.00  0.00    +0.000 A 
ATOM     24  C   UNL     1      37.082   8.997  18.419  0.00  0.00    +0.000 A 
ATOM     25  C   UNL     1      37.938   7.974  18.110  0.00  0.00    +0.000 A 
ENDBRANCH  19  20
BRANCH  19  26
ATOM     26  C   UNL     1      41.092   6.441  19.033  0.00  0.00    +0.000 A 
ATOM     27  C   UNL     1      42.057   6.769  18.101  0.00  0.00    +0.000 A 
ATOM     28  C   UNL     1      43.402   6.885  18.397  0.00  0.00    +0.000 A 
ATOM     29  C   UNL     1      43.784   6.655  19.698  0.00  0.00    +0.000 A 
ATOM     30  C   UNL     1      42.839   6.324  20.652  0.00  0.00    +0.000 A 
ATOM     31  C   UNL     1      41.506   6.217  20.323  0.00  0.00    +0.000 A 
ENDBRANCH  19  26
ENDBRANCH  18  19
ENDBRANCH   1  18
TORSDOF 10
ENDMDL
MODEL 2
REMARK VINA RESULT:      -8.2      0.199      2.316
REMARK  Name = 
REMARK  10 active torsions:
REMARK  status: ('A' for Active; 'I' for Inactive)
REMARK    1  A    between atoms: C_2  and  C_3
REMARK    2  A    between atoms: C_7  and  C_8
REMARK    3  A    between atoms: C_10  and  N_11
REMARK    4  A    between atoms: C_12  and  C_14
REMARK    5  A    between atoms: C_14  and  O_15
REMARK    6  A    between atoms: O_15  and  C_16
REMARK    7  A    between atoms: C_16  and  C_18
REMARK    8  A    between atoms: C_18  and  C_19
REMARK    9  A    between atoms: C_19  and  C_20
REMARK   10  A    between atoms: C_19  and  C_26
REMARK                            x       y       z     vdW  Elec       q    Type
REMARK                         _______ _______ _______ _____ _____    ______ ____
ROOT
ATOM      1  C   UNL     1      38.649   4.567  17.226  0.00  0.00    +0.000 C 
ATOM      2  O   UNL     1      39.248   5.024  16.221  0.00  0.00    +0.000 OA
ENDROOT
BRANCH   1   3
ATOM      3  O   UNL     1      37.663   3.623  16.994  0.00  0.00    +0.000 OA
BRANCH   3   4
ATOM      4  C   UNL     1      37.125   3.457  15.725  0.00  0.00    +0.000 C 
BRANCH   4   6
ATOM      5  N   UNL     1      37.069   0.912  16.056  0.00  0.00    +0.000 NA
ATOM      6  C   UNL     1      36.523   2.103  15.526  0.00  0.00    +0.000 C 
ATOM      7  O   UNL     1      35.468   2.021  14.848  0.00  0.00    +0.000 OA
BRANCH   5  13
ATOM      8  C   UNL     1      36.973  -1.139  14.823  0.00  0.00    +0.000 A 
ATOM      9  C   UNL     1      36.445  -2.384  14.617  0.00  0.00    +0.000 A 
ATOM     10  C   UNL     1      35.457  -2.880  15.443  0.00  0.00    +0.000 A 
ATOM     11  C   UNL     1      34.992  -2.123  16.481  0.00  0.00    +0.000 A 
ATOM     12  C   UNL     1      35.506  -0.862  16.714  0.00  0.00    +0.000 A 
ATOM     13  C   UNL     1      36.504  -0.378  15.870  0.00  0.00    +0.000 A 
BRANCH   8  15
ATOM     14  C   UNL     1      37.479  -0.200  12.583  0.00  0.00    +0.000 C 
ATOM     15  C   UNL     1      38.026  -0.638  13.921  0.00  0.00    +0.000 C 
ENDBRANCH   8  15
BRANCH  12  16
ATOM     16  C   UNL     1      34.988  -0.055  17.842  0.00  0.00    +0.000 C 
ATOM     17  C   UNL     1      35.707  -0.408  19.121  0.00  0.00    +0.000 C 
ENDBRANCH  12  16
ENDBRANCH   5  13
ENDBRANCH   4   6
ENDBRANCH   3   4
ENDBRANCH   1   3
BRANCH   1  18
ATOM     18  C   UNL     1      38.975   5.014  18.616  0.00  0.00    +0.000 C 
BRANCH  18  19
ATOM     19  C   UNL     1      39.614   6.355  18.543  0.00  0.00    +0.000 C 
BRANCH  19  20
ATOM     20  C   UNL     1      38.761   7.495  18.868  0.00  0.00    +0.000 A 
ATOM     21  C   UNL     1      38.633   8.005  20.152  0.00  0.00    +0.000 A 
ATOM     22  C   UNL     1      37.815   9.074  20.383  0.00  0.00    +0.000 A 
ATOM     23  C   UNL     1      37.113   9.652  19.341  0.00  0.00    +0.000 A 
ATOM     24  C   UNL     1      37.221   9.166  18.058  0.00  0.00    +0.000 A 
ATOM     25  C   UNL     1      38.048   8.094  17.852  0.00  0.00    +0.000 A 
ENDBRANCH  19  20
BRANCH  19  26
ATOM     26  C   UNL     1      40.992   6.430  19.044  0.00  0.00    +0.000 A 
ATOM     27  C   UNL     1      41.999   6.766  18.161  0.00  0.00    +0.000 A 
ATOM     28  C   UNL     1      43.330   6.867  18.517  0.00  0.00    +0.000 A 
ATOM     29  C   UNL     1      43.654   6.615  19.829  0.00  0.00    +0.000 A 
ATOM     30  C   UNL     1      42.666   6.275  20.736  0.00  0.00    +0.000 A 
ATOM     31  C   UNL     1      41.348   6.183  20.348  0.00  0.00    +0.000 A 
ENDBRANCH  19  26
ENDBRANCH  18  19
ENDBRANCH   1  18
TORSDOF 10
ENDMDL
MODEL 3
REMARK VINA RESULT:      -8.0      2.542      8.292
REMARK  Name = 
REMARK  10 active torsions:
REMARK  status: ('A' for Active; 'I' for Inactive)
REMARK    1  A    between atoms: C_2  and  C_3
REMARK    2  A    between atoms: C_7  and  C_8
REMARK    3  A    between atoms: C_10  and  N_11
REMARK    4  A    between atoms: C_12  and  C_14
REMARK    5  A    between atoms: C_14  and  O_15
REMARK    6  A    between atoms: O_15  and  C_16
REMARK    7  A    between atoms: C_16  and  C_18
REMARK    8  A    between atoms: C_18  and  C_19
REMARK    9  A    between atoms: C_19  and  C_20
REMARK   10  A    between atoms: C_19  and  C_26
REMARK                            x       y       z     vdW  Elec       q    Type
REMARK                         _______ _______ _______ _____ _____    ______ ____
ROOT
ATOM      1  C   UNL     1      35.298  -0.439  16.649  0.00  0.00    +0.000 C 
ATOM      2  O   UNL     1      34.285  -0.923  17.212  0.00  0.00    +0.000 OA
ENDROOT
BRANCH   1   3
ATOM      3  O   UNL     1      35.716   0.811  17.076  0.00  0.00    +0.000 OA
BRANCH   3   4
ATOM      4  C   UNL     1      35.144   1.965  16.558  0.00  0.00    +0.000 C 
BRANCH   4   6
ATOM      5  N   UNL     1      37.551   2.802  16.252  0.00  0.00    +0.000 NA
ATOM      6  C   UNL     1      36.160   2.927  16.033  0.00  0.00    +0.000 C 
ATOM      7  O   UNL     1      35.753   3.905  15.357  0.00  0.00    +0.000 OA
BRANCH   5  13
ATOM      8  C   UNL     1      38.989   4.682  16.617  0.00  0.00    +0.000 A 
ATOM      9  C   UNL     1      39.923   5.575  16.169  0.00  0.00    +0.000 A 
ATOM     10  C   UNL     1      40.398   5.514  14.874  0.00  0.00    +0.000 A 
ATOM     11  C   UNL     1      39.933   4.552  14.022  0.00  0.00    +0.000 A 
ATOM     12  C   UNL     1      38.991   3.636  14.447  0.00  0.00    +0.000 A 
ATOM     13  C   UNL     1      38.523   3.713  15.757  0.00  0.00    +0.000 A 
BRANCH   8  15
ATOM     14  C   UNL     1      39.354   5.688  18.855  0.00  0.00    +0.000 C 
ATOM     15  C   UNL     1      38.501   4.776  18.005  0.00  0.00    +0.000 C 
ENDBRANCH   8  15
BRANCH  12  16
ATOM     16  C   UNL     1      38.497   2.602  13.508  0.00  0.00    +0.000 C 
ATOM     17  C   UNL     1      38.320   3.181  12.126  0.00  0.00    +0.000 C 
ENDBRANCH  12  16
ENDBRANCH   5  13
ENDBRANCH   4   6
ENDBRANCH   3   4
ENDBRANCH   1   3
BRANCH   1  18
ATOM     18  C   UNL     1      36.029  -1.165  15.565  0.00  0.00    +0.000 C 
BRANCH  18  19
ATOM     19  C   UNL     1      37.476  -1.189  15.907  0.00  0.00    +0.000 C 
BRANCH  19  20
ATOM     20  C   UNL     1      37.894  -2.197  16.877  0.00  0.00    +0.000 A 
ATOM     21  C   UNL     1      38.135  -1.910  18.213  0.00  0.00    +0.000 A 
ATOM     22  C   UNL     1      38.526  -2.903  19.066  0.00  0.00    +0.000 A 
ATOM     23  C   UNL     1      38.683  -4.196  18.602  0.00  0.00    +0.000 A 
ATOM     24  C   UNL     1      38.452  -4.509  17.282  0.00  0.00    +0.000 A 
ATOM     25  C   UNL     1      38.060  -3.495  16.448  0.00  0.00    +0.000 A 
ENDBRANCH  19  20
BRANCH  19  26
ATOM     26  C   UNL     1      38.398  -0.969  14.784  0.00  0.00    +0.000 A 
ATOM     27  C   UNL     1      37.924  -1.137  13.499  0.00  0.00    +0.000 A 
ATOM     28  C   UNL     1      38.695  -0.958  12.366  0.00  0.00    +0.000 A 
ATOM     29  C   UNL     1      40.009  -0.594  12.548  0.00  0.00    +0.000 A 
ATOM     30  C   UNL     1      40.511  -0.420  13.825  0.00  0.00    +0.000 A 
ATOM     31  C   UNL     1      39.714  -0.606  14.933  0.00  0.00    +0.000 A 
ENDBRANCH  19  26
ENDBRANCH  18  19
ENDBRANCH   1  18
TORSDOF 10
ENDMDL
MODEL 4
REMARK VINA RESULT:      -7.9      2.488      5.161
REMARK  Name = 
REMARK  10 active torsions:
REMARK  status: ('A' for Active; 'I' for Inactive)
REMARK    1  A    between atoms: C_2  and  C_3
REMARK    2  A    between atoms: C_7  and  C_8
REMARK    3  A    between atoms: C_10  and  N_11
REMARK    4  A    between atoms: C_12  and  C_14
REMARK    5  A    between atoms: C_14  and  O_15
REMARK    6  A    between atoms: O_15  and  C_16
REMARK    7  A    between atoms: C_16  and  C_18
REMARK    8  A    between atoms: C_18  and  C_19
REMARK    9  A    between atoms: C_19  and  C_20
REMARK   10  A    between atoms: C_19  and  C_26
REMARK                            x       y       z     vdW  Elec       q    Type
REMARK                         _______ _______ _______ _____ _____    ______ ____
ROOT
ATOM      1  C   UNL     1      35.870   3.168  15.256  0.00  0.00    +0.000 C 
ATOM      2  O   UNL     1      35.385   4.138  14.621  0.00  0.00    +0.000 OA
ENDROOT
BRANCH   1   3
ATOM      3  O   UNL     1      35.346   1.916  14.984  0.00  0.00    +0.000 OA
BRANCH   3   4
ATOM      4  C   UNL     1      36.106   0.957  14.327  0.00  0.00    +0.000 C 
BRANCH   4   6
ATOM      5  N   UNL     1      37.539  -0.175  16.130  0.00  0.00    +0.000 NA
ATOM      6  C   UNL     1      36.469  -0.195  15.208  0.00  0.00    +0.000 C 
ATOM      7  O   UNL     1      35.780  -1.243  15.122  0.00  0.00    +0.000 OA
BRANCH   5  13
ATOM      8  C   UNL     1      38.745  -2.218  16.460  0.00  0.00    +0.000 A 
ATOM      9  C   UNL     1      39.099  -3.281  17.243  0.00  0.00    +0.000 A 
ATOM     10  C   UNL     1      38.613  -3.408  18.529  0.00  0.00    +0.000 A 
ATOM     11  C   UNL     1      37.765  -2.462  19.033  0.00  0.00    +0.000 A 
ATOM     12  C   UNL     1      37.390  -1.377  18.266  0.00  0.00    +0.000 A 
ATOM     13  C   UNL     1      37.891  -1.266  16.970  0.00  0.00    +0.000 A 
BRANCH   8  15
ATOM     14  C   UNL     1      40.697  -2.626  14.985  0.00  0.00    +0.000 C 
ATOM     15  C   UNL     1      39.280  -2.114  15.090  0.00  0.00    +0.000 C 
ENDBRANCH   8  15
BRANCH  12  16
ATOM     16  C   UNL     1      36.468  -0.363  18.828  0.00  0.00    +0.000 C 
ATOM     17  C   UNL     1      35.032  -0.756  18.579  0.00  0.00    +0.000 C 
ENDBRANCH  12  16
ENDBRANCH   5  13
ENDBRANCH   4   6
ENDBRANCH   3   4
ENDBRANCH   1   3
BRANCH   1  18
ATOM     18  C   UNL     1      36.961   3.343  16.264  0.00  0.00    +0.000 C 
BRANCH  18  19
ATOM     19  C   UNL     1      38.080   4.085  15.623  0.00  0.00    +0.000 C 
BRANCH  19  20
ATOM     20  C   UNL     1      38.946   4.846  16.518  0.00  0.00    +0.000 A 
ATOM     21  C   UNL     1      40.035   5.583  16.075  0.00  0.00    +0.000 A 
ATOM     22  C   UNL     1      40.804   6.271  16.970  0.00  0.00    +0.000 A 
ATOM     23  C   UNL     1      40.502   6.235  18.319  0.00  0.00    +0.000 A 
ATOM     24  C   UNL     1      39.428   5.512  18.786  0.00  0.00    +0.000 A 
ATOM     25  C   UNL     1      38.673   4.832  17.869  0.00  0.00    +0.000 A 
ENDBRANCH  19  20
BRANCH  19  26
ATOM     26  C   UNL     1      38.760   3.384  14.526  0.00  0.00    +0.000 A 
ATOM     27  C   UNL     1      38.647   3.893  13.248  0.00  0.00    +0.000 A 
ATOM     28  C   UNL     1      39.241   3.322  12.138  0.00  0.00    +0.000 A 
ATOM     29  C   UNL     1      39.983   2.181  12.336  0.00  0.00    +0.000 A 
ATOM     30  C   UNL     1      40.112   1.648  13.606  0.00  0.00    +0.000 A 
ATOM     31  C   UNL     1      39.506   2.243  14.691  0.00  0.00    +0.000 A 
ENDBRANCH  19  26
ENDBRANCH  18  19
ENDBRANCH   1  18
TORSDOF 10
ENDMDL
MODEL 5
REMARK VINA RESULT:      -7.9      0.916      3.564
REMARK  Name = 
REMARK  10 active torsions:
REMARK  status: ('A' for Active; 'I' for Inactive)
REMARK    1  A    between atoms: C_2  and  C_3
REMARK    2  A    between atoms: C_7  and  C_8
REMARK    3  A    between atoms: C_10  and  N_11
REMARK    4  A    between atoms: C_12  and  C_14
REMARK    5  A    between atoms: C_14  and  O_15
REMARK    6  A    between atoms: O_15  and  C_16
REMARK    7  A    between atoms: C_16  and  C_18
REMARK    8  A    between atoms: C_18  and  C_19
REMARK    9  A    between atoms: C_19  and  C_20
REMARK   10  A    between atoms: C_19  and  C_26
REMARK                            x       y       z     vdW  Elec       q    Type
REMARK                         _______ _______ _______ _____ _____    ______ ____
ROOT
ATOM      1  C   UNL     1      38.633   4.607  17.486  0.00  0.00    +0.000 C 
ATOM      2  O   UNL     1      38.419   3.994  18.561  0.00  0.00    +0.000 OA
ENDROOT
BRANCH   1   3
ATOM      3  O   UNL     1      37.819   4.291  16.411  0.00  0.00    +0.000 OA
BRANCH   3   4
ATOM      4  C   UNL     1      38.343   3.675  15.282  0.00  0.00    +0.000 C 
BRANCH   4   6
ATOM      5  N   UNL     1      38.084   1.137  15.564  0.00  0.00    +0.000 NA
ATOM      6  C   UNL     1      37.690   2.364  14.984  0.00  0.00    +0.000 C 
ATOM      7  O   UNL     1      36.733   2.354  14.168  0.00  0.00    +0.000 OA
BRANCH   5  13
ATOM      8  C   UNL     1      36.427  -0.509  16.093  0.00  0.00    +0.000 A 
ATOM      9  C   UNL     1      35.816  -1.709  15.851  0.00  0.00    +0.000 A 
ATOM     10  C   UNL     1      36.231  -2.519  14.813  0.00  0.00    +0.000 A 
ATOM     11  C   UNL     1      37.266  -2.124  14.013  0.00  0.00    +0.000 A 
ATOM     12  C   UNL     1      37.902  -0.917  14.233  0.00  0.00    +0.000 A 
ATOM     13  C   UNL     1      37.469  -0.113  15.285  0.00  0.00    +0.000 A 
BRANCH   8  15
ATOM     14  C   UNL     1      34.739   1.145  16.851  0.00  0.00    +0.000 C 
ATOM     15  C   UNL     1      35.960   0.331  17.211  0.00  0.00    +0.000 C 
ENDBRANCH   8  15
BRANCH  12  16
ATOM     16  C   UNL     1      39.023  -0.508  13.357  0.00  0.00    +0.000 C 
ATOM     17  C   UNL     1      39.109  -1.407  12.148  0.00  0.00    +0.000 C 
ENDBRANCH  12  16
ENDBRANCH   5  13
ENDBRANCH   4   6
ENDBRANCH   3   4
ENDBRANCH   1   3
BRANCH   1  18
ATOM     18  C   UNL     1      39.714   5.632  17.357  0.00  0.00    +0.000 C 
BRANCH  18  19
ATOM     19  C   UNL     1      39.948   6.242  18.693  0.00  0.00    +0.000 C 
BRANCH  19  20
ATOM     20  C   UNL     1      41.342   6.399  19.097  0.00  0.00    +0.000 A 
ATOM     21  C   UNL     1      42.348   6.780  18.220  0.00  0.00    +0.000 A 
ATOM     22  C   UNL     1      43.633   6.905  18.667  0.00  0.00    +0.000 A 
ATOM     23  C   UNL     1      43.936   6.652  19.993  0.00  0.00    +0.000 A 
ATOM     24  C   UNL     1      42.958   6.272  20.884  0.00  0.00    +0.000 A 
ATOM     25  C   UNL     1      41.678   6.155  20.411  0.00  0.00    +0.000 A 
ENDBRANCH  19  20
BRANCH  19  26
ATOM     26  C   UNL     1      39.056   7.353  19.049  0.00  0.00    +0.000 A 
ATOM     27  C   UNL     1      38.985   7.745  20.371  0.00  0.00    +0.000 A 
ATOM     28  C   UNL     1      38.183   8.776  20.824  0.00  0.00    +0.000 A 
ATOM     29  C   UNL     1      37.417   9.437  19.892  0.00  0.00    +0.000 A 
ATOM     30  C   UNL     1      37.468   9.065  18.561  0.00  0.00    +0.000 A 
ATOM     31  C   UNL     1      38.278   8.033  18.143  0.00  0.00    +0.000 A 
ENDBRANCH  19  26
ENDBRANCH  18  19
ENDBRANCH   1  18
TORSDOF 10
ENDMDL
MODEL 6
REMARK VINA RESULT:      -7.8      2.521      4.719
REMARK  Name = 
REMARK  10 active torsions:
REMARK  status: ('A' for Active; 'I' for Inactive)
REMARK    1  A    between atoms: C_2  and  C_3
REMARK    2  A    between atoms: C_7  and  C_8
REMARK    3  A    between atoms: C_10  and  N_11
REMARK    4  A    between atoms: C_12  and  C_14
REMARK    5  A    between atoms: C_14  and  O_15
REMARK    6  A    between atoms: O_15  and  C_16
REMARK    7  A    between atoms: C_16  and  C_18
REMARK    8  A    between atoms: C_18  and  C_19
REMARK    9  A    between atoms: C_19  and  C_20
REMARK   10  A    between atoms: C_19  and  C_26
REMARK                            x       y       z     vdW  Elec       q    Type
REMARK                         _______ _______ _______ _____ _____    ______ ____
ROOT
ATOM      1  C   UNL     1      35.811   3.094  15.222  0.00  0.00    +0.000 C 
ATOM      2  O   UNL     1      35.324   4.063  14.588  0.00  0.00    +0.000 OA
ENDROOT
BRANCH   1   3
ATOM      3  O   UNL     1      35.294   1.839  14.944  0.00  0.00    +0.000 OA
BRANCH   3   4
ATOM      4  C   UNL     1      36.059   0.889  14.281  0.00  0.00    +0.000 C 
BRANCH   4   6
ATOM      5  N   UNL     1      37.541  -0.251  16.040  0.00  0.00    +0.000 NA
ATOM      6  C   UNL     1      36.437  -0.261  15.158  0.00  0.00    +0.000 C 
ATOM      7  O   UNL     1      35.729  -1.299  15.107  0.00  0.00    +0.000 OA
BRANCH   5  13
ATOM      8  C   UNL     1      37.452  -1.331  18.176  0.00  0.00    +0.000 A 
ATOM      9  C   UNL     1      37.790  -2.364  19.006  0.00  0.00    +0.000 A 
ATOM     10  C   UNL     1      38.575  -3.407  18.556  0.00  0.00    +0.000 A 
ATOM     11  C   UNL     1      39.026  -3.413  17.265  0.00  0.00    +0.000 A 
ATOM     12  C   UNL     1      38.700  -2.384  16.405  0.00  0.00    +0.000 A 
ATOM     13  C   UNL     1      37.906  -1.340  16.876  0.00  0.00    +0.000 A 
BRANCH   8  15
ATOM     14  C   UNL     1      35.429  -0.732  19.481  0.00  0.00    +0.000 C 
ATOM     15  C   UNL     1      36.614  -0.232  18.689  0.00  0.00    +0.000 C 
ENDBRANCH   8  15
BRANCH  12  16
ATOM     16  C   UNL     1      39.200  -2.406  15.010  0.00  0.00    +0.000 C 
ATOM     17  C   UNL     1      40.615  -1.887  14.946  0.00  0.00    +0.000 C 
ENDBRANCH  12  16
ENDBRANCH   5  13
ENDBRANCH   4   6
ENDBRANCH   3   4
ENDBRANCH   1   3
BRANCH   1  18
ATOM     18  C   UNL     1      36.896   3.271  16.236  0.00  0.00    +0.000 C 
BRANCH  18  19
ATOM     19  C   UNL     1      38.011   4.027  15.605  0.00  0.00    +0.000 C 
BRANCH  19  20
ATOM     20  C   UNL     1      38.857   4.802  16.508  0.00  0.00    +0.000 A 
ATOM     21  C   UNL     1      39.934   5.563  16.073  0.00  0.00    +0.000 A 
ATOM     22  C   UNL     1      40.684   6.262  16.975  0.00  0.00    +0.000 A 
ATOM     23  C   UNL     1      40.376   6.215  18.322  0.00  0.00    +0.000 A 
ATOM     24  C   UNL     1      39.315   5.468  18.781  0.00  0.00    +0.000 A 
ATOM     25  C   UNL     1      38.577   4.777  17.857  0.00  0.00    +0.000 A 
ENDBRANCH  19  20
BRANCH  19  26
ATOM     26  C   UNL     1      38.712   3.334  14.516  0.00  0.00    +0.000 A 
ATOM     27  C   UNL     1      38.612   3.844  13.237  0.00  0.00    +0.000 A 
ATOM     28  C   UNL     1      39.227   3.279  12.136  0.00  0.00    +0.000 A 
ATOM     29  C   UNL     1      39.975   2.144  12.342  0.00  0.00    +0.000 A 
ATOM     30  C   UNL     1      40.092   1.611  13.613  0.00  0.00    +0.000 A 
ATOM     31  C   UNL     1      39.466   2.199  14.690  0.00  0.00    +0.000 A 
ENDBRANCH  19  26
ENDBRANCH  18  19
ENDBRANCH   1  18
TORSDOF 10
ENDMDL
MODEL 7
REMARK VINA RESULT:      -7.5     24.191     26.276
REMARK  Name = 
REMARK  10 active torsions:
REMARK  status: ('A' for Active; 'I' for Inactive)
REMARK    1  A    between atoms: C_2  and  C_3
REMARK    2  A    between atoms: C_7  and  C_8
REMARK    3  A    between atoms: C_10  and  N_11
REMARK    4  A    between atoms: C_12  and  C_14
REMARK    5  A    between atoms: C_14  and  O_15
REMARK    6  A    between atoms: O_15  and  C_16
REMARK    7  A    between atoms: C_16  and  C_18
REMARK    8  A    between atoms: C_18  and  C_19
REMARK    9  A    between atoms: C_19  and  C_20
REMARK   10  A    between atoms: C_19  and  C_26
REMARK                            x       y       z     vdW  Elec       q    Type
REMARK                         _______ _______ _______ _____ _____    ______ ____
ROOT
ATOM      1  C   UNL     1      25.070  14.696  38.792  0.00  0.00    +0.000 C 
ATOM      2  O   UNL     1      23.831  14.549  38.940  0.00  0.00    +0.000 OA
ENDROOT
BRANCH   1   3
ATOM      3  O   UNL     1      25.887  13.726  39.349  0.00  0.00    +0.000 OA
BRANCH   3   4
ATOM      4  C   UNL     1      25.963  13.570  40.727  0.00  0.00    +0.000 C 
BRANCH   4   6
ATOM      5  N   UNL     1      27.363  11.443  40.403  0.00  0.00    +0.000 NA
ATOM      6  C   UNL     1      27.024  12.600  41.139  0.00  0.00    +0.000 C 
ATOM      7  O   UNL     1      27.650  12.829  42.205  0.00  0.00    +0.000 OA
BRANCH   5  13
ATOM      8  C   UNL     1      27.980   9.413  41.514  0.00  0.00    +0.000 A 
ATOM      9  C   UNL     1      28.925   8.505  41.903  0.00  0.00    +0.000 A 
ATOM     10  C   UNL     1      30.255   8.682  41.577  0.00  0.00    +0.000 A 
ATOM     11  C   UNL     1      30.640   9.779  40.858  0.00  0.00    +0.000 A 
ATOM     12  C   UNL     1      29.707  10.713  40.451  0.00  0.00    +0.000 A 
ATOM     13  C   UNL     1      28.369  10.516  40.789  0.00  0.00    +0.000 A 
BRANCH   8  15
ATOM     14  C   UNL     1      26.140   7.758  41.691  0.00  0.00    +0.000 C 
ATOM     15  C   UNL     1      26.568   9.194  41.880  0.00  0.00    +0.000 C 
ENDBRANCH   8  15
BRANCH  12  16
ATOM     16  C   UNL     1      30.143  11.897  39.675  0.00  0.00    +0.000 C 
ATOM     17  C   UNL     1      30.771  12.925  40.583  0.00  0.00    +0.000 C 
ENDBRANCH  12  16
ENDBRANCH   5  13
ENDBRANCH   4   6
ENDBRANCH   3   4
ENDBRANCH   1   3
BRANCH   1  18
ATOM     18  C   UNL     1      25.651  15.859  38.053  0.00  0.00    +0.000 C 
BRANCH  18  19
ATOM     19  C   UNL     1      26.521  15.338  36.965  0.00  0.00    +0.000 C 
BRANCH  19  20
ATOM     20  C   UNL     1      26.029  15.517  35.602  0.00  0.00    +0.000 A 
ATOM     21  C   UNL     1      26.081  14.520  34.639  0.00  0.00    +0.000 A 
ATOM     22  C   UNL     1      25.604  14.758  33.382  0.00  0.00    +0.000 A 
ATOM     23  C   UNL     1      25.067  15.993  33.064  0.00  0.00    +0.000 A 
ATOM     24  C   UNL     1      25.004  17.000  33.999  0.00  0.00    +0.000 A 
ATOM     25  C   UNL     1      25.489  16.736  35.253  0.00  0.00    +0.000 A 
ENDBRANCH  19  20
BRANCH  19  26
ATOM     26  C   UNL     1      27.964  15.547  37.152  0.00  0.00    +0.000 A 
ATOM     27  C   UNL     1      28.434  15.801  38.424  0.00  0.00    +0.000 A 
ATOM     28  C   UNL     1      29.767  16.013  38.722  0.00  0.00    +0.000 A 
ATOM     29  C   UNL     1      30.662  15.966  37.679  0.00  0.00    +0.000 A 
ATOM     30  C   UNL     1      30.218  15.715  36.393  0.00  0.00    +0.000 A 
ATOM     31  C   UNL     1      28.882  15.508  36.131  0.00  0.00    +0.000 A 
ENDBRANCH  19  26
ENDBRANCH  18  19
ENDBRANCH   1  18
TORSDOF 10
ENDMDL
MODEL 8
REMARK VINA RESULT:      -7.5      1.385      4.295
REMARK  Name = 
REMARK  10 active torsions:
REMARK  status: ('A' for Active; 'I' for Inactive)
REMARK    1  A    between atoms: C_2  and  C_3
REMARK    2  A    between atoms: C_7  and  C_8
REMARK    3  A    between atoms: C_10  and  N_11
REMARK    4  A    between atoms: C_12  and  C_14
REMARK    5  A    between atoms: C_14  and  O_15
REMARK    6  A    between atoms: O_15  and  C_16
REMARK    7  A    between atoms: C_16  and  C_18
REMARK    8  A    between atoms: C_18  and  C_19
REMARK    9  A    between atoms: C_19  and  C_20
REMARK   10  A    between atoms: C_19  and  C_26
REMARK                            x       y       z     vdW  Elec       q    Type
REMARK                         _______ _______ _______ _____ _____    ______ ____
ROOT
ATOM      1  C   UNL     1      38.846   4.763  17.619  0.00  0.00    +0.000 C 
ATOM      2  O   UNL     1      38.599   4.245  18.737  0.00  0.00    +0.000 OA
ENDROOT
BRANCH   1   3
ATOM      3  O   UNL     1      38.173   4.244  16.525  0.00  0.00    +0.000 OA
BRANCH   3   4
ATOM      4  C   UNL     1      38.850   3.958  15.348  0.00  0.00    +0.000 C 
BRANCH   4   6
ATOM      5  N   UNL     1      38.822   1.393  15.256  0.00  0.00    +0.000 NA
ATOM      6  C   UNL     1      38.436   2.653  14.747  0.00  0.00    +0.000 C 
ATOM      7  O   UNL     1      37.699   2.680  13.728  0.00  0.00    +0.000 OA
BRANCH   5  13
ATOM      8  C   UNL     1      39.258  -0.408  13.739  0.00  0.00    +0.000 A 
ATOM      9  C   UNL     1      38.909  -1.604  13.173  0.00  0.00    +0.000 A 
ATOM     10  C   UNL     1      37.748  -2.252  13.545  0.00  0.00    +0.000 A 
ATOM     11  C   UNL     1      36.931  -1.697  14.490  0.00  0.00    +0.000 A 
ATOM     12  C   UNL     1      37.257  -0.491  15.078  0.00  0.00    +0.000 A 
ATOM     13  C   UNL     1      38.433   0.148  14.690  0.00  0.00    +0.000 A 
BRANCH   8  15
ATOM     14  C   UNL     1      41.738  -0.460  13.810  0.00  0.00    +0.000 C 
ATOM     15  C   UNL     1      40.504   0.258  13.317  0.00  0.00    +0.000 C 
ENDBRANCH   8  15
BRANCH  12  16
ATOM     16  C   UNL     1      36.358   0.097  16.097  0.00  0.00    +0.000 C 
ATOM     17  C   UNL     1      35.208  -0.835  16.390  0.00  0.00    +0.000 C 
ENDBRANCH  12  16
ENDBRANCH   5  13
ENDBRANCH   4   6
ENDBRANCH   3   4
ENDBRANCH   1   3
BRANCH   1  18
ATOM     18  C   UNL     1      39.821   5.886  17.461  0.00  0.00    +0.000 C 
BRANCH  18  19
ATOM     19  C   UNL     1      40.069   6.486  18.799  0.00  0.00    +0.000 C 
BRANCH  19  20
ATOM     20  C   UNL     1      41.459   6.514  19.246  0.00  0.00    +0.000 A 
ATOM     21  C   UNL     1      42.511   6.904  18.430  0.00  0.00    +0.000 A 
ATOM     22  C   UNL     1      43.788   6.904  18.915  0.00  0.00    +0.000 A 
ATOM     23  C   UNL     1      44.037   6.517  20.219  0.00  0.00    +0.000 A 
ATOM     24  C   UNL     1      43.012   6.126  21.051  0.00  0.00    +0.000 A 
ATOM     25  C   UNL     1      41.741   6.135  20.541  0.00  0.00    +0.000 A 
ENDBRANCH  19  20
BRANCH  19  26
ATOM     26  C   UNL     1      39.276   7.681  19.117  0.00  0.00    +0.000 A 
ATOM     27  C   UNL     1      39.138   8.657  18.150  0.00  0.00    +0.000 A 
ATOM     28  C   UNL     1      38.417   9.822  18.333  0.00  0.00    +0.000 A 
ATOM     29  C   UNL     1      37.810  10.005  19.553  0.00  0.00    +0.000 A 
ATOM     30  C   UNL     1      37.933   9.043  20.541  0.00  0.00    +0.000 A 
ATOM     31  C   UNL     1      38.659   7.893  20.325  0.00  0.00    +0.000 A 
ENDBRANCH  19  26
ENDBRANCH  18  19
ENDBRANCH   1  18
TORSDOF 10
ENDMDL
MODEL 9
REMARK VINA RESULT:      -7.4     24.012     26.149
REMARK  Name = 
REMARK  10 active torsions:
REMARK  status: ('A' for Active; 'I' for Inactive)
REMARK    1  A    between atoms: C_2  and  C_3
REMARK    2  A    between atoms: C_7  and  C_8
REMARK    3  A    between atoms: C_10  and  N_11
REMARK    4  A    between atoms: C_12  and  C_14
REMARK    5  A    between atoms: C_14  and  O_15
REMARK    6  A    between atoms: O_15  and  C_16
REMARK    7  A    between atoms: C_16  and  C_18
REMARK    8  A    between atoms: C_18  and  C_19
REMARK    9  A    between atoms: C_19  and  C_20
REMARK   10  A    between atoms: C_19  and  C_26
REMARK                            x       y       z     vdW  Elec       q    Type
REMARK                         _______ _______ _______ _____ _____    ______ ____
ROOT
ATOM      1  C   UNL     1      25.276  14.748  38.621  0.00  0.00    +0.000 C 
ATOM      2  O   UNL     1      24.035  14.589  38.739  0.00  0.00    +0.000 OA
ENDROOT
BRANCH   1   3
ATOM      3  O   UNL     1      26.089  13.817  39.245  0.00  0.00    +0.000 OA
BRANCH   3   4
ATOM      4  C   UNL     1      25.950  13.549  40.600  0.00  0.00    +0.000 C 
BRANCH   4   6
ATOM      5  N   UNL     1      27.330  11.395  40.394  0.00  0.00    +0.000 NA
ATOM      6  C   UNL     1      26.955  12.561  41.098  0.00  0.00    +0.000 C 
ATOM      7  O   UNL     1      27.498  12.781  42.211  0.00  0.00    +0.000 OA
BRANCH   5  13
ATOM      8  C   UNL     1      29.609  10.675  40.563  0.00  0.00    +0.000 A 
ATOM      9  C   UNL     1      30.550   9.782  40.996  0.00  0.00    +0.000 A 
ATOM     10  C   UNL     1      30.186   8.668  41.726  0.00  0.00    +0.000 A 
ATOM     11  C   UNL     1      28.871   8.447  42.022  0.00  0.00    +0.000 A 
ATOM     12  C   UNL     1      27.898   9.331  41.597  0.00  0.00    +0.000 A 
ATOM     13  C   UNL     1      28.284  10.450  40.862  0.00  0.00    +0.000 A 
BRANCH   8  15
ATOM     14  C   UNL     1      31.430  11.710  39.232  0.00  0.00    +0.000 C 
ATOM     15  C   UNL     1      30.031  11.854  39.783  0.00  0.00    +0.000 C 
ENDBRANCH   8  15
BRANCH  12  16
ATOM     16  C   UNL     1      26.477   9.073  41.925  0.00  0.00    +0.000 C 
ATOM     17  C   UNL     1      26.073   7.689  41.479  0.00  0.00    +0.000 C 
ENDBRANCH  12  16
ENDBRANCH   5  13
ENDBRANCH   4   6
ENDBRANCH   3   4
ENDBRANCH   1   3
BRANCH   1  18
ATOM     18  C   UNL     1      25.862  15.886  37.847  0.00  0.00    +0.000 C 
BRANCH  18  19
ATOM     19  C   UNL     1      26.628  15.331  36.699  0.00  0.00    +0.000 C 
BRANCH  19  20
ATOM     20  C   UNL     1      26.045  15.533  35.376  0.00  0.00    +0.000 A 
ATOM     21  C   UNL     1      26.005  14.543  34.405  0.00  0.00    +0.000 A 
ATOM     22  C   UNL     1      25.445  14.804  33.186  0.00  0.00    +0.000 A 
ATOM     23  C   UNL     1      24.919  16.054  32.916  0.00  0.00    +0.000 A 
ATOM     24  C   UNL     1      24.946  17.055  33.860  0.00  0.00    +0.000 A 
ATOM     25  C   UNL     1      25.512  16.767  35.074  0.00  0.00    +0.000 A 
ENDBRANCH  19  20
BRANCH  19  26
ATOM     26  C   UNL     1      28.087  15.477  36.779  0.00  0.00    +0.000 A 
ATOM     27  C   UNL     1      28.660  15.719  38.012  0.00  0.00    +0.000 A 
ATOM     28  C   UNL     1      30.019  15.874  38.210  0.00  0.00    +0.000 A 
ATOM     29  C   UNL     1      30.833  15.780  37.106  0.00  0.00    +0.000 A 
ATOM     30  C   UNL     1      30.286  15.538  35.858  0.00  0.00    +0.000 A 
ATOM     31  C   UNL     1      28.927  15.388  35.696  0.00  0.00    +0.000 A 
ENDBRANCH  19  26
ENDBRANCH  18  19
ENDBRANCH   1  18
TORSDOF 10
ENDMDL
MODEL 10
REMARK VINA RESULT:      -7.3      3.614      9.142
REMARK  Name = 
REMARK  10 active torsions:
REMARK  status: ('A' for Active; 'I' for Inactive)
REMARK    1  A    between atoms: C_2  and  C_3
REMARK    2  A    between atoms: C_7  and  C_8
REMARK    3  A    between atoms: C_10  and  N_11
REMARK    4  A    between atoms: C_12  and  C_14
REMARK    5  A    between atoms: C_14  and  O_15
REMARK    6  A    between atoms: O_15  and  C_16
REMARK    7  A    between atoms: C_16  and  C_18
REMARK    8  A    between atoms: C_18  and  C_19
REMARK    9  A    between atoms: C_19  and  C_20
REMARK   10  A    between atoms: C_19  and  C_26
REMARK                            x       y       z     vdW  Elec       q    Type
REMARK                         _______ _______ _______ _____ _____    ______ ____
ROOT
ATOM      1  C   UNL     1      38.863  -1.859  14.938  0.00  0.00    +0.000 C 
ATOM      2  O   UNL     1      39.774  -2.663  14.619  0.00  0.00    +0.000 OA
ENDROOT
BRANCH   1   3
ATOM      3  O   UNL     1      39.258  -0.639  15.462  0.00  0.00    +0.000 OA
BRANCH   3   4
ATOM      4  C   UNL     1      39.897   0.301  14.665  0.00  0.00    +0.000 C 
BRANCH   4   6
ATOM      5  N   UNL     1      38.431   2.346  15.171  0.00  0.00    +0.000 NA
ATOM      6  C   UNL     1      38.995   1.423  14.262  0.00  0.00    +0.000 C 
ATOM      7  O   UNL     1      38.723   1.552  13.041  0.00  0.00    +0.000 OA
BRANCH   5  13
ATOM      8  C   UNL     1      36.217   3.172  14.779  0.00  0.00    +0.000 A 
ATOM      9  C   UNL     1      35.365   4.179  14.418  0.00  0.00    +0.000 A 
ATOM     10  C   UNL     1      35.848   5.427  14.076  0.00  0.00    +0.000 A 
ATOM     11  C   UNL     1      37.193   5.665  14.092  0.00  0.00    +0.000 A 
ATOM     12  C   UNL     1      38.077   4.667  14.452  0.00  0.00    +0.000 A 
ATOM     13  C   UNL     1      37.572   3.415  14.795  0.00  0.00    +0.000 A 
BRANCH   8  15
ATOM     14  C   UNL     1      34.770   1.909  16.349  0.00  0.00    +0.000 C 
ATOM     15  C   UNL     1      35.669   1.851  15.137  0.00  0.00    +0.000 C 
ENDBRANCH   8  15
BRANCH  12  16
ATOM     16  C   UNL     1      39.533   4.943  14.462  0.00  0.00    +0.000 C 
ATOM     17  C   UNL     1      39.948   5.555  15.777  0.00  0.00    +0.000 C 
ENDBRANCH  12  16
ENDBRANCH   5  13
ENDBRANCH   4   6
ENDBRANCH   3   4
ENDBRANCH   1   3
BRANCH   1  18
ATOM     18  C   UNL     1      37.414  -2.190  14.769  0.00  0.00    +0.000 C 
BRANCH  18  19
ATOM     19  C   UNL     1      36.981  -3.015  15.928  0.00  0.00    +0.000 C 
BRANCH  19  20
ATOM     20  C   UNL     1      36.793  -2.307  17.190  0.00  0.00    +0.000 A 
ATOM     21  C   UNL     1      37.675  -2.408  18.256  0.00  0.00    +0.000 A 
ATOM     22  C   UNL     1      37.435  -1.717  19.410  0.00  0.00    +0.000 A 
ATOM     23  C   UNL     1      36.313  -0.917  19.521  0.00  0.00    +0.000 A 
ATOM     24  C   UNL     1      35.420  -0.799  18.479  0.00  0.00    +0.000 A 
ATOM     25  C   UNL     1      35.684  -1.500  17.333  0.00  0.00    +0.000 A 
ENDBRANCH  19  20
BRANCH  19  26
ATOM     26  C   UNL     1      35.988  -4.057  15.630  0.00  0.00    +0.000 A 
ATOM     27  C   UNL     1      34.981  -3.770  14.730  0.00  0.00    +0.000 A 
ATOM     28  C   UNL     1      33.993  -4.668  14.372  0.00  0.00    +0.000 A 
ATOM     29  C   UNL     1      34.029  -5.912  14.956  0.00  0.00    +0.000 A 
ATOM     30  C   UNL     1      35.026  -6.226  15.862  0.00  0.00    +0.000 A 
ATOM     31  C   UNL     1      35.996  -5.308  16.197  0.00  0.00    +0.000 A 
ENDBRANCH  19  26
ENDBRANCH  18  19
ENDBRANCH   1  18
TORSDOF 10
ENDMDL
