MODEL 1
REMARK VINA RESULT:      -7.6      0.000      0.000
REMARK  Name = 
REMARK  2 active torsions:
REMARK  status: ('A' for Active; 'I' for Inactive)
REMARK    1  A    between atoms: C_2  and  N_4
REMARK    2  A    between atoms: C_6  and  C_7
REMARK                            x       y       z     vdW  Elec       q    Type
REMARK                         _______ _______ _______ _____ _____    ______ ____
ROOT
ATOM      1  N   UNL     1      16.572  11.243  36.343  0.00  0.00    +0.000 N 
ATOM      2  C   UNL     1      16.507  11.708  35.066  0.00  0.00    +0.000 A 
ATOM      3  C   UNL     1      15.206  12.071  34.794  0.00  0.00    +0.000 A 
ATOM      4  C   UNL     1      14.498  11.808  35.948  0.00  0.00    +0.000 A 
ATOM      5  N   UNL     1      13.215  11.956  36.274  0.00  0.00    +0.000 NA
ATOM      6  C   UNL     1      12.754  11.615  37.506  0.00  0.00    +0.000 A 
ATOM      7  N   UNL     1      13.576  11.122  38.426  0.00  0.00    +0.000 NA
ATOM      8  C   UNL     1      14.887  10.941  38.177  0.00  0.00    +0.000 A 
ATOM      9  N   UNL     1      15.761  10.413  39.165  0.00  0.00    +0.000 NA
ATOM     10  C   UNL     1      15.353  11.293  36.910  0.00  0.00    +0.000 A 
ENDROOT
BRANCH   3  11
ATOM     11  C   UNL     1      14.735  12.614  33.528  0.00  0.00    +0.000 A 
ATOM     12  C   UNL     1      13.979  13.759  33.413  0.00  0.00    +0.000 A 
ATOM     13  C   UNL     1      13.567  14.216  32.181  0.00  0.00    +0.000 A 
ATOM     14  C   UNL     1      13.894  13.549  31.036  0.00  0.00    +0.000 A 
ATOM     15  C   UNL     1      14.649  12.400  31.119  0.00  0.00    +0.000 A 
ATOM     16  C   UNL     1      15.053  11.957  32.359  0.00  0.00    +0.000 A 
ENDBRANCH   3  11
BRANCH   1  18
ATOM     17  C   UNL     1      18.592  11.870  37.585  0.00  0.00    +0.000 C 
ATOM     18  C   UNL     1      17.741  10.753  37.054  0.00  0.00    +0.000 C 
ATOM     19  C   UNL     1      18.521   9.757  36.236  0.00  0.00    +0.000 C 
ENDBRANCH   1  18
TORSDOF 2
ENDMDL
MODEL 2
REMARK VINA RESULT:      -6.9     28.549     31.244
REMARK  Name = 
REMARK  2 active torsions:
REMARK  status: ('A' for Active; 'I' for Inactive)
REMARK    1  A    between atoms: C_2  and  N_4
REMARK    2  A    between atoms: C_6  and  C_7
REMARK                            x       y       z     vdW  Elec       q    Type
REMARK                         _______ _______ _______ _____ _____    ______ ____
ROOT
ATOM      1  N   UNL     1      31.145  20.983   8.989  0.00  0.00    +0.000 N 
ATOM      2  C   UNL     1      30.095  21.636   9.557  0.00  0.00    +0.000 A 
ATOM      3  C   UNL     1      30.346  21.792  10.902  0.00  0.00    +0.000 A 
ATOM      4  C   UNL     1      31.578  21.212  11.120  0.00  0.00    +0.000 A 
ATOM      5  N   UNL     1      32.326  21.063  12.212  0.00  0.00    +0.000 NA
ATOM      6  C   UNL     1      33.533  20.440  12.164  0.00  0.00    +0.000 A 
ATOM      7  N   UNL     1      34.004  19.960  11.017  0.00  0.00    +0.000 NA
ATOM      8  C   UNL     1      33.311  20.070   9.868  0.00  0.00    +0.000 A 
ATOM      9  N   UNL     1      33.820  19.555   8.646  0.00  0.00    +0.000 NA
ATOM     10  C   UNL     1      32.073  20.710   9.926  0.00  0.00    +0.000 A 
ENDROOT
BRANCH   3  11
ATOM     11  C   UNL     1      29.454  22.443  11.851  0.00  0.00    +0.000 A 
ATOM     12  C   UNL     1      29.872  23.036  13.021  0.00  0.00    +0.000 A 
ATOM     13  C   UNL     1      28.972  23.635  13.873  0.00  0.00    +0.000 A 
ATOM     14  C   UNL     1      27.637  23.660  13.587  0.00  0.00    +0.000 A 
ATOM     15  C   UNL     1      27.189  23.074  12.423  0.00  0.00    +0.000 A 
ATOM     16  C   UNL     1      28.103  22.479  11.582  0.00  0.00    +0.000 A 
ENDBRANCH   3  11
BRANCH   1  18
ATOM     17  C   UNL     1      31.525  21.796   6.707  0.00  0.00    +0.000 C 
ATOM     18  C   UNL     1      31.313  20.605   7.596  0.00  0.00    +0.000 C 
ATOM     19  C   UNL     1      30.202  19.706   7.119  0.00  0.00    +0.000 C 
ENDBRANCH   1  18
TORSDOF 2
ENDMDL
MODEL 3
REMARK VINA RESULT:      -6.5     18.675     20.357
REMARK  Name = 
REMARK  2 active torsions:
REMARK  status: ('A' for Active; 'I' for Inactive)
REMARK    1  A    between atoms: C_2  and  N_4
REMARK    2  A    between atoms: C_6  and  C_7
REMARK                            x       y       z     vdW  Elec       q    Type
REMARK                         _______ _______ _______ _____ _____    ______ ____
ROOT
ATOM      1  N   UNL     1      29.277  23.842  24.879  0.00  0.00    +0.000 N 
ATOM      2  C   UNL     1      29.136  23.758  26.230  0.00  0.00    +0.000 A 
ATOM      3  C   UNL     1      27.823  23.462  26.520  0.00  0.00    +0.000 A 
ATOM      4  C   UNL     1      27.184  23.370  25.301  0.00  0.00    +0.000 A 
ATOM      5  N   UNL     1      25.924  23.110  24.959  0.00  0.00    +0.000 NA
ATOM      6  C   UNL     1      25.536  23.076  23.657  0.00  0.00    +0.000 A 
ATOM      7  N   UNL     1      26.411  23.304  22.682  0.00  0.00    +0.000 NA
ATOM      8  C   UNL     1      27.704  23.575  22.943  0.00  0.00    +0.000 A 
ATOM      9  N   UNL     1      28.633  23.818  21.896  0.00  0.00    +0.000 NA
ATOM     10  C   UNL     1      28.093  23.608  24.282  0.00  0.00    +0.000 A 
ENDROOT
BRANCH   3  11
ATOM     11  C   UNL     1      27.278  23.292  27.860  0.00  0.00    +0.000 A 
ATOM     12  C   UNL     1      26.365  24.146  28.435  0.00  0.00    +0.000 A 
ATOM     13  C   UNL     1      25.891  23.923  29.709  0.00  0.00    +0.000 A 
ATOM     14  C   UNL     1      26.313  22.852  30.442  0.00  0.00    +0.000 A 
ATOM     15  C   UNL     1      27.228  21.980  29.893  0.00  0.00    +0.000 A 
ATOM     16  C   UNL     1      27.691  22.217  28.618  0.00  0.00    +0.000 A 
ENDBRANCH   3  11
BRANCH   1  18
ATOM     17  C   UNL     1      31.616  23.218  24.490  0.00  0.00    +0.000 C 
ATOM     18  C   UNL     1      30.484  24.134  24.125  0.00  0.00    +0.000 C 
ATOM     19  C   UNL     1      30.859  25.591  24.203  0.00  0.00    +0.000 C 
ENDBRANCH   1  18
TORSDOF 2
ENDMDL
MODEL 4
REMARK VINA RESULT:      -6.4      2.406      6.214
REMARK  Name = 
REMARK  2 active torsions:
REMARK  status: ('A' for Active; 'I' for Inactive)
REMARK    1  A    between atoms: C_2  and  N_4
REMARK    2  A    between atoms: C_6  and  C_7
REMARK                            x       y       z     vdW  Elec       q    Type
REMARK                         _______ _______ _______ _____ _____    ______ ____
ROOT
ATOM      1  N   UNL     1      14.209  13.374  33.671  0.00  0.00    +0.000 N 
ATOM      2  C   UNL     1      14.632  13.114  34.937  0.00  0.00    +0.000 A 
ATOM      3  C   UNL     1      15.430  11.991  34.915  0.00  0.00    +0.000 A 
ATOM      4  C   UNL     1      15.470  11.590  33.596  0.00  0.00    +0.000 A 
ATOM      5  N   UNL     1      16.076  10.578  32.978  0.00  0.00    +0.000 NA
ATOM      6  C   UNL     1      15.957  10.395  31.636  0.00  0.00    +0.000 A 
ATOM      7  N   UNL     1      15.226  11.225  30.900  0.00  0.00    +0.000 NA
ATOM      8  C   UNL     1      14.581  12.273  31.448  0.00  0.00    +0.000 A 
ATOM      9  N   UNL     1      13.801  13.157  30.655  0.00  0.00    +0.000 NA
ATOM     10  C   UNL     1      14.708  12.454  32.824  0.00  0.00    +0.000 A 
ENDROOT
BRANCH   3  11
ATOM     11  C   UNL     1      16.072  11.396  36.079  0.00  0.00    +0.000 A 
ATOM     12  C   UNL     1      17.380  10.967  36.103  0.00  0.00    +0.000 A 
ATOM     13  C   UNL     1      17.923  10.413  37.240  0.00  0.00    +0.000 A 
ATOM     14  C   UNL     1      17.183  10.270  38.378  0.00  0.00    +0.000 A 
ATOM     15  C   UNL     1      15.871  10.689  38.384  0.00  0.00    +0.000 A 
ATOM     16  C   UNL     1      15.344  11.242  37.238  0.00  0.00    +0.000 A 
ENDBRANCH   3  11
BRANCH   1  18
ATOM     17  C   UNL     1      14.026  15.332  32.205  0.00  0.00    +0.000 C 
ATOM     18  C   UNL     1      13.351  14.458  33.223  0.00  0.00    +0.000 C 
ATOM     19  C   UNL     1      12.777  15.237  34.377  0.00  0.00    +0.000 C 
ENDBRANCH   1  18
TORSDOF 2
ENDMDL
MODEL 5
REMARK VINA RESULT:      -6.3     21.151     22.904
REMARK  Name = 
REMARK  2 active torsions:
REMARK  status: ('A' for Active; 'I' for Inactive)
REMARK    1  A    between atoms: C_2  and  N_4
REMARK    2  A    between atoms: C_6  and  C_7
REMARK                            x       y       z     vdW  Elec       q    Type
REMARK                         _______ _______ _______ _____ _____    ______ ____
ROOT
ATOM      1  N   UNL     1      19.070  -8.776  25.774  0.00  0.00    +0.000 N 
ATOM      2  C   UNL     1      20.270  -8.974  25.166  0.00  0.00    +0.000 A 
ATOM      3  C   UNL     1      20.894  -7.756  25.012  0.00  0.00    +0.000 A 
ATOM      4  C   UNL     1      20.029  -6.825  25.548  0.00  0.00    +0.000 A 
ATOM      5  N   UNL     1      20.094  -5.501  25.678  0.00  0.00    +0.000 NA
ATOM      6  C   UNL     1      19.086  -4.796  26.256  0.00  0.00    +0.000 A 
ATOM      7  N   UNL     1      17.999  -5.413  26.709  0.00  0.00    +0.000 NA
ATOM      8  C   UNL     1      17.855  -6.748  26.616  0.00  0.00    +0.000 A 
ATOM      9  N   UNL     1      16.690  -7.401  27.102  0.00  0.00    +0.000 NA
ATOM     10  C   UNL     1      18.893  -7.464  26.021  0.00  0.00    +0.000 A 
ENDROOT
BRANCH   3  11
ATOM     11  C   UNL     1      22.200  -7.554  24.400  0.00  0.00    +0.000 A 
ATOM     12  C   UNL     1      23.071  -6.548  24.754  0.00  0.00    +0.000 A 
ATOM     13  C   UNL     1      24.292  -6.417  24.133  0.00  0.00    +0.000 A 
ATOM     14  C   UNL     1      24.678  -7.278  23.146  0.00  0.00    +0.000 A 
ATOM     15  C   UNL     1      23.828  -8.294  22.770  0.00  0.00    +0.000 A 
ATOM     16  C   UNL     1      22.610  -8.411  23.402  0.00  0.00    +0.000 A 
ENDBRANCH   3  11
BRANCH   1  18
ATOM     17  C   UNL     1      18.645 -10.845  27.022  0.00  0.00    +0.000 C 
ATOM     18  C   UNL     1      18.077  -9.774  26.135  0.00  0.00    +0.000 C 
ATOM     19  C   UNL     1      17.370 -10.328  24.925  0.00  0.00    +0.000 C 
ENDBRANCH   1  18
TORSDOF 2
ENDMDL
MODEL 6
REMARK VINA RESULT:      -6.1     21.953     23.816
REMARK  Name = 
REMARK  2 active torsions:
REMARK  status: ('A' for Active; 'I' for Inactive)
REMARK    1  A    between atoms: C_2  and  N_4
REMARK    2  A    between atoms: C_6  and  C_7
REMARK                            x       y       z     vdW  Elec       q    Type
REMARK                         _______ _______ _______ _____ _____    ______ ____
ROOT
ATOM      1  N   UNL     1      23.108  -8.221  24.141  0.00  0.00    +0.000 N 
ATOM      2  C   UNL     1      22.017  -7.435  24.343  0.00  0.00    +0.000 A 
ATOM      3  C   UNL     1      21.347  -7.885  25.459  0.00  0.00    +0.000 A 
ATOM      4  C   UNL     1      22.074  -8.964  25.918  0.00  0.00    +0.000 A 
ATOM      5  N   UNL     1      21.912  -9.789  26.950  0.00  0.00    +0.000 NA
ATOM      6  C   UNL     1      22.788 -10.800  27.193  0.00  0.00    +0.000 A 
ATOM      7  N   UNL     1      23.837 -10.994  26.402  0.00  0.00    +0.000 NA
ATOM      8  C   UNL     1      24.073 -10.204  25.336  0.00  0.00    +0.000 A 
ATOM      9  N   UNL     1      25.197 -10.417  24.494  0.00  0.00    +0.000 NA
ATOM     10  C   UNL     1      23.170  -9.170  25.093  0.00  0.00    +0.000 A 
ENDROOT
BRANCH   3  11
ATOM     11  C   UNL     1      20.127  -7.301  25.997  0.00  0.00    +0.000 A 
ATOM     12  C   UNL     1      19.118  -8.029  26.588  0.00  0.00    +0.000 A 
ATOM     13  C   UNL     1      17.990  -7.410  27.076  0.00  0.00    +0.000 A 
ATOM     14  C   UNL     1      17.834  -6.057  26.990  0.00  0.00    +0.000 A 
ATOM     15  C   UNL     1      18.826  -5.302  26.404  0.00  0.00    +0.000 A 
ATOM     16  C   UNL     1      19.949  -5.937  25.921  0.00  0.00    +0.000 A 
ENDBRANCH   3  11
BRANCH   1  18
ATOM     17  C   UNL     1      25.047  -6.971  23.307  0.00  0.00    +0.000 C 
ATOM     18  C   UNL     1      24.100  -8.115  23.084  0.00  0.00    +0.000 C 
ATOM     19  C   UNL     1      23.467  -8.096  21.717  0.00  0.00    +0.000 C 
ENDBRANCH   1  18
TORSDOF 2
ENDMDL
MODEL 7
REMARK VINA RESULT:      -6.1      2.101      6.299
REMARK  Name = 
REMARK  2 active torsions:
REMARK  status: ('A' for Active; 'I' for Inactive)
REMARK    1  A    between atoms: C_2  and  N_4
REMARK    2  A    between atoms: C_6  and  C_7
REMARK                            x       y       z     vdW  Elec       q    Type
REMARK                         _______ _______ _______ _____ _____    ______ ____
ROOT
ATOM      1  N   UNL     1      14.920  12.042  35.816  0.00  0.00    +0.000 N 
ATOM      2  C   UNL     1      15.468  11.882  37.051  0.00  0.00    +0.000 A 
ATOM      3  C   UNL     1      16.642  11.172  36.926  0.00  0.00    +0.000 A 
ATOM      4  C   UNL     1      16.777  10.914  35.577  0.00  0.00    +0.000 A 
ATOM      5  N   UNL     1      17.705  10.273  34.869  0.00  0.00    +0.000 NA
ATOM      6  C   UNL     1      17.608  10.152  33.519  0.00  0.00    +0.000 A 
ATOM      7  N   UNL     1      16.576  10.674  32.864  0.00  0.00    +0.000 NA
ATOM      8  C   UNL     1      15.595  11.338  33.505  0.00  0.00    +0.000 A 
ATOM      9  N   UNL     1      14.495  11.893  32.798  0.00  0.00    +0.000 NA
ATOM     10  C   UNL     1      15.702  11.457  34.890  0.00  0.00    +0.000 A 
ENDROOT
BRANCH   3  11
ATOM     11  C   UNL     1      17.518  10.800  38.027  0.00  0.00    +0.000 A 
ATOM     12  C   UNL     1      18.813  11.245  38.166  0.00  0.00    +0.000 A 
ATOM     13  C   UNL     1      19.586  10.852  39.236  0.00  0.00    +0.000 A 
ATOM     14  C   UNL     1      19.095  10.009  40.190  0.00  0.00    +0.000 A 
ATOM     15  C   UNL     1      17.802   9.547  40.077  0.00  0.00    +0.000 A 
ATOM     16  C   UNL     1      17.042   9.950  39.002  0.00  0.00    +0.000 A 
ENDBRANCH   3  11
BRANCH   1  18
ATOM     17  C   UNL     1      13.927  14.127  34.989  0.00  0.00    +0.000 C 
ATOM     18  C   UNL     1      13.685  12.725  35.470  0.00  0.00    +0.000 C 
ATOM     19  C   UNL     1      12.670  12.652  36.581  0.00  0.00    +0.000 C 
ENDBRANCH   1  18
TORSDOF 2
ENDMDL
MODEL 8
REMARK VINA RESULT:      -6.0      3.412      7.245
REMARK  Name = 
REMARK  2 active torsions:
REMARK  status: ('A' for Active; 'I' for Inactive)
REMARK    1  A    between atoms: C_2  and  N_4
REMARK    2  A    between atoms: C_6  and  C_7
REMARK                            x       y       z     vdW  Elec       q    Type
REMARK                         _______ _______ _______ _____ _____    ______ ____
ROOT
ATOM      1  N   UNL     1      17.268  10.372  38.415  0.00  0.00    +0.000 N 
ATOM      2  C   UNL     1      17.532   9.779  39.610  0.00  0.00    +0.000 A 
ATOM      3  C   UNL     1      16.352   9.646  40.309  0.00  0.00    +0.000 A 
ATOM      4  C   UNL     1      15.376  10.179  39.493  0.00  0.00    +0.000 A 
ATOM      5  N   UNL     1      14.060  10.325  39.636  0.00  0.00    +0.000 NA
ATOM      6  C   UNL     1      13.301  10.895  38.663  0.00  0.00    +0.000 A 
ATOM      7  N   UNL     1      13.856  11.326  37.535  0.00  0.00    +0.000 NA
ATOM      8  C   UNL     1      15.179  11.217  37.311  0.00  0.00    +0.000 A 
ATOM      9  N   UNL     1      15.765  11.680  36.103  0.00  0.00    +0.000 NA
ATOM     10  C   UNL     1      15.951  10.631  38.314  0.00  0.00    +0.000 A 
ENDROOT
BRANCH   3  11
ATOM     11  C   UNL     1      16.224   9.056  41.633  0.00  0.00    +0.000 A 
ATOM     12  C   UNL     1      15.847   7.753  41.864  0.00  0.00    +0.000 A 
ATOM     13  C   UNL     1      15.746   7.260  43.146  0.00  0.00    +0.000 A 
ATOM     14  C   UNL     1      16.016   8.048  44.228  0.00  0.00    +0.000 A 
ATOM     15  C   UNL     1      16.396   9.357  44.028  0.00  0.00    +0.000 A 
ATOM     16  C   UNL     1      16.492   9.833  42.740  0.00  0.00    +0.000 A 
ENDBRANCH   3  11
BRANCH   1  18
ATOM     17  C   UNL     1      18.627   9.503  36.568  0.00  0.00    +0.000 C 
ATOM     18  C   UNL     1      18.208  10.708  37.359  0.00  0.00    +0.000 C 
ATOM     19  C   UNL     1      19.377  11.505  37.878  0.00  0.00    +0.000 C 
ENDBRANCH   1  18
TORSDOF 2
ENDMDL
MODEL 9
REMARK VINA RESULT:      -5.9     20.903     22.477
REMARK  Name = 
REMARK  2 active torsions:
REMARK  status: ('A' for Active; 'I' for Inactive)
REMARK    1  A    between atoms: C_2  and  N_4
REMARK    2  A    between atoms: C_6  and  C_7
REMARK                            x       y       z     vdW  Elec       q    Type
REMARK                         _______ _______ _______ _____ _____    ______ ____
ROOT
ATOM      1  N   UNL     1      28.588  23.725  25.858  0.00  0.00    +0.000 N 
ATOM      2  C   UNL     1      29.853  24.108  26.181  0.00  0.00    +0.000 A 
ATOM      3  C   UNL     1      30.551  24.356  25.019  0.00  0.00    +0.000 A 
ATOM      4  C   UNL     1      29.662  24.110  23.993  0.00  0.00    +0.000 A 
ATOM      5  N   UNL     1      29.771  24.181  22.667  0.00  0.00    +0.000 NA
ATOM      6  C   UNL     1      28.724  23.880  21.854  0.00  0.00    +0.000 A 
ATOM      7  N   UNL     1      27.555  23.505  22.363  0.00  0.00    +0.000 NA
ATOM      8  C   UNL     1      27.362  23.408  23.692  0.00  0.00    +0.000 A 
ATOM      9  N   UNL     1      26.110  23.005  24.229  0.00  0.00    +0.000 NA
ATOM     10  C   UNL     1      28.441  23.717  24.520  0.00  0.00    +0.000 A 
ENDROOT
BRANCH   3  11
ATOM     11  C   UNL     1      31.939  24.787  24.951  0.00  0.00    +0.000 A 
ATOM     12  C   UNL     1      32.991  23.955  24.637  0.00  0.00    +0.000 A 
ATOM     13  C   UNL     1      34.282  24.431  24.590  0.00  0.00    +0.000 A 
ATOM     14  C   UNL     1      34.561  25.741  24.855  0.00  0.00    +0.000 A 
ATOM     15  C   UNL     1      33.530  26.597  25.173  0.00  0.00    +0.000 A 
ATOM     16  C   UNL     1      32.244  26.104  25.215  0.00  0.00    +0.000 A 
ENDBRANCH   3  11
BRANCH   1  18
ATOM     17  C   UNL     1      26.892  24.568  27.416  0.00  0.00    +0.000 C 
ATOM     18  C   UNL     1      27.508  23.366  26.760  0.00  0.00    +0.000 C 
ATOM     19  C   UNL     1      27.927  22.309  27.749  0.00  0.00    +0.000 C 
ENDBRANCH   1  18
TORSDOF 2
ENDMDL
MODEL 10
REMARK VINA RESULT:      -5.8     17.850     19.291
REMARK  Name = 
REMARK  2 active torsions:
REMARK  status: ('A' for Active; 'I' for Inactive)
REMARK    1  A    between atoms: C_2  and  N_4
REMARK    2  A    between atoms: C_6  and  C_7
REMARK                            x       y       z     vdW  Elec       q    Type
REMARK                         _______ _______ _______ _____ _____    ______ ____
ROOT
ATOM      1  N   UNL     1      27.659  22.919  28.956  0.00  0.00    +0.000 N 
ATOM      2  C   UNL     1      27.063  23.070  27.743  0.00  0.00    +0.000 A 
ATOM      3  C   UNL     1      28.033  23.038  26.765  0.00  0.00    +0.000 A 
ATOM      4  C   UNL     1      29.227  22.863  27.433  0.00  0.00    +0.000 A 
ATOM      5  N   UNL     1      30.488  22.759  27.017  0.00  0.00    +0.000 NA
ATOM      6  C   UNL     1      31.511  22.586  27.895  0.00  0.00    +0.000 A 
ATOM      7  N   UNL     1      31.280  22.516  29.201  0.00  0.00    +0.000 NA
ATOM      8  C   UNL     1      30.034  22.611  29.704  0.00  0.00    +0.000 A 
ATOM      9  N   UNL     1      29.794  22.535  31.103  0.00  0.00    +0.000 NA
ATOM     10  C   UNL     1      28.990  22.789  28.797  0.00  0.00    +0.000 A 
ENDROOT
BRANCH   3  11
ATOM     11  C   UNL     1      27.788  23.169  25.336  0.00  0.00    +0.000 A 
ATOM     12  C   UNL     1      28.782  23.254  24.387  0.00  0.00    +0.000 A 
ATOM     13  C   UNL     1      28.477  23.376  23.050  0.00  0.00    +0.000 A 
ATOM     14  C   UNL     1      27.181  23.418  22.623  0.00  0.00    +0.000 A 
ATOM     15  C   UNL     1      26.165  23.335  23.549  0.00  0.00    +0.000 A 
ATOM     16  C   UNL     1      26.487  23.213  24.882  0.00  0.00    +0.000 A 
ENDBRANCH   3  11
BRANCH   1  18
ATOM     17  C   UNL     1      26.289  21.606  30.510  0.00  0.00    +0.000 C 
ATOM     18  C   UNL     1      27.026  22.891  30.263  0.00  0.00    +0.000 C 
ATOM     19  C   UNL     1      26.176  24.111  30.504  0.00  0.00    +0.000 C 
ENDBRANCH   1  18
TORSDOF 2
ENDMDL
