MODEL 1
REMARK VINA RESULT:      -6.3      0.000      0.000
REMARK  Name = 
REMARK  1 active torsions:
REMARK  status: ('A' for Active; 'I' for Inactive)
REMARK    1  A    between atoms: C_7  and  C_8
REMARK                            x       y       z     vdW  Elec       q    Type
REMARK                         _______ _______ _______ _____ _____    ______ ____
ROOT
ATOM      1  C   UNL     1      33.711  -0.390  39.843  0.00  0.00    +0.000 C 
ATOM      2  N   UNL     1      33.919   0.839  39.113  0.00  0.00    +0.000 N 
ATOM      3  N   UNL     1      34.239   2.040  39.608  0.00  0.00    +0.000 NA
ATOM      4  C   UNL     1      34.347   2.922  38.627  0.00  0.00    +0.000 A 
ATOM      5  O   UNL     1      34.657   4.288  38.633  0.00  0.00    +0.000 OA
ATOM      6  C   UNL     1      34.079   2.226  37.472  0.00  0.00    +0.000 A 
ATOM      7  C   UNL     1      34.050   2.615  36.126  0.00  0.00    +0.000 A 
ATOM      8  C   UNL     1      33.746   1.658  35.151  0.00  0.00    +0.000 A 
ATOM      9  C   UNL     1      33.655   1.814  33.783  0.00  0.00    +0.000 A 
ATOM     10  O   UNL     1      33.865   3.015  33.100  0.00  0.00    +0.000 OA
ATOM     11  N   UNL     1      33.340   0.593  33.330  0.00  0.00    +0.000 NA
ATOM     12  N   UNL     1      33.232  -0.271  34.322  0.00  0.00    +0.000 N 
ATOM     13  C   UNL     1      32.895  -1.705  34.219  0.00  0.00    +0.000 C 
ATOM     14  C   UNL     1      33.479   0.348  35.484  0.00  0.00    +0.000 A 
ATOM     15  N   UNL     1      33.516   0.009  36.784  0.00  0.00    +0.000 NA
ATOM     16  C   UNL     1      33.805   0.902  37.754  0.00  0.00    +0.000 A 
ENDROOT
BRANCH   7  17
ATOM     17  C   UNL     1      34.333   3.991  35.795  0.00  0.00    +0.000 A 
ATOM     18  C   UNL     1      33.377   4.951  35.648  0.00  0.00    +0.000 A 
ATOM     19  C   UNL     1      33.677   6.256  35.354  0.00  0.00    +0.000 A 
ATOM     20  C   UNL     1      34.991   6.624  35.194  0.00  0.00    +0.000 A 
ATOM     21  C   UNL     1      35.983   5.694  35.332  0.00  0.00    +0.000 A 
ATOM     22  C   UNL     1      35.636   4.396  35.630  0.00  0.00    +0.000 A 
ENDBRANCH   7  17
TORSDOF 1
ENDMDL
MODEL 2
REMARK VINA RESULT:      -6.3     22.214     24.843
REMARK  Name = 
REMARK  1 active torsions:
REMARK  status: ('A' for Active; 'I' for Inactive)
REMARK    1  A    between atoms: C_7  and  C_8
REMARK                            x       y       z     vdW  Elec       q    Type
REMARK                         _______ _______ _______ _____ _____    ______ ____
ROOT
ATOM      1  C   UNL     1      26.064  23.392  29.771  0.00  0.00    +0.000 C 
ATOM      2  N   UNL     1      26.189  23.721  28.370  0.00  0.00    +0.000 N 
ATOM      3  N   UNL     1      25.257  24.247  27.567  0.00  0.00    +0.000 NA
ATOM      4  C   UNL     1      25.747  24.408  26.347  0.00  0.00    +0.000 A 
ATOM      5  O   UNL     1      25.173  24.912  25.173  0.00  0.00    +0.000 OA
ATOM      6  C   UNL     1      27.044  23.957  26.406  0.00  0.00    +0.000 A 
ATOM      7  C   UNL     1      28.058  23.884  25.441  0.00  0.00    +0.000 A 
ATOM      8  C   UNL     1      29.307  23.373  25.810  0.00  0.00    +0.000 A 
ATOM      9  C   UNL     1      30.437  23.205  25.036  0.00  0.00    +0.000 A 
ATOM     10  O   UNL     1      30.533  23.535  23.681  0.00  0.00    +0.000 OA
ATOM     11  N   UNL     1      31.341  22.683  25.876  0.00  0.00    +0.000 NA
ATOM     12  N   UNL     1      30.834  22.526  27.084  0.00  0.00    +0.000 N 
ATOM     13  C   UNL     1      31.520  21.978  28.272  0.00  0.00    +0.000 C 
ATOM     14  C   UNL     1      29.562  22.945  27.094  0.00  0.00    +0.000 A 
ATOM     15  N   UNL     1      28.567  23.030  27.995  0.00  0.00    +0.000 NA
ATOM     16  C   UNL     1      27.349  23.516  27.680  0.00  0.00    +0.000 A 
ENDROOT
BRANCH   7  17
ATOM     17  C   UNL     1      27.774  24.338  24.101  0.00  0.00    +0.000 A 
ATOM     18  C   UNL     1      27.978  25.615  23.672  0.00  0.00    +0.000 A 
ATOM     19  C   UNL     1      27.718  26.015  22.385  0.00  0.00    +0.000 A 
ATOM     20  C   UNL     1      27.228  25.100  21.485  0.00  0.00    +0.000 A 
ATOM     21  C   UNL     1      27.007  23.808  21.872  0.00  0.00    +0.000 A 
ATOM     22  C   UNL     1      27.285  23.452  23.172  0.00  0.00    +0.000 A 
ENDBRANCH   7  17
TORSDOF 1
ENDMDL
MODEL 3
REMARK VINA RESULT:      -6.2     32.627     34.171
REMARK  Name = 
REMARK  1 active torsions:
REMARK  status: ('A' for Active; 'I' for Inactive)
REMARK    1  A    between atoms: C_7  and  C_8
REMARK                            x       y       z     vdW  Elec       q    Type
REMARK                         _______ _______ _______ _____ _____    ______ ____
ROOT
ATOM      1  C   UNL     1      15.408  25.654  21.859  0.00  0.00    +0.000 C 
ATOM      2  N   UNL     1      14.516  24.569  21.516  0.00  0.00    +0.000 N 
ATOM      3  N   UNL     1      14.754  23.545  20.689  0.00  0.00    +0.000 NA
ATOM      4  C   UNL     1      13.695  22.753  20.631  0.00  0.00    +0.000 A 
ATOM      5  O   UNL     1      13.455  21.572  19.917  0.00  0.00    +0.000 OA
ATOM      6  C   UNL     1      12.761  23.321  21.464  0.00  0.00    +0.000 A 
ATOM      7  C   UNL     1      11.460  22.937  21.817  0.00  0.00    +0.000 A 
ATOM      8  C   UNL     1      10.740  23.732  22.716  0.00  0.00    +0.000 A 
ATOM      9  C   UNL     1       9.459  23.554  23.196  0.00  0.00    +0.000 A 
ATOM     10  O   UNL     1       8.617  22.493  22.850  0.00  0.00    +0.000 OA
ATOM     11  N   UNL     1       9.265  24.593  24.019  0.00  0.00    +0.000 NA
ATOM     12  N   UNL     1      10.328  25.373  24.061  0.00  0.00    +0.000 N 
ATOM     13  C   UNL     1      10.492  26.612  24.848  0.00  0.00    +0.000 C 
ATOM     14  C   UNL     1      11.281  24.875  23.262  0.00  0.00    +0.000 A 
ATOM     15  N   UNL     1      12.532  25.214  22.903  0.00  0.00    +0.000 NA
ATOM     16  C   UNL     1      13.258  24.475  22.038  0.00  0.00    +0.000 A 
ENDROOT
BRANCH   7  17
ATOM     17  C   UNL     1      10.910  21.735  21.237  0.00  0.00    +0.000 A 
ATOM     18  C   UNL     1      10.139  21.717  20.114  0.00  0.00    +0.000 A 
ATOM     19  C   UNL     1       9.646  20.557  19.572  0.00  0.00    +0.000 A 
ATOM     20  C   UNL     1       9.931  19.359  20.180  0.00  0.00    +0.000 A 
ATOM     21  C   UNL     1      10.701  19.329  21.310  0.00  0.00    +0.000 A 
ATOM     22  C   UNL     1      11.176  20.518  21.816  0.00  0.00    +0.000 A 
ENDBRANCH   7  17
TORSDOF 1
ENDMDL
MODEL 4
REMARK VINA RESULT:      -6.2     32.621     34.115
REMARK  Name = 
REMARK  1 active torsions:
REMARK  status: ('A' for Active; 'I' for Inactive)
REMARK    1  A    between atoms: C_7  and  C_8
REMARK                            x       y       z     vdW  Elec       q    Type
REMARK                         _______ _______ _______ _____ _____    ______ ____
ROOT
ATOM      1  C   UNL     1      10.355  26.578  24.714  0.00  0.00    +0.000 C 
ATOM      2  N   UNL     1      10.216  25.346  23.973  0.00  0.00    +0.000 N 
ATOM      3  N   UNL     1       9.159  24.527  23.939  0.00  0.00    +0.000 NA
ATOM      4  C   UNL     1       9.406  23.498  23.143  0.00  0.00    +0.000 A 
ATOM      5  O   UNL     1       8.628  22.390  22.786  0.00  0.00    +0.000 OA
ATOM      6  C   UNL     1      10.681  23.697  22.666  0.00  0.00    +0.000 A 
ATOM      7  C   UNL     1      11.480  22.956  21.785  0.00  0.00    +0.000 A 
ATOM      8  C   UNL     1      12.761  23.427  21.475  0.00  0.00    +0.000 A 
ATOM      9  C   UNL     1      13.713  22.867  20.647  0.00  0.00    +0.000 A 
ATOM     10  O   UNL     1      13.551  21.674  19.938  0.00  0.00    +0.000 OA
ATOM     11  N   UNL     1      14.746  23.717  20.707  0.00  0.00    +0.000 NA
ATOM     12  N   UNL     1      14.483  24.733  21.507  0.00  0.00    +0.000 N 
ATOM     13  C   UNL     1      15.374  25.866  21.829  0.00  0.00    +0.000 C 
ATOM     14  C   UNL     1      13.250  24.597  22.013  0.00  0.00    +0.000 A 
ATOM     15  N   UNL     1      12.456  25.283  22.854  0.00  0.00    +0.000 NA
ATOM     16  C   UNL     1      11.216  24.863  23.178  0.00  0.00    +0.000 A 
ENDROOT
BRANCH   7  17
ATOM     17  C   UNL     1      10.951  21.733  21.230  0.00  0.00    +0.000 A 
ATOM     18  C   UNL     1      10.185  21.677  20.105  0.00  0.00    +0.000 A 
ATOM     19  C   UNL     1       9.712  20.498  19.588  0.00  0.00    +0.000 A 
ATOM     20  C   UNL     1      10.013  19.318  20.225  0.00  0.00    +0.000 A 
ATOM     21  C   UNL     1      10.778  19.327  21.358  0.00  0.00    +0.000 A 
ATOM     22  C   UNL     1      11.232  20.534  21.838  0.00  0.00    +0.000 A 
ENDBRANCH   7  17
TORSDOF 1
ENDMDL
MODEL 5
REMARK VINA RESULT:      -6.1     25.614     28.449
REMARK  Name = 
REMARK  1 active torsions:
REMARK  status: ('A' for Active; 'I' for Inactive)
REMARK    1  A    between atoms: C_7  and  C_8
REMARK                            x       y       z     vdW  Elec       q    Type
REMARK                         _______ _______ _______ _____ _____    ______ ____
ROOT
ATOM      1  C   UNL     1      26.425  30.541  22.019  0.00  0.00    +0.000 C 
ATOM      2  N   UNL     1      26.422  29.264  22.695  0.00  0.00    +0.000 N 
ATOM      3  N   UNL     1      25.726  28.916  23.784  0.00  0.00    +0.000 NA
ATOM      4  C   UNL     1      25.984  27.658  24.105  0.00  0.00    +0.000 A 
ATOM      5  O   UNL     1      25.512  26.848  25.145  0.00  0.00    +0.000 OA
ATOM      6  C   UNL     1      26.884  27.212  23.166  0.00  0.00    +0.000 A 
ATOM      7  C   UNL     1      27.511  25.973  22.979  0.00  0.00    +0.000 A 
ATOM      8  C   UNL     1      28.392  25.816  21.903  0.00  0.00    +0.000 A 
ATOM      9  C   UNL     1      29.118  24.702  21.533  0.00  0.00    +0.000 A 
ATOM     10  O   UNL     1      29.094  23.475  22.203  0.00  0.00    +0.000 OA
ATOM     11  N   UNL     1      29.792  25.091  20.443  0.00  0.00    +0.000 NA
ATOM     12  N   UNL     1      29.526  26.348  20.141  0.00  0.00    +0.000 N 
ATOM     13  C   UNL     1      30.078  27.128  19.015  0.00  0.00    +0.000 C 
ATOM     14  C   UNL     1      28.652  26.846  21.026  0.00  0.00    +0.000 A 
ATOM     15  N   UNL     1      28.033  28.021  21.234  0.00  0.00    +0.000 NA
ATOM     16  C   UNL     1      27.177  28.214  22.259  0.00  0.00    +0.000 A 
ENDROOT
BRANCH   7  17
ATOM     17  C   UNL     1      27.226  24.905  23.906  0.00  0.00    +0.000 A 
ATOM     18  C   UNL     1      27.936  24.678  25.047  0.00  0.00    +0.000 A 
ATOM     19  C   UNL     1      27.630  23.667  25.922  0.00  0.00    +0.000 A 
ATOM     20  C   UNL     1      26.568  22.840  25.646  0.00  0.00    +0.000 A 
ATOM     21  C   UNL     1      25.828  23.030  24.512  0.00  0.00    +0.000 A 
ATOM     22  C   UNL     1      26.171  24.059  23.665  0.00  0.00    +0.000 A 
ENDBRANCH   7  17
TORSDOF 1
ENDMDL
MODEL 6
REMARK VINA RESULT:      -6.0     19.674     20.879
REMARK  Name = 
REMARK  1 active torsions:
REMARK  status: ('A' for Active; 'I' for Inactive)
REMARK    1  A    between atoms: C_7  and  C_8
REMARK                            x       y       z     vdW  Elec       q    Type
REMARK                         _______ _______ _______ _____ _____    ______ ____
ROOT
ATOM      1  C   UNL     1      27.227  -0.986  15.750  0.00  0.00    +0.000 C 
ATOM      2  N   UNL     1      27.335   0.408  16.112  0.00  0.00    +0.000 N 
ATOM      3  N   UNL     1      28.411   1.198  16.015  0.00  0.00    +0.000 NA
ATOM      4  C   UNL     1      28.121   2.416  16.443  0.00  0.00    +0.000 A 
ATOM      5  O   UNL     1      28.897   3.578  16.540  0.00  0.00    +0.000 OA
ATOM      6  C   UNL     1      26.800   2.371  16.823  0.00  0.00    +0.000 A 
ATOM      7  C   UNL     1      25.938   3.346  17.342  0.00  0.00    +0.000 A 
ATOM      8  C   UNL     1      24.614   2.995  17.630  0.00  0.00    +0.000 A 
ATOM      9  C   UNL     1      23.603   3.780  18.147  0.00  0.00    +0.000 A 
ATOM     10  O   UNL     1      23.734   5.129  18.486  0.00  0.00    +0.000 OA
ATOM     11  N   UNL     1      22.550   2.955  18.223  0.00  0.00    +0.000 NA
ATOM     12  N   UNL     1      22.859   1.745  17.796  0.00  0.00    +0.000 N 
ATOM     13  C   UNL     1      21.967   0.570  17.732  0.00  0.00    +0.000 C 
ATOM     14  C   UNL     1      24.142   1.720  17.413  0.00  0.00    +0.000 A 
ATOM     15  N   UNL     1      24.995   0.809  16.913  0.00  0.00    +0.000 NA
ATOM     16  C   UNL     1      26.279   1.107  16.622  0.00  0.00    +0.000 A 
ENDROOT
BRANCH   7  17
ATOM     17  C   UNL     1      26.450   4.678  17.562  0.00  0.00    +0.000 A 
ATOM     18  C   UNL     1      27.059   5.078  18.714  0.00  0.00    +0.000 A 
ATOM     19  C   UNL     1      27.555   6.345  18.888  0.00  0.00    +0.000 A 
ATOM     20  C   UNL     1      27.435   7.258  17.870  0.00  0.00    +0.000 A 
ATOM     21  C   UNL     1      26.830   6.901  16.697  0.00  0.00    +0.000 A 
ATOM     22  C   UNL     1      26.350   5.618  16.566  0.00  0.00    +0.000 A 
ENDBRANCH   7  17
TORSDOF 1
ENDMDL
MODEL 7
REMARK VINA RESULT:      -6.0     22.938     25.551
REMARK  Name = 
REMARK  1 active torsions:
REMARK  status: ('A' for Active; 'I' for Inactive)
REMARK    1  A    between atoms: C_7  and  C_8
REMARK                            x       y       z     vdW  Elec       q    Type
REMARK                         _______ _______ _______ _____ _____    ______ ____
ROOT
ATOM      1  C   UNL     1      27.807  22.607  30.505  0.00  0.00    +0.000 C 
ATOM      2  N   UNL     1      27.669  22.809  29.080  0.00  0.00    +0.000 N 
ATOM      3  N   UNL     1      28.363  22.219  28.100  0.00  0.00    +0.000 NA
ATOM      4  C   UNL     1      27.950  22.660  26.922  0.00  0.00    +0.000 A 
ATOM      5  O   UNL     1      28.358  22.352  25.618  0.00  0.00    +0.000 OA
ATOM      6  C   UNL     1      26.953  23.567  27.195  0.00  0.00    +0.000 A 
ATOM      7  C   UNL     1      26.140  24.348  26.362  0.00  0.00    +0.000 A 
ATOM      8  C   UNL     1      25.186  25.190  26.945  0.00  0.00    +0.000 A 
ATOM      9  C   UNL     1      24.291  26.042  26.329  0.00  0.00    +0.000 A 
ATOM     10  O   UNL     1      24.177  26.216  24.947  0.00  0.00    +0.000 OA
ATOM     11  N   UNL     1      23.619  26.605  27.342  0.00  0.00    +0.000 NA
ATOM     12  N   UNL     1      24.047  26.157  28.507  0.00  0.00    +0.000 N 
ATOM     13  C   UNL     1      23.554  26.544  29.844  0.00  0.00    +0.000 C 
ATOM     14  C   UNL     1      25.028  25.267  28.311  0.00  0.00    +0.000 A 
ATOM     15  N   UNL     1      25.825  24.504  29.080  0.00  0.00    +0.000 NA
ATOM     16  C   UNL     1      26.756  23.679  28.558  0.00  0.00    +0.000 A 
ENDROOT
BRANCH   7  17
ATOM     17  C   UNL     1      26.318  24.254  24.933  0.00  0.00    +0.000 A 
ATOM     18  C   UNL     1      27.180  25.033  24.221  0.00  0.00    +0.000 A 
ATOM     19  C   UNL     1      27.344  24.908  22.865  0.00  0.00    +0.000 A 
ATOM     20  C   UNL     1      26.612  23.965  22.185  0.00  0.00    +0.000 A 
ATOM     21  C   UNL     1      25.734  23.162  22.858  0.00  0.00    +0.000 A 
ATOM     22  C   UNL     1      25.605  23.322  24.219  0.00  0.00    +0.000 A 
ENDBRANCH   7  17
TORSDOF 1
ENDMDL
MODEL 8
REMARK VINA RESULT:      -6.0     20.118     22.703
REMARK  Name = 
REMARK  1 active torsions:
REMARK  status: ('A' for Active; 'I' for Inactive)
REMARK    1  A    between atoms: C_7  and  C_8
REMARK                            x       y       z     vdW  Elec       q    Type
REMARK                         _______ _______ _______ _____ _____    ______ ____
ROOT
ATOM      1  C   UNL     1      22.685   3.401  11.975  0.00  0.00    +0.000 C 
ATOM      2  N   UNL     1      23.647   3.943  12.908  0.00  0.00    +0.000 N 
ATOM      3  N   UNL     1      24.664   4.771  12.646  0.00  0.00    +0.000 NA
ATOM      4  C   UNL     1      25.323   5.049  13.760  0.00  0.00    +0.000 A 
ATOM      5  O   UNL     1      26.444   5.853  14.002  0.00  0.00    +0.000 OA
ATOM      6  C   UNL     1      24.677   4.354  14.756  0.00  0.00    +0.000 A 
ATOM      7  C   UNL     1      24.905   4.260  16.135  0.00  0.00    +0.000 A 
ATOM      8  C   UNL     1      24.054   3.461  16.908  0.00  0.00    +0.000 A 
ATOM      9  C   UNL     1      24.091   3.219  18.267  0.00  0.00    +0.000 A 
ATOM     10  O   UNL     1      25.031   3.759  19.148  0.00  0.00    +0.000 OA
ATOM     11  N   UNL     1      23.059   2.393  18.485  0.00  0.00    +0.000 NA
ATOM     12  N   UNL     1      22.417   2.126  17.363  0.00  0.00    +0.000 N 
ATOM     13  C   UNL     1      21.235   1.256  17.201  0.00  0.00    +0.000 C 
ATOM     14  C   UNL     1      23.002   2.772  16.346  0.00  0.00    +0.000 A 
ATOM     15  N   UNL     1      22.812   2.886  15.020  0.00  0.00    +0.000 NA
ATOM     16  C   UNL     1      23.610   3.644  14.240  0.00  0.00    +0.000 A 
ENDROOT
BRANCH   7  17
ATOM     17  C   UNL     1      26.011   4.989  16.707  0.00  0.00    +0.000 A 
ATOM     18  C   UNL     1      27.272   4.488  16.825  0.00  0.00    +0.000 A 
ATOM     19  C   UNL     1      28.311   5.212  17.355  0.00  0.00    +0.000 A 
ATOM     20  C   UNL     1      28.081   6.495  17.790  0.00  0.00    +0.000 A 
ATOM     21  C   UNL     1      26.830   7.038  17.691  0.00  0.00    +0.000 A 
ATOM     22  C   UNL     1      25.820   6.275  17.151  0.00  0.00    +0.000 A 
ENDBRANCH   7  17
TORSDOF 1
ENDMDL
MODEL 9
REMARK VINA RESULT:      -6.0     23.008     25.646
REMARK  Name = 
REMARK  1 active torsions:
REMARK  status: ('A' for Active; 'I' for Inactive)
REMARK    1  A    between atoms: C_7  and  C_8
REMARK                            x       y       z     vdW  Elec       q    Type
REMARK                         _______ _______ _______ _____ _____    ______ ____
ROOT
ATOM      1  C   UNL     1      23.431  26.547  29.609  0.00  0.00    +0.000 C 
ATOM      2  N   UNL     1      23.933  26.180  28.305  0.00  0.00    +0.000 N 
ATOM      3  N   UNL     1      23.532  26.642  27.115  0.00  0.00    +0.000 NA
ATOM      4  C   UNL     1      24.232  26.071  26.147  0.00  0.00    +0.000 A 
ATOM      5  O   UNL     1      24.187  26.218  24.755  0.00  0.00    +0.000 OA
ATOM      6  C   UNL     1      25.104  25.214  26.776  0.00  0.00    +0.000 A 
ATOM      7  C   UNL     1      26.092  24.351  26.283  0.00  0.00    +0.000 A 
ATOM      8  C   UNL     1      26.843  23.595  27.190  0.00  0.00    +0.000 A 
ATOM      9  C   UNL     1      27.851  22.687  26.935  0.00  0.00    +0.000 A 
ATOM     10  O   UNL     1      28.321  22.353  25.662  0.00  0.00    +0.000 OA
ATOM     11  N   UNL     1      28.224  22.255  28.147  0.00  0.00    +0.000 NA
ATOM     12  N   UNL     1      27.514  22.833  29.098  0.00  0.00    +0.000 N 
ATOM     13  C   UNL     1      27.630  22.611  30.554  0.00  0.00    +0.000 C 
ATOM     14  C   UNL     1      26.635  23.682  28.549  0.00  0.00    +0.000 A 
ATOM     15  N   UNL     1      25.680  24.520  28.987  0.00  0.00    +0.000 NA
ATOM     16  C   UNL     1      24.934  25.266  28.146  0.00  0.00    +0.000 A 
ENDROOT
BRANCH   7  17
ATOM     17  C   UNL     1      26.297  24.274  24.857  0.00  0.00    +0.000 A 
ATOM     18  C   UNL     1      27.140  25.090  24.164  0.00  0.00    +0.000 A 
ATOM     19  C   UNL     1      27.331  24.981  22.810  0.00  0.00    +0.000 A 
ATOM     20  C   UNL     1      26.648  24.016  22.112  0.00  0.00    +0.000 A 
ATOM     21  C   UNL     1      25.790  23.175  22.765  0.00  0.00    +0.000 A 
ATOM     22  C   UNL     1      25.632  23.320  24.125  0.00  0.00    +0.000 A 
ENDBRANCH   7  17
TORSDOF 1
ENDMDL
MODEL 10
REMARK VINA RESULT:      -5.8     22.666     24.608
REMARK  Name = 
REMARK  1 active torsions:
REMARK  status: ('A' for Active; 'I' for Inactive)
REMARK    1  A    between atoms: C_7  and  C_8
REMARK                            x       y       z     vdW  Elec       q    Type
REMARK                         _______ _______ _______ _____ _____    ______ ____
ROOT
ATOM      1  C   UNL     1      28.631  23.787  21.653  0.00  0.00    +0.000 C 
ATOM      2  N   UNL     1      28.175  23.634  23.015  0.00  0.00    +0.000 N 
ATOM      3  N   UNL     1      26.935  23.362  23.437  0.00  0.00    +0.000 NA
ATOM      4  C   UNL     1      26.909  23.295  24.759  0.00  0.00    +0.000 A 
ATOM      5  O   UNL     1      25.865  23.042  25.657  0.00  0.00    +0.000 OA
ATOM      6  C   UNL     1      28.199  23.540  25.168  0.00  0.00    +0.000 A 
ATOM      7  C   UNL     1      28.788  23.592  26.439  0.00  0.00    +0.000 A 
ATOM      8  C   UNL     1      30.157  23.861  26.539  0.00  0.00    +0.000 A 
ATOM      9  C   UNL     1      30.939  23.964  27.672  0.00  0.00    +0.000 A 
ATOM     10  O   UNL     1      30.473  23.808  28.980  0.00  0.00    +0.000 OA
ATOM     11  N   UNL     1      32.166  24.231  27.205  0.00  0.00    +0.000 NA
ATOM     12  N   UNL     1      32.171  24.298  25.887  0.00  0.00    +0.000 N 
ATOM     13  C   UNL     1      33.331  24.575  25.016  0.00  0.00    +0.000 C 
ATOM     14  C   UNL     1      30.936  24.072  25.422  0.00  0.00    +0.000 A 
ATOM     15  N   UNL     1      30.339  24.014  24.219  0.00  0.00    +0.000 NA
ATOM     16  C   UNL     1      29.021  23.758  24.079  0.00  0.00    +0.000 A 
ENDROOT
BRANCH   7  17
ATOM     17  C   UNL     1      27.957  23.367  27.597  0.00  0.00    +0.000 A 
ATOM     18  C   UNL     1      27.825  22.160  28.215  0.00  0.00    +0.000 A 
ATOM     19  C   UNL     1      27.043  21.980  29.329  0.00  0.00    +0.000 A 
ATOM     20  C   UNL     1      26.359  23.051  29.849  0.00  0.00    +0.000 A 
ATOM     21  C   UNL     1      26.461  24.281  29.260  0.00  0.00    +0.000 A 
ATOM     22  C   UNL     1      27.259  24.415  28.147  0.00  0.00    +0.000 A 
ENDBRANCH   7  17
TORSDOF 1
ENDMDL
