MODEL 1
REMARK VINA RESULT:      -6.2      0.000      0.000
REMARK  Name = 
REMARK  3 active torsions:
REMARK  status: ('A' for Active; 'I' for Inactive)
REMARK    1  A    between atoms: C_2  and  C_4
REMARK    2  A    between atoms: C_5  and  N_6
REMARK    3  A    between atoms: C_7  and  C_8
REMARK                            x       y       z     vdW  Elec       q    Type
REMARK                         _______ _______ _______ _____ _____    ______ ____
ROOT
ATOM      1  C   UNL     1      29.366  25.158  23.051  0.00  0.00    +0.000 A 
ATOM      2  C   UNL     1      30.340  24.758  23.938  0.00  0.00    +0.000 A 
ATOM      3  S   UNL     1      30.391  26.014  25.083  0.00  0.00    +0.000 S 
ATOM      4  C   UNL     1      29.187  27.028  24.429  0.00  0.00    +0.000 A 
ATOM      5  C   UNL     1      28.773  26.348  23.325  0.00  0.00    +0.000 A 
ATOM      6  C   UNL     1      27.681  27.076  22.569  0.00  0.00    +0.000 C 
ATOM      7  C   UNL     1      26.618  27.447  23.548  0.00  0.00    +0.000 C 
ATOM      8  C   UNL     1      27.084  28.339  24.658  0.00  0.00    +0.000 C 
ATOM      9  C   UNL     1      28.585  28.362  24.816  0.00  0.00    +0.000 C 
ENDROOT
BRANCH   1  11
ATOM     10  N   UNL     1      28.003  23.363  21.962  0.00  0.00    +0.000 NA
ATOM     11  C   UNL     1      29.037  24.310  21.906  0.00  0.00    +0.000 C 
ATOM     12  O   UNL     1      29.691  24.431  20.854  0.00  0.00    +0.000 OA
ENDBRANCH   1  11
BRANCH   2  13
ATOM     13  N   UNL     1      31.131  23.575  23.921  0.00  0.00    +0.000 NA
ATOM     14  C   UNL     1      30.919  22.607  24.712  0.00  0.00    +0.000 C 
BRANCH  14  15
ATOM     15  C   UNL     1      29.858  22.638  25.686  0.00  0.00    +0.000 A 
ATOM     16  C   UNL     1      30.218  22.705  27.023  0.00  0.00    +0.000 A 
ATOM     17  C   UNL     1      29.259  22.740  28.037  0.00  0.00    +0.000 A 
ATOM     18  C   UNL     1      27.931  22.707  27.652  0.00  0.00    +0.000 A 
ATOM     19  F   UNL     1      27.001  22.741  28.625  0.00  0.00    +0.000 F 
ATOM     20  C   UNL     1      27.553  22.641  26.318  0.00  0.00    +0.000 A 
ATOM     21  C   UNL     1      28.525  22.608  25.338  0.00  0.00    +0.000 A 
ENDBRANCH  14  15
ENDBRANCH   2  13
TORSDOF 3
ENDMDL
MODEL 2
REMARK VINA RESULT:      -6.0      2.417      2.966
REMARK  Name = 
REMARK  3 active torsions:
REMARK  status: ('A' for Active; 'I' for Inactive)
REMARK    1  A    between atoms: C_2  and  C_4
REMARK    2  A    between atoms: C_5  and  N_6
REMARK    3  A    between atoms: C_7  and  C_8
REMARK                            x       y       z     vdW  Elec       q    Type
REMARK                         _______ _______ _______ _____ _____    ______ ____
ROOT
ATOM      1  C   UNL     1      27.078  24.721  23.351  0.00  0.00    +0.000 A 
ATOM      2  C   UNL     1      26.927  24.506  24.703  0.00  0.00    +0.000 A 
ATOM      3  S   UNL     1      27.180  26.039  25.392  0.00  0.00    +0.000 S 
ATOM      4  C   UNL     1      27.474  26.932  23.970  0.00  0.00    +0.000 A 
ATOM      5  C   UNL     1      27.364  25.997  22.987  0.00  0.00    +0.000 A 
ATOM      6  C   UNL     1      27.591  26.575  21.606  0.00  0.00    +0.000 C 
ATOM      7  C   UNL     1      26.722  27.781  21.468  0.00  0.00    +0.000 C 
ATOM      8  C   UNL     1      26.997  28.859  22.471  0.00  0.00    +0.000 C 
ATOM      9  C   UNL     1      27.790  28.380  23.661  0.00  0.00    +0.000 C 
ENDROOT
BRANCH   1  11
ATOM     10  N   UNL     1      25.674  23.037  22.143  0.00  0.00    +0.000 NA
ATOM     11  C   UNL     1      26.927  23.605  22.419  0.00  0.00    +0.000 C 
ATOM     12  O   UNL     1      27.938  23.146  21.855  0.00  0.00    +0.000 OA
ENDBRANCH   1  11
BRANCH   2  13
ATOM     13  N   UNL     1      26.628  23.293  25.385  0.00  0.00    +0.000 NA
ATOM     14  C   UNL     1      27.531  22.554  25.882  0.00  0.00    +0.000 C 
BRANCH  14  15
ATOM     15  C   UNL     1      28.928  22.896  25.790  0.00  0.00    +0.000 A 
ATOM     16  C   UNL     1      29.491  23.581  26.856  0.00  0.00    +0.000 A 
ATOM     17  C   UNL     1      30.837  23.953  26.855  0.00  0.00    +0.000 A 
ATOM     18  C   UNL     1      31.587  23.608  25.746  0.00  0.00    +0.000 A 
ATOM     19  F   UNL     1      32.886  23.964  25.739  0.00  0.00    +0.000 F 
ATOM     20  C   UNL     1      31.040  22.922  24.671  0.00  0.00    +0.000 A 
ATOM     21  C   UNL     1      29.705  22.567  24.701  0.00  0.00    +0.000 A 
ENDBRANCH  14  15
ENDBRANCH   2  13
TORSDOF 3
ENDMDL
MODEL 3
REMARK VINA RESULT:      -5.8      2.222      4.194
REMARK  Name = 
REMARK  3 active torsions:
REMARK  status: ('A' for Active; 'I' for Inactive)
REMARK    1  A    between atoms: C_2  and  C_4
REMARK    2  A    between atoms: C_5  and  N_6
REMARK    3  A    between atoms: C_7  and  C_8
REMARK                            x       y       z     vdW  Elec       q    Type
REMARK                         _______ _______ _______ _____ _____    ______ ____
ROOT
ATOM      1  C   UNL     1      29.635  24.967  23.531  0.00  0.00    +0.000 A 
ATOM      2  C   UNL     1      29.013  26.179  23.729  0.00  0.00    +0.000 A 
ATOM      3  S   UNL     1      29.821  26.839  25.072  0.00  0.00    +0.000 S 
ATOM      4  C   UNL     1      30.930  25.580  25.368  0.00  0.00    +0.000 A 
ATOM      5  C   UNL     1      30.636  24.671  24.398  0.00  0.00    +0.000 A 
ATOM      6  C   UNL     1      31.517  23.441  24.467  0.00  0.00    +0.000 C 
ATOM      7  C   UNL     1      32.936  23.899  24.531  0.00  0.00    +0.000 C 
ATOM      8  C   UNL     1      33.255  24.762  25.713  0.00  0.00    +0.000 C 
ATOM      9  C   UNL     1      32.030  25.338  26.380  0.00  0.00    +0.000 C 
ENDROOT
BRANCH   1  11
ATOM     10  N   UNL     1      29.604  24.320  21.113  0.00  0.00    +0.000 NA
ATOM     11  C   UNL     1      29.199  24.099  22.438  0.00  0.00    +0.000 C 
ATOM     12  O   UNL     1      28.448  23.139  22.690  0.00  0.00    +0.000 OA
ENDBRANCH   1  11
BRANCH   2  13
ATOM     13  N   UNL     1      27.943  26.764  22.994  0.00  0.00    +0.000 NA
ATOM     14  C   UNL     1      26.739  26.701  23.384  0.00  0.00    +0.000 C 
BRANCH  14  15
ATOM     15  C   UNL     1      26.369  26.031  24.606  0.00  0.00    +0.000 A 
ATOM     16  C   UNL     1      26.072  24.679  24.529  0.00  0.00    +0.000 A 
ATOM     17  C   UNL     1      25.704  23.947  25.659  0.00  0.00    +0.000 A 
ATOM     18  C   UNL     1      25.650  24.628  26.862  0.00  0.00    +0.000 A 
ATOM     19  F   UNL     1      25.297  23.927  27.957  0.00  0.00    +0.000 F 
ATOM     20  C   UNL     1      25.946  25.980  26.957  0.00  0.00    +0.000 A 
ATOM     21  C   UNL     1      26.306  26.677  25.821  0.00  0.00    +0.000 A 
ENDBRANCH  14  15
ENDBRANCH   2  13
TORSDOF 3
ENDMDL
MODEL 4
REMARK VINA RESULT:      -5.7      2.428      4.201
REMARK  Name = 
REMARK  3 active torsions:
REMARK  status: ('A' for Active; 'I' for Inactive)
REMARK    1  A    between atoms: C_2  and  C_4
REMARK    2  A    between atoms: C_5  and  N_6
REMARK    3  A    between atoms: C_7  and  C_8
REMARK                            x       y       z     vdW  Elec       q    Type
REMARK                         _______ _______ _______ _____ _____    ______ ____
ROOT
ATOM      1  C   UNL     1      29.498  24.153  23.426  0.00  0.00    +0.000 A 
ATOM      2  C   UNL     1      28.453  23.322  23.763  0.00  0.00    +0.000 A 
ATOM      3  S   UNL     1      28.905  22.689  25.275  0.00  0.00    +0.000 S 
ATOM      4  C   UNL     1      30.404  23.477  25.462  0.00  0.00    +0.000 A 
ATOM      5  C   UNL     1      30.510  24.221  24.327  0.00  0.00    +0.000 A 
ATOM      6  C   UNL     1      31.793  25.023  24.275  0.00  0.00    +0.000 C 
ATOM      7  C   UNL     1      31.919  25.767  25.562  0.00  0.00    +0.000 C 
ATOM      8  C   UNL     1      31.971  24.894  26.778  0.00  0.00    +0.000 C 
ATOM      9  C   UNL     1      31.482  23.488  26.526  0.00  0.00    +0.000 C 
ENDROOT
BRANCH   1  11
ATOM     10  N   UNL     1      29.129  26.250  22.110  0.00  0.00    +0.000 NA
ATOM     11  C   UNL     1      29.460  24.888  22.162  0.00  0.00    +0.000 C 
ATOM     12  O   UNL     1      29.729  24.288  21.104  0.00  0.00    +0.000 OA
ENDBRANCH   1  11
BRANCH   2  13
ATOM     13  N   UNL     1      27.263  23.044  23.033  0.00  0.00    +0.000 NA
ATOM     14  C   UNL     1      26.135  23.514  23.371  0.00  0.00    +0.000 C 
BRANCH  14  15
ATOM     15  C   UNL     1      25.980  24.366  24.523  0.00  0.00    +0.000 A 
ATOM     16  C   UNL     1      26.262  25.714  24.364  0.00  0.00    +0.000 A 
ATOM     17  C   UNL     1      26.141  26.615  25.424  0.00  0.00    +0.000 A 
ATOM     18  C   UNL     1      25.725  26.106  26.641  0.00  0.00    +0.000 A 
ATOM     19  F   UNL     1      25.606  26.970  27.667  0.00  0.00    +0.000 F 
ATOM     20  C   UNL     1      25.438  24.760  26.817  0.00  0.00    +0.000 A 
ATOM     21  C   UNL     1      25.567  23.893  25.750  0.00  0.00    +0.000 A 
ENDBRANCH  14  15
ENDBRANCH   2  13
TORSDOF 3
ENDMDL
MODEL 5
REMARK VINA RESULT:      -5.7      2.665      4.849
REMARK  Name = 
REMARK  3 active torsions:
REMARK  status: ('A' for Active; 'I' for Inactive)
REMARK    1  A    between atoms: C_2  and  C_4
REMARK    2  A    between atoms: C_5  and  N_6
REMARK    3  A    between atoms: C_7  and  C_8
REMARK                            x       y       z     vdW  Elec       q    Type
REMARK                         _______ _______ _______ _____ _____    ______ ____
ROOT
ATOM      1  C   UNL     1      28.462  23.283  24.224  0.00  0.00    +0.000 A 
ATOM      2  C   UNL     1      27.233  23.080  24.810  0.00  0.00    +0.000 A 
ATOM      3  S   UNL     1      27.610  22.446  26.342  0.00  0.00    +0.000 S 
ATOM      4  C   UNL     1      29.310  22.444  26.225  0.00  0.00    +0.000 A 
ATOM      5  C   UNL     1      29.537  22.944  24.980  0.00  0.00    +0.000 A 
ATOM      6  C   UNL     1      31.013  23.035  24.649  0.00  0.00    +0.000 C 
ATOM      7  C   UNL     1      31.690  23.742  25.776  0.00  0.00    +0.000 C 
ATOM      8  C   UNL     1      31.556  23.061  27.103  0.00  0.00    +0.000 C 
ATOM      9  C   UNL     1      30.446  22.038  27.140  0.00  0.00    +0.000 C 
ENDROOT
BRANCH   1  11
ATOM     10  N   UNL     1      28.873  25.174  22.636  0.00  0.00    +0.000 NA
ATOM     11  C   UNL     1      28.538  23.832  22.870  0.00  0.00    +0.000 C 
ATOM     12  O   UNL     1      28.298  23.088  21.901  0.00  0.00    +0.000 OA
ENDBRANCH   1  11
BRANCH   2  13
ATOM     13  N   UNL     1      25.938  23.335  24.278  0.00  0.00    +0.000 NA
ATOM     14  C   UNL     1      25.228  24.313  24.660  0.00  0.00    +0.000 C 
BRANCH  14  15
ATOM     15  C   UNL     1      25.687  25.239  25.665  0.00  0.00    +0.000 A 
ATOM     16  C   UNL     1      25.166  25.105  26.943  0.00  0.00    +0.000 A 
ATOM     17  C   UNL     1      25.552  25.956  27.980  0.00  0.00    +0.000 A 
ATOM     18  C   UNL     1      26.477  26.939  27.680  0.00  0.00    +0.000 A 
ATOM     19  F   UNL     1      26.854  27.763  28.676  0.00  0.00    +0.000 F 
ATOM     20  C   UNL     1      27.009  27.086  26.407  0.00  0.00    +0.000 A 
ATOM     21  C   UNL     1      26.608  26.229  25.401  0.00  0.00    +0.000 A 
ENDBRANCH  14  15
ENDBRANCH   2  13
TORSDOF 3
ENDMDL
MODEL 6
REMARK VINA RESULT:      -5.7      2.338      2.663
REMARK  Name = 
REMARK  3 active torsions:
REMARK  status: ('A' for Active; 'I' for Inactive)
REMARK    1  A    between atoms: C_2  and  C_4
REMARK    2  A    between atoms: C_5  and  N_6
REMARK    3  A    between atoms: C_7  and  C_8
REMARK                            x       y       z     vdW  Elec       q    Type
REMARK                         _______ _______ _______ _____ _____    ______ ____
ROOT
ATOM      1  C   UNL     1      26.834  24.521  24.154  0.00  0.00    +0.000 A 
ATOM      2  C   UNL     1      28.189  24.465  23.919  0.00  0.00    +0.000 A 
ATOM      3  S   UNL     1      28.755  25.987  24.421  0.00  0.00    +0.000 S 
ATOM      4  C   UNL     1      27.278  26.675  24.920  0.00  0.00    +0.000 A 
ATOM      5  C   UNL     1      26.376  25.685  24.678  0.00  0.00    +0.000 A 
ATOM      6  C   UNL     1      24.963  26.081  25.053  0.00  0.00    +0.000 C 
ATOM      7  C   UNL     1      24.994  26.617  26.446  0.00  0.00    +0.000 C 
ATOM      8  C   UNL     1      25.873  27.816  26.628  0.00  0.00    +0.000 C 
ATOM      9  C   UNL     1      26.861  28.009  25.503  0.00  0.00    +0.000 C 
ENDROOT
BRANCH   1  11
ATOM     10  N   UNL     1      25.658  23.038  22.515  0.00  0.00    +0.000 NA
ATOM     11  C   UNL     1      25.996  23.365  23.837  0.00  0.00    +0.000 C 
ATOM     12  O   UNL     1      25.570  22.653  24.765  0.00  0.00    +0.000 OA
ENDBRANCH   1  11
BRANCH   2  13
ATOM     13  N   UNL     1      28.958  23.394  23.382  0.00  0.00    +0.000 NA
ATOM     14  C   UNL     1      29.626  22.604  24.115  0.00  0.00    +0.000 C 
BRANCH  14  15
ATOM     15  C   UNL     1      29.650  22.737  25.550  0.00  0.00    +0.000 A 
ATOM     16  C   UNL     1      30.786  23.289  26.122  0.00  0.00    +0.000 A 
ATOM     17  C   UNL     1      30.900  23.458  27.503  0.00  0.00    +0.000 A 
ATOM     18  C   UNL     1      29.830  23.050  28.279  0.00  0.00    +0.000 A 
ATOM     19  F   UNL     1      29.933  23.210  29.613  0.00  0.00    +0.000 F 
ATOM     20  C   UNL     1      28.685  22.497  27.723  0.00  0.00    +0.000 A 
ATOM     21  C   UNL     1      28.602  22.343  26.354  0.00  0.00    +0.000 A 
ENDBRANCH  14  15
ENDBRANCH   2  13
TORSDOF 3
ENDMDL
MODEL 7
REMARK VINA RESULT:      -5.6     21.017     22.841
REMARK  Name = 
REMARK  3 active torsions:
REMARK  status: ('A' for Active; 'I' for Inactive)
REMARK    1  A    between atoms: C_2  and  C_4
REMARK    2  A    between atoms: C_5  and  N_6
REMARK    3  A    between atoms: C_7  and  C_8
REMARK                            x       y       z     vdW  Elec       q    Type
REMARK                         _______ _______ _______ _____ _____    ______ ____
ROOT
ATOM      1  C   UNL     1      25.652   3.259  15.684  0.00  0.00    +0.000 A 
ATOM      2  C   UNL     1      26.432   4.005  14.829  0.00  0.00    +0.000 A 
ATOM      3  S   UNL     1      27.954   3.250  14.900  0.00  0.00    +0.000 S 
ATOM      4  C   UNL     1      27.589   2.006  16.005  0.00  0.00    +0.000 A 
ATOM      5  C   UNL     1      26.275   2.217  16.290  0.00  0.00    +0.000 A 
ATOM      6  C   UNL     1      25.724   1.207  17.275  0.00  0.00    +0.000 C 
ATOM      7  C   UNL     1      26.078  -0.155  16.779  0.00  0.00    +0.000 C 
ATOM      8  C   UNL     1      27.550  -0.399  16.643  0.00  0.00    +0.000 C 
ATOM      9  C   UNL     1      28.368   0.869  16.633  0.00  0.00    +0.000 C 
ENDROOT
BRANCH   1  11
ATOM     10  N   UNL     1      23.289   3.434  14.876  0.00  0.00    +0.000 NA
ATOM     11  C   UNL     1      24.248   3.618  15.883  0.00  0.00    +0.000 C 
ATOM     12  O   UNL     1      23.896   4.100  16.975  0.00  0.00    +0.000 OA
ENDBRANCH   1  11
BRANCH   2  13
ATOM     13  N   UNL     1      26.070   5.144  14.056  0.00  0.00    +0.000 NA
ATOM     14  C   UNL     1      26.259   6.329  14.466  0.00  0.00    +0.000 C 
BRANCH  14  15
ATOM     15  C   UNL     1      26.856   6.604  15.748  0.00  0.00    +0.000 A 
ATOM     16  C   UNL     1      26.008   6.711  16.840  0.00  0.00    +0.000 A 
ATOM     17  C   UNL     1      26.496   6.975  18.121  0.00  0.00    +0.000 A 
ATOM     18  C   UNL     1      27.864   7.125  18.256  0.00  0.00    +0.000 A 
ATOM     19  F   UNL     1      28.342   7.380  19.490  0.00  0.00    +0.000 F 
ATOM     20  C   UNL     1      28.728   7.020  17.175  0.00  0.00    +0.000 A 
ATOM     21  C   UNL     1      28.215   6.758  15.920  0.00  0.00    +0.000 A 
ENDBRANCH  14  15
ENDBRANCH   2  13
TORSDOF 3
ENDMDL
MODEL 8
REMARK VINA RESULT:      -5.6      2.883      5.371
REMARK  Name = 
REMARK  3 active torsions:
REMARK  status: ('A' for Active; 'I' for Inactive)
REMARK    1  A    between atoms: C_2  and  C_4
REMARK    2  A    between atoms: C_5  and  N_6
REMARK    3  A    between atoms: C_7  and  C_8
REMARK                            x       y       z     vdW  Elec       q    Type
REMARK                         _______ _______ _______ _____ _____    ______ ____
ROOT
ATOM      1  C   UNL     1      29.395  23.854  26.862  0.00  0.00    +0.000 A 
ATOM      2  C   UNL     1      29.405  25.130  26.346  0.00  0.00    +0.000 A 
ATOM      3  S   UNL     1      27.869  25.743  26.740  0.00  0.00    +0.000 S 
ATOM      4  C   UNL     1      27.233  24.384  27.548  0.00  0.00    +0.000 A 
ATOM      5  C   UNL     1      28.250  23.481  27.488  0.00  0.00    +0.000 A 
ATOM      6  C   UNL     1      27.903  22.168  28.158  0.00  0.00    +0.000 C 
ATOM      7  C   UNL     1      27.377  22.476  29.520  0.00  0.00    +0.000 C 
ATOM      8  C   UNL     1      26.151  23.337  29.530  0.00  0.00    +0.000 C 
ATOM      9  C   UNL     1      25.918  24.060  28.225  0.00  0.00    +0.000 C 
ENDROOT
BRANCH   1  11
ATOM     10  N   UNL     1      31.646  23.060  27.617  0.00  0.00    +0.000 NA
ATOM     11  C   UNL     1      30.575  23.002  26.713  0.00  0.00    +0.000 C 
ATOM     12  O   UNL     1      30.630  22.206  25.757  0.00  0.00    +0.000 OA
ENDBRANCH   1  11
BRANCH   2  13
ATOM     13  N   UNL     1      30.447  25.800  25.644  0.00  0.00    +0.000 NA
ATOM     14  C   UNL     1      30.465  25.888  24.380  0.00  0.00    +0.000 C 
BRANCH  14  15
ATOM     15  C   UNL     1      29.426  25.313  23.563  0.00  0.00    +0.000 A 
ATOM     16  C   UNL     1      28.406  26.151  23.140  0.00  0.00    +0.000 A 
ATOM     17  C   UNL     1      27.358  25.683  22.346  0.00  0.00    +0.000 A 
ATOM     18  C   UNL     1      27.379  24.345  21.997  0.00  0.00    +0.000 A 
ATOM     19  F   UNL     1      26.371  23.886  21.230  0.00  0.00    +0.000 F 
ATOM     20  C   UNL     1      28.393  23.492  22.410  0.00  0.00    +0.000 A 
ATOM     21  C   UNL     1      29.416  23.984  23.195  0.00  0.00    +0.000 A 
ENDBRANCH  14  15
ENDBRANCH   2  13
TORSDOF 3
ENDMDL
MODEL 9
REMARK VINA RESULT:      -5.5     33.785     35.974
REMARK  Name = 
REMARK  3 active torsions:
REMARK  status: ('A' for Active; 'I' for Inactive)
REMARK    1  A    between atoms: C_2  and  C_4
REMARK    2  A    between atoms: C_5  and  N_6
REMARK    3  A    between atoms: C_7  and  C_8
REMARK                            x       y       z     vdW  Elec       q    Type
REMARK                         _______ _______ _______ _____ _____    ______ ____
ROOT
ATOM      1  C   UNL     1      17.427 -10.515  28.166  0.00  0.00    +0.000 A 
ATOM      2  C   UNL     1      18.475 -10.307  27.298  0.00  0.00    +0.000 A 
ATOM      3  S   UNL     1      19.770  -9.882  28.315  0.00  0.00    +0.000 S 
ATOM      4  C   UNL     1      18.975  -9.970  29.820  0.00  0.00    +0.000 A 
ATOM      5  C   UNL     1      17.708 -10.334  29.481  0.00  0.00    +0.000 A 
ATOM      6  C   UNL     1      16.802 -10.477  30.687  0.00  0.00    +0.000 C 
ATOM      7  C   UNL     1      17.495 -11.352  31.678  0.00  0.00    +0.000 C 
ATOM      8  C   UNL     1      18.815 -10.824  32.152  0.00  0.00    +0.000 C 
ATOM      9  C   UNL     1      19.382  -9.746  31.261  0.00  0.00    +0.000 C 
ENDROOT
BRANCH   1  11
ATOM     10  N   UNL     1      15.637 -12.217  27.760  0.00  0.00    +0.000 NA
ATOM     11  C   UNL     1      16.118 -10.905  27.641  0.00  0.00    +0.000 C 
ATOM     12  O   UNL     1      15.414 -10.049  27.074  0.00  0.00    +0.000 OA
ENDBRANCH   1  11
BRANCH   2  13
ATOM     13  N   UNL     1      18.494 -10.416  25.879  0.00  0.00    +0.000 NA
ATOM     14  C   UNL     1      18.564  -9.403  25.121  0.00  0.00    +0.000 C 
BRANCH  14  15
ATOM     15  C   UNL     1      18.631  -8.063  25.649  0.00  0.00    +0.000 A 
ATOM     16  C   UNL     1      19.821  -7.369  25.486  0.00  0.00    +0.000 A 
ATOM     17  C   UNL     1      19.978  -6.067  25.964  0.00  0.00    +0.000 A 
ATOM     18  C   UNL     1      18.896  -5.496  26.607  0.00  0.00    +0.000 A 
ATOM     19  F   UNL     1      19.041  -4.239  27.070  0.00  0.00    +0.000 F 
ATOM     20  C   UNL     1      17.698  -6.174  26.778  0.00  0.00    +0.000 A 
ATOM     21  C   UNL     1      17.572  -7.462  26.294  0.00  0.00    +0.000 A 
ENDBRANCH  14  15
ENDBRANCH   2  13
TORSDOF 3
ENDMDL
MODEL 10
REMARK VINA RESULT:      -5.4      2.898      4.013
REMARK  Name = 
REMARK  3 active torsions:
REMARK  status: ('A' for Active; 'I' for Inactive)
REMARK    1  A    between atoms: C_2  and  C_4
REMARK    2  A    between atoms: C_5  and  N_6
REMARK    3  A    between atoms: C_7  and  C_8
REMARK                            x       y       z     vdW  Elec       q    Type
REMARK                         _______ _______ _______ _____ _____    ______ ____
ROOT
ATOM      1  C   UNL     1      26.841  25.828  24.099  0.00  0.00    +0.000 A 
ATOM      2  C   UNL     1      26.958  24.586  23.518  0.00  0.00    +0.000 A 
ATOM      3  S   UNL     1      26.190  23.545  24.621  0.00  0.00    +0.000 S 
ATOM      4  C   UNL     1      25.732  24.687  25.800  0.00  0.00    +0.000 A 
ATOM      5  C   UNL     1      26.196  25.862  25.292  0.00  0.00    +0.000 A 
ATOM      6  C   UNL     1      25.896  27.043  26.191  0.00  0.00    +0.000 C 
ATOM      7  C   UNL     1      24.444  27.002  26.529  0.00  0.00    +0.000 C 
ATOM      8  C   UNL     1      24.010  25.758  27.242  0.00  0.00    +0.000 C 
ATOM      9  C   UNL     1      25.000  24.625  27.124  0.00  0.00    +0.000 C 
ENDROOT
BRANCH   1  11
ATOM     10  N   UNL     1      26.772  27.573  22.305  0.00  0.00    +0.000 NA
ATOM     11  C   UNL     1      27.398  26.999  23.422  0.00  0.00    +0.000 C 
ATOM     12  O   UNL     1      28.455  27.500  23.848  0.00  0.00    +0.000 OA
ENDBRANCH   1  11
BRANCH   2  13
ATOM     13  N   UNL     1      27.574  24.232  22.284  0.00  0.00    +0.000 NA
ATOM     14  C   UNL     1      28.789  23.879  22.209  0.00  0.00    +0.000 C 
BRANCH  14  15
ATOM     15  C   UNL     1      29.634  23.812  23.375  0.00  0.00    +0.000 A 
ATOM     16  C   UNL     1      29.609  22.641  24.117  0.00  0.00    +0.000 A 
ATOM     17  C   UNL     1      30.394  22.485  25.262  0.00  0.00    +0.000 A 
ATOM     18  C   UNL     1      31.200  23.549  25.624  0.00  0.00    +0.000 A 
ATOM     19  F   UNL     1      31.960  23.405  26.727  0.00  0.00    +0.000 F 
ATOM     20  C   UNL     1      31.238  24.727  24.892  0.00  0.00    +0.000 A 
ATOM     21  C   UNL     1      30.451  24.852  23.765  0.00  0.00    +0.000 A 
ENDBRANCH  14  15
ENDBRANCH   2  13
TORSDOF 3
ENDMDL
