MODEL 1
REMARK VINA RESULT:      -8.0      0.000      0.000
REMARK  Name = 
REMARK  10 active torsions:
REMARK  status: ('A' for Active; 'I' for Inactive)
REMARK    1  A    between atoms: C_2  and  C_3
REMARK    2  A    between atoms: C_3  and  C_4
REMARK    3  A    between atoms: C_4  and  C_5
REMARK    4  A    between atoms: C_5  and  C_6
REMARK    5  A    between atoms: C_6  and  C_7
REMARK    6  A    between atoms: C_8  and  C_9
REMARK    7  A    between atoms: N_11  and  C_12
REMARK    8  A    between atoms: C_12  and  C_13
REMARK    9  A    between atoms: C_13  and  C_14
REMARK   10  A    between atoms: C_21  and  C_22
REMARK                            x       y       z     vdW  Elec       q    Type
REMARK                         _______ _______ _______ _____ _____    ______ ____
ROOT
ATOM      1  C   UNL     1      36.394   2.915  14.300  0.00  0.00    +0.000 C 
ATOM      2  C   UNL     1      37.590   2.742  14.788  0.00  0.00    +0.000 C 
ATOM      3  C   UNL     1      37.760   1.179  14.600  0.00  0.00    +0.000 C 
ATOM      4  O   UNL     1      37.043   1.102  13.285  0.00  0.00    +0.000 OA
ATOM      5  N   UNL     1      35.884   1.657  13.812  0.00  0.00    +0.000 NA
ENDROOT
BRANCH   3   6
ATOM      6  C   UNL     1      36.718   0.590  15.556  0.00  0.00    +0.000 A 
ATOM      7  C   UNL     1      36.199   1.436  16.476  0.00  0.00    +0.000 A 
ATOM      8  C   UNL     1      35.214   0.993  17.396  0.00  0.00    +0.000 A 
ATOM      9  C   UNL     1      34.813  -0.309  17.319  0.00  0.00    +0.000 A 
ATOM     10  C   UNL     1      35.330  -1.163  16.397  0.00  0.00    +0.000 A 
ATOM     11  C   UNL     1      34.936  -2.472  16.321  0.00  0.00    +0.000 A 
ATOM     12  C   UNL     1      35.494  -3.298  15.378  0.00  0.00    +0.000 A 
ATOM     13  C   UNL     1      36.452  -2.859  14.487  0.00  0.00    +0.000 A 
ATOM     14  C   UNL     1      36.865  -1.548  14.543  0.00  0.00    +0.000 A 
ATOM     15  C   UNL     1      36.316  -0.694  15.486  0.00  0.00    +0.000 A 
ENDBRANCH   3   6
BRANCH   2  16
ATOM     16  C   UNL     1      38.500   3.662  15.357  0.00  0.00    +0.000 C 
ATOM     17  O   UNL     1      39.501   4.036  14.706  0.00  0.00    +0.000 OA
ATOM     18  N   UNL     1      38.410   4.252  16.659  0.00  0.00    +0.000 NA
BRANCH  18  19
ATOM     19  C   UNL     1      39.349   5.173  17.189  0.00  0.00    +0.000 C 
BRANCH  19  20
ATOM     20  C   UNL     1      39.334   5.269  18.690  0.00  0.00    +0.000 C 
BRANCH  20  21
ATOM     21  C   UNL     1      38.943   6.616  19.156  0.00  0.00    +0.000 A 
ATOM     22  C   UNL     1      38.026   7.293  18.378  0.00  0.00    +0.000 A 
ATOM     23  C   UNL     1      37.603   8.570  18.743  0.00  0.00    +0.000 A 
ATOM     24  C   UNL     1      38.091   9.169  19.879  0.00  0.00    +0.000 A 
ATOM     25  F   UNL     1      37.655  10.404  20.194  0.00  0.00    +0.000 F 
ATOM     26  C   UNL     1      39.003   8.500  20.654  0.00  0.00    +0.000 A 
ATOM     27  C   UNL     1      39.432   7.221  20.295  0.00  0.00    +0.000 A 
ENDBRANCH  20  21
ENDBRANCH  19  20
ENDBRANCH  18  19
ENDBRANCH   2  16
BRANCH   1  28
ATOM     28  C   UNL     1      35.776   4.265  14.292  0.00  0.00    +0.000 C 
BRANCH  28  29
ATOM     29  C   UNL     1      35.993   5.017  12.998  0.00  0.00    +0.000 C 
BRANCH  29  30
ATOM     30  C   UNL     1      35.063   6.204  12.880  0.00  0.00    +0.000 C 
BRANCH  30  31
ATOM     31  C   UNL     1      34.101   6.315  14.014  0.00  0.00    +0.000 C 
BRANCH  31  33
ATOM     32  C   UNL     1      35.114   8.433  14.908  0.00  0.00    +0.000 C 
ATOM     33  C   UNL     1      33.836   7.749  14.424  0.00  0.00    +0.000 C 
ENDBRANCH  31  33
ENDBRANCH  30  31
ENDBRANCH  29  30
ENDBRANCH  28  29
ENDBRANCH   1  28
TORSDOF 10
ENDMDL
MODEL 2
REMARK VINA RESULT:      -8.0      1.902      2.386
REMARK  Name = 
REMARK  10 active torsions:
REMARK  status: ('A' for Active; 'I' for Inactive)
REMARK    1  A    between atoms: C_2  and  C_3
REMARK    2  A    between atoms: C_3  and  C_4
REMARK    3  A    between atoms: C_4  and  C_5
REMARK    4  A    between atoms: C_5  and  C_6
REMARK    5  A    between atoms: C_6  and  C_7
REMARK    6  A    between atoms: C_8  and  C_9
REMARK    7  A    between atoms: N_11  and  C_12
REMARK    8  A    between atoms: C_12  and  C_13
REMARK    9  A    between atoms: C_13  and  C_14
REMARK   10  A    between atoms: C_21  and  C_22
REMARK                            x       y       z     vdW  Elec       q    Type
REMARK                         _______ _______ _______ _____ _____    ______ ____
ROOT
ATOM      1  C   UNL     1      36.009   2.829  14.610  0.00  0.00    +0.000 C 
ATOM      2  C   UNL     1      37.123   2.828  15.285  0.00  0.00    +0.000 C 
ATOM      3  C   UNL     1      37.673   1.383  14.942  0.00  0.00    +0.000 C 
ATOM      4  O   UNL     1      37.204   1.373  13.518  0.00  0.00    +0.000 OA
ATOM      5  N   UNL     1      35.881   1.587  13.885  0.00  0.00    +0.000 NA
ENDROOT
BRANCH   3   6
ATOM      6  C   UNL     1      36.659   0.448  15.609  0.00  0.00    +0.000 A 
ATOM      7  C   UNL     1      35.878   0.994  16.570  0.00  0.00    +0.000 A 
ATOM      8  C   UNL     1      34.896   0.218  17.236  0.00  0.00    +0.000 A 
ATOM      9  C   UNL     1      34.769  -1.092  16.874  0.00  0.00    +0.000 A 
ATOM     10  C   UNL     1      35.550  -1.646  15.909  0.00  0.00    +0.000 A 
ATOM     11  C   UNL     1      35.431  -2.961  15.549  0.00  0.00    +0.000 A 
ATOM     12  C   UNL     1      36.250  -3.477  14.575  0.00  0.00    +0.000 A 
ATOM     13  C   UNL     1      37.203  -2.714  13.933  0.00  0.00    +0.000 A 
ATOM     14  C   UNL     1      37.342  -1.390  14.277  0.00  0.00    +0.000 A 
ATOM     15  C   UNL     1      36.528  -0.846  15.258  0.00  0.00    +0.000 A 
ENDBRANCH   3   6
BRANCH   2  16
ATOM     16  C   UNL     1      37.699   3.811  16.121  0.00  0.00    +0.000 C 
ATOM     17  O   UNL     1      37.749   3.631  17.358  0.00  0.00    +0.000 OA
ATOM     18  N   UNL     1      38.265   5.058  15.701  0.00  0.00    +0.000 NA
BRANCH  18  19
ATOM     19  C   UNL     1      38.835   6.017  16.579  0.00  0.00    +0.000 C 
BRANCH  19  20
ATOM     20  C   UNL     1      40.337   6.077  16.528  0.00  0.00    +0.000 C 
BRANCH  20  21
ATOM     21  C   UNL     1      40.930   6.256  17.869  0.00  0.00    +0.000 A 
ATOM     22  C   UNL     1      42.281   6.534  17.912  0.00  0.00    +0.000 A 
ATOM     23  C   UNL     1      42.922   6.716  19.137  0.00  0.00    +0.000 A 
ATOM     24  C   UNL     1      42.218   6.623  20.313  0.00  0.00    +0.000 A 
ATOM     25  F   UNL     1      42.877   6.807  21.474  0.00  0.00    +0.000 F 
ATOM     26  C   UNL     1      40.876   6.347  20.276  0.00  0.00    +0.000 A 
ATOM     27  C   UNL     1      40.227   6.162  19.053  0.00  0.00    +0.000 A 
ENDBRANCH  20  21
ENDBRANCH  19  20
ENDBRANCH  18  19
ENDBRANCH   2  16
BRANCH   1  28
ATOM     28  C   UNL     1      35.107   4.007  14.652  0.00  0.00    +0.000 C 
BRANCH  28  29
ATOM     29  C   UNL     1      35.436   5.053  13.612  0.00  0.00    +0.000 C 
BRANCH  29  30
ATOM     30  C   UNL     1      34.952   6.425  14.027  0.00  0.00    +0.000 C 
BRANCH  30  31
ATOM     31  C   UNL     1      33.823   6.930  13.194  0.00  0.00    +0.000 C 
BRANCH  31  33
ATOM     32  C   UNL     1      34.123   8.463  11.227  0.00  0.00    +0.000 C 
ATOM     33  C   UNL     1      34.172   7.020  11.722  0.00  0.00    +0.000 C 
ENDBRANCH  31  33
ENDBRANCH  30  31
ENDBRANCH  29  30
ENDBRANCH  28  29
ENDBRANCH   1  28
TORSDOF 10
ENDMDL
MODEL 3
REMARK VINA RESULT:      -8.0      1.970      5.116
REMARK  Name = 
REMARK  10 active torsions:
REMARK  status: ('A' for Active; 'I' for Inactive)
REMARK    1  A    between atoms: C_2  and  C_3
REMARK    2  A    between atoms: C_3  and  C_4
REMARK    3  A    between atoms: C_4  and  C_5
REMARK    4  A    between atoms: C_5  and  C_6
REMARK    5  A    between atoms: C_6  and  C_7
REMARK    6  A    between atoms: C_8  and  C_9
REMARK    7  A    between atoms: N_11  and  C_12
REMARK    8  A    between atoms: C_12  and  C_13
REMARK    9  A    between atoms: C_13  and  C_14
REMARK   10  A    between atoms: C_21  and  C_22
REMARK                            x       y       z     vdW  Elec       q    Type
REMARK                         _______ _______ _______ _____ _____    ______ ____
ROOT
ATOM      1  C   UNL     1      36.945   3.214  16.387  0.00  0.00    +0.000 C 
ATOM      2  C   UNL     1      36.261   3.179  15.279  0.00  0.00    +0.000 C 
ATOM      3  C   UNL     1      35.451   1.832  15.477  0.00  0.00    +0.000 C 
ATOM      4  O   UNL     1      35.226   2.002  16.950  0.00  0.00    +0.000 OA
ATOM      5  N   UNL     1      36.588   2.086  17.213  0.00  0.00    +0.000 NA
ENDROOT
BRANCH   3   6
ATOM      6  C   UNL     1      36.538   0.754  15.452  0.00  0.00    +0.000 A 
ATOM      7  C   UNL     1      37.722   1.106  14.897  0.00  0.00    +0.000 A 
ATOM      8  C   UNL     1      38.800   0.187  14.841  0.00  0.00    +0.000 A 
ATOM      9  C   UNL     1      38.601  -1.058  15.364  0.00  0.00    +0.000 A 
ATOM     10  C   UNL     1      37.415  -1.417  15.923  0.00  0.00    +0.000 A 
ATOM     11  C   UNL     1      37.209  -2.667  16.441  0.00  0.00    +0.000 A 
ATOM     12  C   UNL     1      35.990  -2.985  16.987  0.00  0.00    +0.000 A 
ATOM     13  C   UNL     1      34.946  -2.085  17.037  0.00  0.00    +0.000 A 
ATOM     14  C   UNL     1      35.129  -0.822  16.523  0.00  0.00    +0.000 A 
ATOM     15  C   UNL     1      36.350  -0.477  15.966  0.00  0.00    +0.000 A 
ENDBRANCH   3   6
BRANCH   2  16
ATOM     16  C   UNL     1      36.240   4.061  14.175  0.00  0.00    +0.000 C 
ATOM     17  O   UNL     1      37.096   3.951  13.269  0.00  0.00    +0.000 OA
ATOM     18  N   UNL     1      35.306   5.125  13.954  0.00  0.00    +0.000 NA
BRANCH  18  19
ATOM     19  C   UNL     1      35.324   5.987  12.828  0.00  0.00    +0.000 C 
BRANCH  19  20
ATOM     20  C   UNL     1      34.071   6.803  12.661  0.00  0.00    +0.000 C 
BRANCH  20  21
ATOM     21  C   UNL     1      34.106   8.043  13.463  0.00  0.00    +0.000 A 
ATOM     22  C   UNL     1      33.655   7.947  14.763  0.00  0.00    +0.000 A 
ATOM     23  C   UNL     1      33.652   9.069  15.590  0.00  0.00    +0.000 A 
ATOM     24  C   UNL     1      34.098  10.281  15.123  0.00  0.00    +0.000 A 
ATOM     25  F   UNL     1      34.078  11.340  15.956  0.00  0.00    +0.000 F 
ATOM     26  C   UNL     1      34.547  10.382  13.832  0.00  0.00    +0.000 A 
ATOM     27  C   UNL     1      34.552   9.262  12.997  0.00  0.00    +0.000 A 
ENDBRANCH  20  21
ENDBRANCH  19  20
ENDBRANCH  18  19
ENDBRANCH   2  16
BRANCH   1  28
ATOM     28  C   UNL     1      37.900   4.321  16.643  0.00  0.00    +0.000 C 
BRANCH  28  29
ATOM     29  C   UNL     1      38.360   4.397  18.081  0.00  0.00    +0.000 C 
BRANCH  29  30
ATOM     30  C   UNL     1      39.398   5.479  18.279  0.00  0.00    +0.000 C 
BRANCH  30  31
ATOM     31  C   UNL     1      38.872   6.678  18.992  0.00  0.00    +0.000 C 
BRANCH  31  33
ATOM     32  C   UNL     1      41.094   6.386  20.127  0.00  0.00    +0.000 C 
ATOM     33  C   UNL     1      39.746   7.103  20.155  0.00  0.00    +0.000 C 
ENDBRANCH  31  33
ENDBRANCH  30  31
ENDBRANCH  29  30
ENDBRANCH  28  29
ENDBRANCH   1  28
TORSDOF 10
ENDMDL
MODEL 4
REMARK VINA RESULT:      -8.0      2.793      4.881
REMARK  Name = 
REMARK  10 active torsions:
REMARK  status: ('A' for Active; 'I' for Inactive)
REMARK    1  A    between atoms: C_2  and  C_3
REMARK    2  A    between atoms: C_3  and  C_4
REMARK    3  A    between atoms: C_4  and  C_5
REMARK    4  A    between atoms: C_5  and  C_6
REMARK    5  A    between atoms: C_6  and  C_7
REMARK    6  A    between atoms: C_8  and  C_9
REMARK    7  A    between atoms: N_11  and  C_12
REMARK    8  A    between atoms: C_12  and  C_13
REMARK    9  A    between atoms: C_13  and  C_14
REMARK   10  A    between atoms: C_21  and  C_22
REMARK                            x       y       z     vdW  Elec       q    Type
REMARK                         _______ _______ _______ _____ _____    ______ ____
ROOT
ATOM      1  C   UNL     1      36.304   1.309  14.421  0.00  0.00    +0.000 C 
ATOM      2  C   UNL     1      37.239   2.214  14.359  0.00  0.00    +0.000 C 
ATOM      3  C   UNL     1      38.111   1.652  13.162  0.00  0.00    +0.000 C 
ATOM      4  O   UNL     1      36.955   1.152  12.349  0.00  0.00    +0.000 OA
ATOM      5  N   UNL     1      36.505   0.332  13.377  0.00  0.00    +0.000 NA
ENDROOT
BRANCH   3   6
ATOM      6  C   UNL     1      38.685   0.347  13.721  0.00  0.00    +0.000 A 
ATOM      7  C   UNL     1      38.597   0.174  15.061  0.00  0.00    +0.000 A 
ATOM      8  C   UNL     1      39.083  -1.007  15.675  0.00  0.00    +0.000 A 
ATOM      9  C   UNL     1      39.640  -1.958  14.870  0.00  0.00    +0.000 A 
ATOM     10  C   UNL     1      39.731  -1.792  13.524  0.00  0.00    +0.000 A 
ATOM     11  C   UNL     1      40.297  -2.739  12.714  0.00  0.00    +0.000 A 
ATOM     12  C   UNL     1      40.374  -2.520  11.361  0.00  0.00    +0.000 A 
ATOM     13  C   UNL     1      39.899  -1.367  10.772  0.00  0.00    +0.000 A 
ATOM     14  C   UNL     1      39.327  -0.399  11.564  0.00  0.00    +0.000 A 
ATOM     15  C   UNL     1      39.237  -0.596  12.933  0.00  0.00    +0.000 A 
ENDBRANCH   3   6
BRANCH   2  16
ATOM     16  C   UNL     1      37.461   3.370  15.141  0.00  0.00    +0.000 C 
ATOM     17  O   UNL     1      36.975   4.467  14.787  0.00  0.00    +0.000 OA
ATOM     18  N   UNL     1      38.216   3.443  16.356  0.00  0.00    +0.000 NA
BRANCH  18  19
ATOM     19  C   UNL     1      38.412   4.630  17.108  0.00  0.00    +0.000 C 
BRANCH  19  20
ATOM     20  C   UNL     1      39.564   5.473  16.633  0.00  0.00    +0.000 C 
BRANCH  20  21
ATOM     21  C   UNL     1      40.403   5.946  17.754  0.00  0.00    +0.000 A 
ATOM     22  C   UNL     1      39.809   5.970  18.999  0.00  0.00    +0.000 A 
ATOM     23  C   UNL     1      40.529   6.403  20.112  0.00  0.00    +0.000 A 
ATOM     24  C   UNL     1      41.834   6.810  19.983  0.00  0.00    +0.000 A 
ATOM     25  F   UNL     1      42.493   7.221  21.085  0.00  0.00    +0.000 F 
ATOM     26  C   UNL     1      42.429   6.789  18.748  0.00  0.00    +0.000 A 
ATOM     27  C   UNL     1      41.714   6.357  17.628  0.00  0.00    +0.000 A 
ENDBRANCH  20  21
ENDBRANCH  19  20
ENDBRANCH  18  19
ENDBRANCH   2  16
BRANCH   1  28
ATOM     28  C   UNL     1      35.237   1.402  15.449  0.00  0.00    +0.000 C 
BRANCH  28  29
ATOM     29  C   UNL     1      35.283   0.284  16.465  0.00  0.00    +0.000 C 
BRANCH  29  30
ATOM     30  C   UNL     1      35.982   0.712  17.736  0.00  0.00    +0.000 C 
BRANCH  30  31
ATOM     31  C   UNL     1      35.853  -0.279  18.843  0.00  0.00    +0.000 C 
BRANCH  31  33
ATOM     32  C   UNL     1      37.176  -2.375  18.437  0.00  0.00    +0.000 C 
ATOM     33  C   UNL     1      37.147  -1.014  19.130  0.00  0.00    +0.000 C 
ENDBRANCH  31  33
ENDBRANCH  30  31
ENDBRANCH  29  30
ENDBRANCH  28  29
ENDBRANCH   1  28
TORSDOF 10
ENDMDL
MODEL 5
REMARK VINA RESULT:      -8.0      6.434     10.532
REMARK  Name = 
REMARK  10 active torsions:
REMARK  status: ('A' for Active; 'I' for Inactive)
REMARK    1  A    between atoms: C_2  and  C_3
REMARK    2  A    between atoms: C_3  and  C_4
REMARK    3  A    between atoms: C_4  and  C_5
REMARK    4  A    between atoms: C_5  and  C_6
REMARK    5  A    between atoms: C_6  and  C_7
REMARK    6  A    between atoms: C_8  and  C_9
REMARK    7  A    between atoms: N_11  and  C_12
REMARK    8  A    between atoms: C_12  and  C_13
REMARK    9  A    between atoms: C_13  and  C_14
REMARK   10  A    between atoms: C_21  and  C_22
REMARK                            x       y       z     vdW  Elec       q    Type
REMARK                         _______ _______ _______ _____ _____    ______ ____
ROOT
ATOM      1  C   UNL     1      37.959  -2.799  17.466  0.00  0.00    +0.000 C 
ATOM      2  C   UNL     1      37.521  -3.477  16.443  0.00  0.00    +0.000 C 
ATOM      3  C   UNL     1      38.786  -3.423  15.492  0.00  0.00    +0.000 C 
ATOM      4  O   UNL     1      39.807  -3.541  16.583  0.00  0.00    +0.000 OA
ATOM      5  N   UNL     1      39.330  -2.411  17.237  0.00  0.00    +0.000 NA
ENDROOT
BRANCH   3   6
ATOM      6  C   UNL     1      38.893  -1.940  15.126  0.00  0.00    +0.000 A 
ATOM      7  C   UNL     1      37.762  -1.205  15.249  0.00  0.00    +0.000 A 
ATOM      8  C   UNL     1      37.761   0.181  14.952  0.00  0.00    +0.000 A 
ATOM      9  C   UNL     1      38.933   0.744  14.540  0.00  0.00    +0.000 A 
ATOM     10  C   UNL     1      40.072   0.013  14.414  0.00  0.00    +0.000 A 
ATOM     11  C   UNL     1      41.248   0.572  13.993  0.00  0.00    +0.000 A 
ATOM     12  C   UNL     1      42.370  -0.212  13.873  0.00  0.00    +0.000 A 
ATOM     13  C   UNL     1      42.362  -1.560  14.163  0.00  0.00    +0.000 A 
ATOM     14  C   UNL     1      41.193  -2.145  14.589  0.00  0.00    +0.000 A 
ATOM     15  C   UNL     1      40.047  -1.376  14.718  0.00  0.00    +0.000 A 
ENDBRANCH   3   6
BRANCH   2  16
ATOM     16  C   UNL     1      36.267  -4.083  16.203  0.00  0.00    +0.000 C 
ATOM     17  O   UNL     1      36.055  -5.255  16.586  0.00  0.00    +0.000 OA
ATOM     18  N   UNL     1      35.147  -3.486  15.540  0.00  0.00    +0.000 NA
BRANCH  18  19
ATOM     19  C   UNL     1      33.904  -4.134  15.321  0.00  0.00    +0.000 C 
BRANCH  19  20
ATOM     20  C   UNL     1      33.833  -4.903  14.030  0.00  0.00    +0.000 C 
BRANCH  20  21
ATOM     21  C   UNL     1      33.738  -6.360  14.256  0.00  0.00    +0.000 A 
ATOM     22  C   UNL     1      33.347  -6.761  15.517  0.00  0.00    +0.000 A 
ATOM     23  C   UNL     1      33.232  -8.117  15.818  0.00  0.00    +0.000 A 
ATOM     24  C   UNL     1      33.505  -9.069  14.865  0.00  0.00    +0.000 A 
ATOM     25  F   UNL     1      33.382 -10.369  15.199  0.00  0.00    +0.000 F 
ATOM     26  C   UNL     1      33.895  -8.675  13.611  0.00  0.00    +0.000 A 
ATOM     27  C   UNL     1      34.013  -7.318  13.303  0.00  0.00    +0.000 A 
ENDBRANCH  20  21
ENDBRANCH  19  20
ENDBRANCH  18  19
ENDBRANCH   2  16
BRANCH   1  28
ATOM     28  C   UNL     1      37.080  -2.555  18.636  0.00  0.00    +0.000 C 
BRANCH  28  29
ATOM     29  C   UNL     1      37.291  -1.201  19.275  0.00  0.00    +0.000 C 
BRANCH  29  30
ATOM     30  C   UNL     1      36.276  -0.190  18.789  0.00  0.00    +0.000 C 
BRANCH  30  31
ATOM     31  C   UNL     1      35.067  -0.814  18.180  0.00  0.00    +0.000 C 
BRANCH  31  33
ATOM     32  C   UNL     1      34.947   1.374  16.950  0.00  0.00    +0.000 C 
ATOM     33  C   UNL     1      34.620  -0.117  16.911  0.00  0.00    +0.000 C 
ENDBRANCH  31  33
ENDBRANCH  30  31
ENDBRANCH  29  30
ENDBRANCH  28  29
ENDBRANCH   1  28
TORSDOF 10
ENDMDL
MODEL 6
REMARK VINA RESULT:      -7.9      2.576      4.126
REMARK  Name = 
REMARK  10 active torsions:
REMARK  status: ('A' for Active; 'I' for Inactive)
REMARK    1  A    between atoms: C_2  and  C_3
REMARK    2  A    between atoms: C_3  and  C_4
REMARK    3  A    between atoms: C_4  and  C_5
REMARK    4  A    between atoms: C_5  and  C_6
REMARK    5  A    between atoms: C_6  and  C_7
REMARK    6  A    between atoms: C_8  and  C_9
REMARK    7  A    between atoms: N_11  and  C_12
REMARK    8  A    between atoms: C_12  and  C_13
REMARK    9  A    between atoms: C_13  and  C_14
REMARK   10  A    between atoms: C_21  and  C_22
REMARK                            x       y       z     vdW  Elec       q    Type
REMARK                         _______ _______ _______ _____ _____    ______ ____
ROOT
ATOM      1  C   UNL     1      38.172   2.213  13.268  0.00  0.00    +0.000 C 
ATOM      2  C   UNL     1      38.951   2.852  14.094  0.00  0.00    +0.000 C 
ATOM      3  C   UNL     1      40.340   2.155  13.786  0.00  0.00    +0.000 C 
ATOM      4  O   UNL     1      40.117   2.011  12.310  0.00  0.00    +0.000 OA
ATOM      5  N   UNL     1      38.951   1.277  12.493  0.00  0.00    +0.000 NA
ENDROOT
BRANCH   3   6
ATOM      6  C   UNL     1      40.133   0.718  14.272  0.00  0.00    +0.000 A 
ATOM      7  C   UNL     1      38.980   0.467  14.937  0.00  0.00    +0.000 A 
ATOM      8  C   UNL     1      38.685  -0.836  15.413  0.00  0.00    +0.000 A 
ATOM      9  C   UNL     1      39.600  -1.820  15.178  0.00  0.00    +0.000 A 
ATOM     10  C   UNL     1      40.759  -1.575  14.510  0.00  0.00    +0.000 A 
ATOM     11  C   UNL     1      41.682  -2.559  14.279  0.00  0.00    +0.000 A 
ATOM     12  C   UNL     1      42.842  -2.259  13.608  0.00  0.00    +0.000 A 
ATOM     13  C   UNL     1      43.121  -0.989  13.149  0.00  0.00    +0.000 A 
ATOM     14  C   UNL     1      42.209   0.017  13.369  0.00  0.00    +0.000 A 
ATOM     15  C   UNL     1      41.031  -0.260  14.044  0.00  0.00    +0.000 A 
ENDBRANCH   3   6
BRANCH   2  16
ATOM     16  C   UNL     1      38.669   3.869  15.034  0.00  0.00    +0.000 C 
ATOM     17  O   UNL     1      38.659   5.067  14.675  0.00  0.00    +0.000 OA
ATOM     18  N   UNL     1      38.375   3.684  16.423  0.00  0.00    +0.000 NA
BRANCH  18  19
ATOM     19  C   UNL     1      38.096   4.738  17.331  0.00  0.00    +0.000 C 
BRANCH  19  20
ATOM     20  C   UNL     1      39.313   5.286  18.026  0.00  0.00    +0.000 C 
BRANCH  20  21
ATOM     21  C   UNL     1      38.991   6.460  18.863  0.00  0.00    +0.000 A 
ATOM     22  C   UNL     1      37.938   7.245  18.441  0.00  0.00    +0.000 A 
ATOM     23  C   UNL     1      37.567   8.373  19.171  0.00  0.00    +0.000 A 
ATOM     24  C   UNL     1      38.243   8.717  20.316  0.00  0.00    +0.000 A 
ATOM     25  F   UNL     1      37.852   9.816  20.991  0.00  0.00    +0.000 F 
ATOM     26  C   UNL     1      39.291   7.941  20.739  0.00  0.00    +0.000 A 
ATOM     27  C   UNL     1      39.669   6.809  20.013  0.00  0.00    +0.000 A 
ENDBRANCH  20  21
ENDBRANCH  19  20
ENDBRANCH  18  19
ENDBRANCH   2  16
BRANCH   1  28
ATOM     28  C   UNL     1      36.720   2.517  13.220  0.00  0.00    +0.000 C 
BRANCH  28  29
ATOM     29  C   UNL     1      35.901   1.689  14.183  0.00  0.00    +0.000 C 
BRANCH  29  30
ATOM     30  C   UNL     1      34.982   2.553  15.020  0.00  0.00    +0.000 C 
BRANCH  30  31
ATOM     31  C   UNL     1      34.965   2.171  16.461  0.00  0.00    +0.000 C 
BRANCH  31  33
ATOM     32  C   UNL     1      34.760  -0.273  17.006  0.00  0.00    +0.000 C 
ATOM     33  C   UNL     1      35.718   0.886  16.740  0.00  0.00    +0.000 C 
ENDBRANCH  31  33
ENDBRANCH  30  31
ENDBRANCH  29  30
ENDBRANCH  28  29
ENDBRANCH   1  28
TORSDOF 10
ENDMDL
MODEL 7
REMARK VINA RESULT:      -7.9      5.827      8.844
REMARK  Name = 
REMARK  10 active torsions:
REMARK  status: ('A' for Active; 'I' for Inactive)
REMARK    1  A    between atoms: C_2  and  C_3
REMARK    2  A    between atoms: C_3  and  C_4
REMARK    3  A    between atoms: C_4  and  C_5
REMARK    4  A    between atoms: C_5  and  C_6
REMARK    5  A    between atoms: C_6  and  C_7
REMARK    6  A    between atoms: C_8  and  C_9
REMARK    7  A    between atoms: N_11  and  C_12
REMARK    8  A    between atoms: C_12  and  C_13
REMARK    9  A    between atoms: C_13  and  C_14
REMARK   10  A    between atoms: C_21  and  C_22
REMARK                            x       y       z     vdW  Elec       q    Type
REMARK                         _______ _______ _______ _____ _____    ______ ____
ROOT
ATOM      1  C   UNL     1      39.555   0.295  14.196  0.00  0.00    +0.000 C 
ATOM      2  C   UNL     1      38.820   0.843  13.271  0.00  0.00    +0.000 C 
ATOM      3  C   UNL     1      37.472   1.078  14.069  0.00  0.00    +0.000 C 
ATOM      4  O   UNL     1      38.123   1.441  15.369  0.00  0.00    +0.000 OA
ATOM      5  N   UNL     1      38.813   0.237  15.433  0.00  0.00    +0.000 NA
ENDROOT
BRANCH   3   6
ATOM      6  C   UNL     1      36.975  -0.342  14.356  0.00  0.00    +0.000 A 
ATOM      7  C   UNL     1      37.451  -1.321  13.551  0.00  0.00    +0.000 A 
ATOM      8  C   UNL     1      37.066  -2.672  13.745  0.00  0.00    +0.000 A 
ATOM      9  C   UNL     1      36.204  -2.946  14.766  0.00  0.00    +0.000 A 
ATOM     10  C   UNL     1      35.722  -1.968  15.578  0.00  0.00    +0.000 A 
ATOM     11  C   UNL     1      34.850  -2.237  16.598  0.00  0.00    +0.000 A 
ATOM     12  C   UNL     1      34.385  -1.213  17.385  0.00  0.00    +0.000 A 
ATOM     13  C   UNL     1      34.764   0.098  17.189  0.00  0.00    +0.000 A 
ATOM     14  C   UNL     1      35.639   0.396  16.170  0.00  0.00    +0.000 A 
ATOM     15  C   UNL     1      36.123  -0.621  15.362  0.00  0.00    +0.000 A 
ENDBRANCH   3   6
BRANCH   2  16
ATOM     16  C   UNL     1      39.101   1.136  11.917  0.00  0.00    +0.000 C 
ATOM     17  O   UNL     1      39.454   2.290  11.587  0.00  0.00    +0.000 OA
ATOM     18  N   UNL     1      39.029   0.223  10.816  0.00  0.00    +0.000 NA
BRANCH  18  19
ATOM     19  C   UNL     1      39.322   0.563   9.471  0.00  0.00    +0.000 C 
BRANCH  19  20
ATOM     20  C   UNL     1      40.130  -0.474   8.738  0.00  0.00    +0.000 C 
BRANCH  20  21
ATOM     21  C   UNL     1      40.879  -1.348   9.664  0.00  0.00    +0.000 A 
ATOM     22  C   UNL     1      42.083  -0.860  10.130  0.00  0.00    +0.000 A 
ATOM     23  C   UNL     1      42.856  -1.620  11.007  0.00  0.00    +0.000 A 
ATOM     24  C   UNL     1      42.430  -2.859  11.418  0.00  0.00    +0.000 A 
ATOM     25  F   UNL     1      43.208  -3.560  12.267  0.00  0.00    +0.000 F 
ATOM     26  C   UNL     1      41.234  -3.348  10.958  0.00  0.00    +0.000 A 
ATOM     27  C   UNL     1      40.455  -2.594  10.079  0.00  0.00    +0.000 A 
ENDBRANCH  20  21
ENDBRANCH  19  20
ENDBRANCH  18  19
ENDBRANCH   2  16
BRANCH   1  28
ATOM     28  C   UNL     1      40.941  -0.139  13.893  0.00  0.00    +0.000 C 
BRANCH  28  29
ATOM     29  C   UNL     1      41.396  -1.321  14.718  0.00  0.00    +0.000 C 
BRANCH  29  30
ATOM     30  C   UNL     1      40.558  -2.550  14.443  0.00  0.00    +0.000 C 
BRANCH  30  31
ATOM     31  C   UNL     1      40.285  -3.364  15.662  0.00  0.00    +0.000 C 
BRANCH  31  33
ATOM     32  C   UNL     1      38.646  -3.743  17.528  0.00  0.00    +0.000 C 
ATOM     33  C   UNL     1      39.276  -2.717  16.589  0.00  0.00    +0.000 C 
ENDBRANCH  31  33
ENDBRANCH  30  31
ENDBRANCH  29  30
ENDBRANCH  28  29
ENDBRANCH   1  28
TORSDOF 10
ENDMDL
MODEL 8
REMARK VINA RESULT:      -7.8      3.326      7.845
REMARK  Name = 
REMARK  10 active torsions:
REMARK  status: ('A' for Active; 'I' for Inactive)
REMARK    1  A    between atoms: C_2  and  C_3
REMARK    2  A    between atoms: C_3  and  C_4
REMARK    3  A    between atoms: C_4  and  C_5
REMARK    4  A    between atoms: C_5  and  C_6
REMARK    5  A    between atoms: C_6  and  C_7
REMARK    6  A    between atoms: C_8  and  C_9
REMARK    7  A    between atoms: N_11  and  C_12
REMARK    8  A    between atoms: C_12  and  C_13
REMARK    9  A    between atoms: C_13  and  C_14
REMARK   10  A    between atoms: C_21  and  C_22
REMARK                            x       y       z     vdW  Elec       q    Type
REMARK                         _______ _______ _______ _____ _____    ______ ____
ROOT
ATOM      1  C   UNL     1      37.906   6.100  15.996  0.00  0.00    +0.000 C 
ATOM      2  C   UNL     1      37.978   4.959  16.621  0.00  0.00    +0.000 C 
ATOM      3  C   UNL     1      38.725   5.398  17.947  0.00  0.00    +0.000 C 
ATOM      4  O   UNL     1      38.043   6.727  18.076  0.00  0.00    +0.000 OA
ATOM      5  N   UNL     1      38.472   7.141  16.821  0.00  0.00    +0.000 NA
ENDROOT
BRANCH   3   6
ATOM      6  C   UNL     1      40.115   5.810  17.454  0.00  0.00    +0.000 A 
ATOM      7  C   UNL     1      40.324   5.745  16.118  0.00  0.00    +0.000 A 
ATOM      8  C   UNL     1      41.571   6.121  15.558  0.00  0.00    +0.000 A 
ATOM      9  C   UNL     1      42.547   6.547  16.411  0.00  0.00    +0.000 A 
ATOM     10  C   UNL     1      42.344   6.615  17.754  0.00  0.00    +0.000 A 
ATOM     11  C   UNL     1      43.323   7.035  18.613  0.00  0.00    +0.000 A 
ATOM     12  C   UNL     1      43.072   7.077  19.962  0.00  0.00    +0.000 A 
ATOM     13  C   UNL     1      41.855   6.709  20.498  0.00  0.00    +0.000 A 
ATOM     14  C   UNL     1      40.855   6.284  19.655  0.00  0.00    +0.000 A 
ATOM     15  C   UNL     1      41.084   6.232  18.289  0.00  0.00    +0.000 A 
ENDBRANCH   3   6
BRANCH   2  16
ATOM     16  C   UNL     1      37.546   3.668  16.244  0.00  0.00    +0.000 C 
ATOM     17  O   UNL     1      38.362   2.850  15.764  0.00  0.00    +0.000 OA
ATOM     18  N   UNL     1      36.213   3.153  16.349  0.00  0.00    +0.000 NA
BRANCH  18  19
ATOM     19  C   UNL     1      35.825   1.845  15.957  0.00  0.00    +0.000 C 
BRANCH  19  20
ATOM     20  C   UNL     1      35.253   1.015  17.074  0.00  0.00    +0.000 C 
BRANCH  20  21
ATOM     21  C   UNL     1      36.203  -0.014  17.542  0.00  0.00    +0.000 A 
ATOM     22  C   UNL     1      36.951  -0.648  16.571  0.00  0.00    +0.000 A 
ATOM     23  C   UNL     1      37.872  -1.633  16.925  0.00  0.00    +0.000 A 
ATOM     24  C   UNL     1      38.046  -1.984  18.241  0.00  0.00    +0.000 A 
ATOM     25  F   UNL     1      38.947  -2.941  18.539  0.00  0.00    +0.000 F 
ATOM     26  C   UNL     1      37.305  -1.357  19.210  0.00  0.00    +0.000 A 
ATOM     27  C   UNL     1      36.381  -0.370  18.863  0.00  0.00    +0.000 A 
ENDBRANCH  20  21
ENDBRANCH  19  20
ENDBRANCH  18  19
ENDBRANCH   2  16
BRANCH   1  28
ATOM     28  C   UNL     1      37.290   6.178  14.648  0.00  0.00    +0.000 C 
BRANCH  28  29
ATOM     29  C   UNL     1      37.427   7.538  14.002  0.00  0.00    +0.000 C 
BRANCH  29  30
ATOM     30  C   UNL     1      36.078   8.149  13.694  0.00  0.00    +0.000 C 
BRANCH  30  31
ATOM     31  C   UNL     1      35.280   8.464  14.914  0.00  0.00    +0.000 C 
BRANCH  31  33
ATOM     32  C   UNL     1      33.537   7.025  13.817  0.00  0.00    +0.000 C 
ATOM     33  C   UNL     1      33.795   8.225  14.725  0.00  0.00    +0.000 C 
ENDBRANCH  31  33
ENDBRANCH  30  31
ENDBRANCH  29  30
ENDBRANCH  28  29
ENDBRANCH   1  28
TORSDOF 10
ENDMDL
MODEL 9
REMARK VINA RESULT:      -7.8      4.232      7.293
REMARK  Name = 
REMARK  10 active torsions:
REMARK  status: ('A' for Active; 'I' for Inactive)
REMARK    1  A    between atoms: C_2  and  C_3
REMARK    2  A    between atoms: C_3  and  C_4
REMARK    3  A    between atoms: C_4  and  C_5
REMARK    4  A    between atoms: C_5  and  C_6
REMARK    5  A    between atoms: C_6  and  C_7
REMARK    6  A    between atoms: C_8  and  C_9
REMARK    7  A    between atoms: N_11  and  C_12
REMARK    8  A    between atoms: C_12  and  C_13
REMARK    9  A    between atoms: C_13  and  C_14
REMARK   10  A    between atoms: C_21  and  C_22
REMARK                            x       y       z     vdW  Elec       q    Type
REMARK                         _______ _______ _______ _____ _____    ______ ____
ROOT
ATOM      1  C   UNL     1      36.951   2.638  16.151  0.00  0.00    +0.000 C 
ATOM      2  C   UNL     1      37.241   1.776  15.219  0.00  0.00    +0.000 C 
ATOM      3  C   UNL     1      36.006   0.792  15.336  0.00  0.00    +0.000 C 
ATOM      4  O   UNL     1      34.988   1.853  15.628  0.00  0.00    +0.000 OA
ATOM      5  N   UNL     1      35.681   2.298  16.748  0.00  0.00    +0.000 NA
ENDROOT
BRANCH   3   6
ATOM      6  C   UNL     1      36.189   0.150  16.715  0.00  0.00    +0.000 A 
ATOM      7  C   UNL     1      35.384   0.606  17.703  0.00  0.00    +0.000 A 
ATOM      8  C   UNL     1      35.463   0.065  19.012  0.00  0.00    +0.000 A 
ATOM      9  C   UNL     1      36.375  -0.925  19.236  0.00  0.00    +0.000 A 
ATOM     10  C   UNL     1      37.186  -1.388  18.247  0.00  0.00    +0.000 A 
ATOM     11  C   UNL     1      38.107  -2.375  18.470  0.00  0.00    +0.000 A 
ATOM     12  C   UNL     1      38.909  -2.802  17.441  0.00  0.00    +0.000 A 
ATOM     13  C   UNL     1      38.827  -2.270  16.171  0.00  0.00    +0.000 A 
ATOM     14  C   UNL     1      37.909  -1.276  15.922  0.00  0.00    +0.000 A 
ATOM     15  C   UNL     1      37.087  -0.828  16.944  0.00  0.00    +0.000 A 
ENDBRANCH   3   6
BRANCH   2  16
ATOM     16  C   UNL     1      38.350   1.693  14.347  0.00  0.00    +0.000 C 
ATOM     17  O   UNL     1      38.200   1.900  13.123  0.00  0.00    +0.000 OA
ATOM     18  N   UNL     1      39.699   1.384  14.715  0.00  0.00    +0.000 NA
BRANCH  18  19
ATOM     19  C   UNL     1      40.783   1.313  13.802  0.00  0.00    +0.000 C 
BRANCH  19  20
ATOM     20  C   UNL     1      41.550   0.020  13.861  0.00  0.00    +0.000 C 
BRANCH  20  21
ATOM     21  C   UNL     1      41.135  -0.919  12.798  0.00  0.00    +0.000 A 
ATOM     22  C   UNL     1      42.016  -1.091  11.751  0.00  0.00    +0.000 A 
ATOM     23  C   UNL     1      41.703  -1.957  10.705  0.00  0.00    +0.000 A 
ATOM     24  C   UNL     1      40.517  -2.651  10.704  0.00  0.00    +0.000 A 
ATOM     25  F   UNL     1      40.255  -3.478   9.673  0.00  0.00    +0.000 F 
ATOM     26  C   UNL     1      39.638  -2.483  11.742  0.00  0.00    +0.000 A 
ATOM     27  C   UNL     1      39.944  -1.616  12.793  0.00  0.00    +0.000 A 
ENDBRANCH  20  21
ENDBRANCH  19  20
ENDBRANCH  18  19
ENDBRANCH   2  16
BRANCH   1  28
ATOM     28  C   UNL     1      37.869   3.769  16.439  0.00  0.00    +0.000 C 
BRANCH  28  29
ATOM     29  C   UNL     1      37.926   4.140  17.903  0.00  0.00    +0.000 C 
BRANCH  29  30
ATOM     30  C   UNL     1      39.079   5.073  18.199  0.00  0.00    +0.000 C 
BRANCH  30  31
ATOM     31  C   UNL     1      38.643   6.429  18.640  0.00  0.00    +0.000 C 
BRANCH  31  33
ATOM     32  C   UNL     1      40.801   6.273  19.916  0.00  0.00    +0.000 C 
ATOM     33  C   UNL     1      39.433   6.945  19.825  0.00  0.00    +0.000 C 
ENDBRANCH  31  33
ENDBRANCH  30  31
ENDBRANCH  29  30
ENDBRANCH  28  29
ENDBRANCH   1  28
TORSDOF 10
ENDMDL
MODEL 10
REMARK VINA RESULT:      -7.8      4.640      7.852
REMARK  Name = 
REMARK  10 active torsions:
REMARK  status: ('A' for Active; 'I' for Inactive)
REMARK    1  A    between atoms: C_2  and  C_3
REMARK    2  A    between atoms: C_3  and  C_4
REMARK    3  A    between atoms: C_4  and  C_5
REMARK    4  A    between atoms: C_5  and  C_6
REMARK    5  A    between atoms: C_6  and  C_7
REMARK    6  A    between atoms: C_8  and  C_9
REMARK    7  A    between atoms: N_11  and  C_12
REMARK    8  A    between atoms: C_12  and  C_13
REMARK    9  A    between atoms: C_13  and  C_14
REMARK   10  A    between atoms: C_21  and  C_22
REMARK                            x       y       z     vdW  Elec       q    Type
REMARK                         _______ _______ _______ _____ _____    ______ ____
ROOT
ATOM      1  C   UNL     1      38.631  -1.861  14.917  0.00  0.00    +0.000 C 
ATOM      2  C   UNL     1      38.328  -0.792  14.238  0.00  0.00    +0.000 C 
ATOM      3  C   UNL     1      38.763  -1.237  12.782  0.00  0.00    +0.000 C 
ATOM      4  O   UNL     1      38.322  -2.663  12.917  0.00  0.00    +0.000 OA
ATOM      5  N   UNL     1      39.135  -2.876  14.024  0.00  0.00    +0.000 NA
ENDROOT
BRANCH   3   6
ATOM      6  C   UNL     1      40.285  -1.372  12.889  0.00  0.00    +0.000 A 
ATOM      7  C   UNL     1      40.870  -0.763  13.947  0.00  0.00    +0.000 A 
ATOM      8  C   UNL     1      42.272  -0.842  14.147  0.00  0.00    +0.000 A 
ATOM      9  C   UNL     1      43.003  -1.551  13.239  0.00  0.00    +0.000 A 
ATOM     10  C   UNL     1      42.422  -2.166  12.175  0.00  0.00    +0.000 A 
ATOM     11  C   UNL     1      43.153  -2.872  11.259  0.00  0.00    +0.000 A 
ATOM     12  C   UNL     1      42.520  -3.468  10.196  0.00  0.00    +0.000 A 
ATOM     13  C   UNL     1      41.156  -3.384  10.008  0.00  0.00    +0.000 A 
ATOM     14  C   UNL     1      40.399  -2.681  10.916  0.00  0.00    +0.000 A 
ATOM     15  C   UNL     1      41.014  -2.070  11.997  0.00  0.00    +0.000 A 
ENDBRANCH   3   6
BRANCH   2  16
ATOM     16  C   UNL     1      37.787   0.446  14.653  0.00  0.00    +0.000 C 
ATOM     17  O   UNL     1      38.507   1.273  15.256  0.00  0.00    +0.000 OA
ATOM     18  N   UNL     1      36.441   0.894  14.456  0.00  0.00    +0.000 NA
BRANCH  18  19
ATOM     19  C   UNL     1      35.942   2.149  14.890  0.00  0.00    +0.000 C 
BRANCH  19  20
ATOM     20  C   UNL     1      34.859   2.051  15.930  0.00  0.00    +0.000 C 
BRANCH  20  21
ATOM     21  C   UNL     1      35.180   1.053  16.971  0.00  0.00    +0.000 A 
ATOM     22  C   UNL     1      36.103   1.433  17.923  0.00  0.00    +0.000 A 
ATOM     23  C   UNL     1      36.465   0.553  18.942  0.00  0.00    +0.000 A 
ATOM     24  C   UNL     1      35.908  -0.701  19.011  0.00  0.00    +0.000 A 
ATOM     25  F   UNL     1      36.286  -1.520  20.012  0.00  0.00    +0.000 F 
ATOM     26  C   UNL     1      34.990  -1.084  18.067  0.00  0.00    +0.000 A 
ATOM     27  C   UNL     1      34.623  -0.208  17.043  0.00  0.00    +0.000 A 
ENDBRANCH  20  21
ENDBRANCH  19  20
ENDBRANCH  18  19
ENDBRANCH   2  16
BRANCH   1  28
ATOM     28  C   UNL     1      38.419  -1.902  16.386  0.00  0.00    +0.000 C 
BRANCH  28  29
ATOM     29  C   UNL     1      38.260  -3.302  16.932  0.00  0.00    +0.000 C 
BRANCH  29  30
ATOM     30  C   UNL     1      36.809  -3.726  16.969  0.00  0.00    +0.000 C 
BRANCH  30  31
ATOM     31  C   UNL     1      36.345  -4.354  15.698  0.00  0.00    +0.000 C 
BRANCH  31  33
ATOM     32  C   UNL     1      34.085  -4.466  14.606  0.00  0.00    +0.000 C 
ATOM     33  C   UNL     1      35.247  -3.563  15.016  0.00  0.00    +0.000 C 
ENDBRANCH  31  33
ENDBRANCH  30  31
ENDBRANCH  29  30
ENDBRANCH  28  29
ENDBRANCH   1  28
TORSDOF 10
ENDMDL
