MODEL 1
REMARK VINA RESULT:      -8.0      0.000      0.000
REMARK  Name = 
REMARK  8 active torsions:
REMARK  status: ('A' for Active; 'I' for Inactive)
REMARK    1  A    between atoms: O_2  and  C_3
REMARK    2  A    between atoms: C_3  and  C_4
REMARK    3  A    between atoms: C_4  and  C_5
REMARK    4  A    between atoms: C_5  and  N_6
REMARK    5  A    between atoms: N_6  and  C_7
REMARK    6  A    between atoms: C_9  and  C_10
REMARK    7  A    between atoms: C_14  and  C_15
REMARK    8  A    between atoms: C_24  and  C_25
REMARK                            x       y       z     vdW  Elec       q    Type
REMARK                         _______ _______ _______ _____ _____    ______ ____
ROOT
ATOM      1  C   UNL     1      36.127   4.074  14.846  0.00  0.00    +0.000 A 
ATOM      2  C   UNL     1      35.751   2.845  15.350  0.00  0.00    +0.000 A 
ATOM      3  C   UNL     1      36.405   2.333  16.450  0.00  0.00    +0.000 A 
ATOM      4  N   UNL     1      37.401   3.034  17.018  0.00  0.00    +0.000 NA
ATOM      5  C   UNL     1      37.759   4.217  16.529  0.00  0.00    +0.000 A 
ATOM      6  N   UNL     1      37.116   4.718  15.452  0.00  0.00    +0.000 NA
ENDROOT
BRANCH   3   7
ATOM      7  C   UNL     1      36.057   1.048  17.025  0.00  0.00    +0.000 A 
ATOM      8  C   UNL     1      36.055   0.934  18.409  0.00  0.00    +0.000 A 
ATOM      9  N   UNL     1      35.738  -0.242  18.981  0.00  0.00    +0.000 NA
ATOM     10  C   UNL     1      35.427  -1.294  18.209  0.00  0.00    +0.000 A 
ATOM     11  C   UNL     1      35.418  -1.222  16.824  0.00  0.00    +0.000 A 
ATOM     12  C   UNL     1      35.738  -0.034  16.235  0.00  0.00    +0.000 A 
BRANCH  11  13
ATOM     13  C   UNL     1      35.067  -2.425  16.080  0.00  0.00    +0.000 A 
ATOM     14  C   UNL     1      35.952  -3.072  15.242  0.00  0.00    +0.000 A 
ATOM     15  C   UNL     1      35.612  -4.209  14.541  0.00  0.00    +0.000 A 
ATOM     16  C   UNL     1      34.350  -4.760  14.648  0.00  0.00    +0.000 A 
ATOM     17  C   UNL     1      33.962  -5.990  13.896  0.00  0.00    +0.000 C 
ATOM     18  C   UNL     1      33.454  -4.124  15.481  0.00  0.00    +0.000 A 
ATOM     19  C   UNL     1      33.801  -2.983  16.181  0.00  0.00    +0.000 A 
ENDBRANCH  11  13
ENDBRANCH   3   7
BRANCH   5  20
ATOM     20  C   UNL     1      38.853   4.973  17.164  0.00  0.00    +0.000 A 
ATOM     21  C   UNL     1      39.850   5.533  16.394  0.00  0.00    +0.000 A 
ATOM     22  C   UNL     1      40.859   6.233  17.012  0.00  0.00    +0.000 A 
ATOM     23  C   UNL     1      40.886   6.381  18.372  0.00  0.00    +0.000 A 
ATOM     24  C   UNL     1      39.892   5.821  19.120  0.00  0.00    +0.000 A 
ATOM     25  C   UNL     1      38.882   5.122  18.517  0.00  0.00    +0.000 A 
ENDBRANCH   5  20
BRANCH   1  26
ATOM     26  N   UNL     1      35.439   4.580  13.717  0.00  0.00    +0.000 NA
BRANCH  26  27
ATOM     27  C   UNL     1      35.515   5.939  13.258  0.00  0.00    +0.000 C 
BRANCH  27  28
ATOM     28  C   UNL     1      34.370   6.691  13.952  0.00  0.00    +0.000 C 
BRANCH  28  29
ATOM     29  C   UNL     1      34.278   8.038  13.239  0.00  0.00    +0.000 C 
BRANCH  29  31
ATOM     30  C   UNL     1      33.532   8.601  15.327  0.00  0.00    +0.000 C 
ATOM     31  O   UNL     1      34.176   9.059  14.175  0.00  0.00    +0.000 OA
ENDBRANCH  29  31
ENDBRANCH  28  29
ENDBRANCH  27  28
ENDBRANCH  26  27
ENDBRANCH   1  26
TORSDOF 8
ENDMDL
MODEL 2
REMARK VINA RESULT:      -8.0     22.610     25.162
REMARK  Name = 
REMARK  8 active torsions:
REMARK  status: ('A' for Active; 'I' for Inactive)
REMARK    1  A    between atoms: O_2  and  C_3
REMARK    2  A    between atoms: C_3  and  C_4
REMARK    3  A    between atoms: C_4  and  C_5
REMARK    4  A    between atoms: C_5  and  N_6
REMARK    5  A    between atoms: N_6  and  C_7
REMARK    6  A    between atoms: C_9  and  C_10
REMARK    7  A    between atoms: C_14  and  C_15
REMARK    8  A    between atoms: C_24  and  C_25
REMARK                            x       y       z     vdW  Elec       q    Type
REMARK                         _______ _______ _______ _____ _____    ______ ____
ROOT
ATOM      1  C   UNL     1      12.217  -1.560  26.743  0.00  0.00    +0.000 A 
ATOM      2  C   UNL     1      13.594  -1.469  26.760  0.00  0.00    +0.000 A 
ATOM      3  C   UNL     1      14.192  -0.236  26.905  0.00  0.00    +0.000 A 
ATOM      4  N   UNL     1      13.428   0.863  27.028  0.00  0.00    +0.000 NA
ATOM      5  C   UNL     1      12.103   0.770  27.011  0.00  0.00    +0.000 A 
ATOM      6  N   UNL     1      11.519  -0.439  26.870  0.00  0.00    +0.000 NA
ENDROOT
BRANCH   3   7
ATOM      7  C   UNL     1      15.634  -0.075  26.929  0.00  0.00    +0.000 A 
ATOM      8  C   UNL     1      16.220   0.355  28.112  0.00  0.00    +0.000 A 
ATOM      9  N   UNL     1      17.554   0.517  28.174  0.00  0.00    +0.000 NA
ATOM     10  C   UNL     1      18.306   0.261  27.093  0.00  0.00    +0.000 A 
ATOM     11  C   UNL     1      17.759  -0.170  25.894  0.00  0.00    +0.000 A 
ATOM     12  C   UNL     1      16.408  -0.337  25.820  0.00  0.00    +0.000 A 
BRANCH  11  13
ATOM     13  C   UNL     1      18.666  -0.419  24.779  0.00  0.00    +0.000 A 
ATOM     14  C   UNL     1      19.000  -1.689  24.357  0.00  0.00    +0.000 A 
ATOM     15  C   UNL     1      19.860  -1.916  23.303  0.00  0.00    +0.000 A 
ATOM     16  C   UNL     1      20.433  -0.865  22.613  0.00  0.00    +0.000 A 
ATOM     17  C   UNL     1      21.367  -1.090  21.469  0.00  0.00    +0.000 C 
ATOM     18  C   UNL     1      20.108   0.410  23.025  0.00  0.00    +0.000 A 
ATOM     19  C   UNL     1      19.245   0.631  24.083  0.00  0.00    +0.000 A 
ENDBRANCH  11  13
ENDBRANCH   3   7
BRANCH   5  20
ATOM     20  C   UNL     1      11.280   1.985  27.148  0.00  0.00    +0.000 A 
ATOM     21  C   UNL     1      11.708   3.180  26.609  0.00  0.00    +0.000 A 
ATOM     22  C   UNL     1      10.921   4.298  26.752  0.00  0.00    +0.000 A 
ATOM     23  C   UNL     1       9.727   4.241  27.417  0.00  0.00    +0.000 A 
ATOM     24  C   UNL     1       9.317   3.052  27.944  0.00  0.00    +0.000 A 
ATOM     25  C   UNL     1      10.091   1.932  27.809  0.00  0.00    +0.000 A 
ENDBRANCH   5  20
BRANCH   1  26
ATOM     26  N   UNL     1      11.626  -2.838  26.594  0.00  0.00    +0.000 NA
BRANCH  26  27
ATOM     27  C   UNL     1      11.698  -3.635  25.401  0.00  0.00    +0.000 C 
BRANCH  27  28
ATOM     28  C   UNL     1      11.226  -2.732  24.252  0.00  0.00    +0.000 C 
BRANCH  28  29
ATOM     29  C   UNL     1       9.700  -2.765  24.310  0.00  0.00    +0.000 C 
BRANCH  29  31
ATOM     30  C   UNL     1       7.970  -1.369  23.773  0.00  0.00    +0.000 C 
ATOM     31  O   UNL     1       9.207  -1.470  24.414  0.00  0.00    +0.000 OA
ENDBRANCH  29  31
ENDBRANCH  28  29
ENDBRANCH  27  28
ENDBRANCH  26  27
ENDBRANCH   1  26
TORSDOF 8
ENDMDL
MODEL 3
REMARK VINA RESULT:      -7.8     22.525     25.305
REMARK  Name = 
REMARK  8 active torsions:
REMARK  status: ('A' for Active; 'I' for Inactive)
REMARK    1  A    between atoms: O_2  and  C_3
REMARK    2  A    between atoms: C_3  and  C_4
REMARK    3  A    between atoms: C_4  and  C_5
REMARK    4  A    between atoms: C_5  and  N_6
REMARK    5  A    between atoms: N_6  and  C_7
REMARK    6  A    between atoms: C_9  and  C_10
REMARK    7  A    between atoms: C_14  and  C_15
REMARK    8  A    between atoms: C_24  and  C_25
REMARK                            x       y       z     vdW  Elec       q    Type
REMARK                         _______ _______ _______ _____ _____    ______ ____
ROOT
ATOM      1  C   UNL     1      12.238  -1.644  26.640  0.00  0.00    +0.000 A 
ATOM      2  C   UNL     1      13.613  -1.525  26.667  0.00  0.00    +0.000 A 
ATOM      3  C   UNL     1      14.183  -0.280  26.830  0.00  0.00    +0.000 A 
ATOM      4  N   UNL     1      13.395   0.800  26.960  0.00  0.00    +0.000 NA
ATOM      5  C   UNL     1      12.072   0.680  26.934  0.00  0.00    +0.000 A 
ATOM      6  N   UNL     1      11.515  -0.540  26.775  0.00  0.00    +0.000 NA
ENDROOT
BRANCH   3   7
ATOM      7  C   UNL     1      15.621  -0.089  26.866  0.00  0.00    +0.000 A 
ATOM      8  C   UNL     1      16.188   0.357  28.052  0.00  0.00    +0.000 A 
ATOM      9  N   UNL     1      17.518   0.547  28.125  0.00  0.00    +0.000 NA
ATOM     10  C   UNL     1      18.283   0.304  27.051  0.00  0.00    +0.000 A 
ATOM     11  C   UNL     1      17.756  -0.142  25.848  0.00  0.00    +0.000 A 
ATOM     12  C   UNL     1      16.409  -0.337  25.764  0.00  0.00    +0.000 A 
BRANCH  11  13
ATOM     13  C   UNL     1      18.677  -0.374  24.742  0.00  0.00    +0.000 A 
ATOM     14  C   UNL     1      19.269   0.652  24.035  0.00  0.00    +0.000 A 
ATOM     15  C   UNL     1      20.139   0.425  22.989  0.00  0.00    +0.000 A 
ATOM     16  C   UNL     1      20.462  -0.860  22.599  0.00  0.00    +0.000 A 
ATOM     17  C   UNL     1      21.401  -1.127  21.469  0.00  0.00    +0.000 C 
ATOM     18  C   UNL     1      19.877  -1.896  23.297  0.00  0.00    +0.000 A 
ATOM     19  C   UNL     1      19.005  -1.661  24.344  0.00  0.00    +0.000 A 
ENDBRANCH  11  13
ENDBRANCH   3   7
BRANCH   5  20
ATOM     20  C   UNL     1      11.223   1.875  27.079  0.00  0.00    +0.000 A 
ATOM     21  C   UNL     1      11.698   3.115  26.710  0.00  0.00    +0.000 A 
ATOM     22  C   UNL     1      10.885   4.214  26.856  0.00  0.00    +0.000 A 
ATOM     23  C   UNL     1       9.619   4.094  27.359  0.00  0.00    +0.000 A 
ATOM     24  C   UNL     1       9.162   2.859  27.720  0.00  0.00    +0.000 A 
ATOM     25  C   UNL     1       9.962   1.758  27.579  0.00  0.00    +0.000 A 
ENDBRANCH   5  20
BRANCH   1  26
ATOM     26  N   UNL     1      11.675  -2.933  26.473  0.00  0.00    +0.000 NA
BRANCH  26  27
ATOM     27  C   UNL     1      11.858  -4.026  27.386  0.00  0.00    +0.000 C 
BRANCH  27  28
ATOM     28  C   UNL     1      12.302  -5.227  26.536  0.00  0.00    +0.000 C 
BRANCH  28  29
ATOM     29  C   UNL     1      12.270  -6.426  27.480  0.00  0.00    +0.000 C 
BRANCH  29  31
ATOM     30  C   UNL     1      13.753  -7.317  28.977  0.00  0.00    +0.000 C 
ATOM     31  O   UNL     1      13.057  -6.167  28.595  0.00  0.00    +0.000 OA
ENDBRANCH  29  31
ENDBRANCH  28  29
ENDBRANCH  27  28
ENDBRANCH  26  27
ENDBRANCH   1  26
TORSDOF 8
ENDMDL
MODEL 4
REMARK VINA RESULT:      -7.8      3.601      9.430
REMARK  Name = 
REMARK  8 active torsions:
REMARK  status: ('A' for Active; 'I' for Inactive)
REMARK    1  A    between atoms: O_2  and  C_3
REMARK    2  A    between atoms: C_3  and  C_4
REMARK    3  A    between atoms: C_4  and  C_5
REMARK    4  A    between atoms: C_5  and  N_6
REMARK    5  A    between atoms: N_6  and  C_7
REMARK    6  A    between atoms: C_9  and  C_10
REMARK    7  A    between atoms: C_14  and  C_15
REMARK    8  A    between atoms: C_24  and  C_25
REMARK                            x       y       z     vdW  Elec       q    Type
REMARK                         _______ _______ _______ _____ _____    ______ ____
ROOT
ATOM      1  C   UNL     1      38.699   1.015  13.380  0.00  0.00    +0.000 A 
ATOM      2  C   UNL     1      38.844   2.302  13.857  0.00  0.00    +0.000 A 
ATOM      3  C   UNL     1      38.109   2.707  14.951  0.00  0.00    +0.000 A 
ATOM      4  N   UNL     1      37.261   1.846  15.539  0.00  0.00    +0.000 NA
ATOM      5  C   UNL     1      37.126   0.608  15.075  0.00  0.00    +0.000 A 
ATOM      6  N   UNL     1      37.847   0.212  14.004  0.00  0.00    +0.000 NA
ENDROOT
BRANCH   3   7
ATOM      7  C   UNL     1      38.216   4.046  15.499  0.00  0.00    +0.000 A 
ATOM      8  C   UNL     1      37.364   5.022  15.001  0.00  0.00    +0.000 A 
ATOM      9  N   UNL     1      37.433   6.276  15.483  0.00  0.00    +0.000 NA
ATOM     10  C   UNL     1      38.325   6.572  16.440  0.00  0.00    +0.000 A 
ATOM     11  C   UNL     1      39.193   5.626  16.963  0.00  0.00    +0.000 A 
ATOM     12  C   UNL     1      39.131   4.352  16.481  0.00  0.00    +0.000 A 
BRANCH  11  13
ATOM     13  C   UNL     1      40.125   6.054  18.001  0.00  0.00    +0.000 A 
ATOM     14  C   UNL     1      39.760   6.186  19.325  0.00  0.00    +0.000 A 
ATOM     15  C   UNL     1      40.646   6.592  20.300  0.00  0.00    +0.000 A 
ATOM     16  C   UNL     1      41.958   6.889  19.990  0.00  0.00    +0.000 A 
ATOM     17  C   UNL     1      42.934   7.331  21.030  0.00  0.00    +0.000 C 
ATOM     18  C   UNL     1      42.338   6.761  18.669  0.00  0.00    +0.000 A 
ATOM     19  C   UNL     1      41.444   6.354  17.696  0.00  0.00    +0.000 A 
ENDBRANCH  11  13
ENDBRANCH   3   7
BRANCH   5  20
ATOM     20  C   UNL     1      36.193  -0.324  15.732  0.00  0.00    +0.000 A 
ATOM     21  C   UNL     1      35.324   0.129  16.702  0.00  0.00    +0.000 A 
ATOM     22  C   UNL     1      34.464  -0.762  17.299  0.00  0.00    +0.000 A 
ATOM     23  C   UNL     1      34.459  -2.084  16.945  0.00  0.00    +0.000 A 
ATOM     24  C   UNL     1      35.324  -2.517  15.983  0.00  0.00    +0.000 A 
ATOM     25  C   UNL     1      36.185  -1.640  15.382  0.00  0.00    +0.000 A 
ENDBRANCH   5  20
BRANCH   1  26
ATOM     26  N   UNL     1      39.466   0.621  12.256  0.00  0.00    +0.000 NA
BRANCH  26  27
ATOM     27  C   UNL     1      39.618  -0.735  11.808  0.00  0.00    +0.000 C 
BRANCH  27  28
ATOM     28  C   UNL     1      41.022  -1.177  12.246  0.00  0.00    +0.000 C 
BRANCH  28  29
ATOM     29  C   UNL     1      40.798  -2.251  13.307  0.00  0.00    +0.000 C 
BRANCH  29  31
ATOM     30  C   UNL     1      39.944  -2.349  15.426  0.00  0.00    +0.000 C 
ATOM     31  O   UNL     1      40.818  -1.675  14.570  0.00  0.00    +0.000 OA
ENDBRANCH  29  31
ENDBRANCH  28  29
ENDBRANCH  27  28
ENDBRANCH  26  27
ENDBRANCH   1  26
TORSDOF 8
ENDMDL
MODEL 5
REMARK VINA RESULT:      -7.6      3.994      8.885
REMARK  Name = 
REMARK  8 active torsions:
REMARK  status: ('A' for Active; 'I' for Inactive)
REMARK    1  A    between atoms: O_2  and  C_3
REMARK    2  A    between atoms: C_3  and  C_4
REMARK    3  A    between atoms: C_4  and  C_5
REMARK    4  A    between atoms: C_5  and  N_6
REMARK    5  A    between atoms: N_6  and  C_7
REMARK    6  A    between atoms: C_9  and  C_10
REMARK    7  A    between atoms: C_14  and  C_15
REMARK    8  A    between atoms: C_24  and  C_25
REMARK                            x       y       z     vdW  Elec       q    Type
REMARK                         _______ _______ _______ _____ _____    ______ ____
ROOT
ATOM      1  C   UNL     1      37.148  -0.358  15.254  0.00  0.00    +0.000 A 
ATOM      2  C   UNL     1      37.005   1.012  15.337  0.00  0.00    +0.000 A 
ATOM      3  C   UNL     1      38.091   1.825  15.091  0.00  0.00    +0.000 A 
ATOM      4  N   UNL     1      39.275   1.275  14.773  0.00  0.00    +0.000 NA
ATOM      5  C   UNL     1      39.407  -0.044  14.693  0.00  0.00    +0.000 A 
ATOM      6  N   UNL     1      38.342  -0.840  14.934  0.00  0.00    +0.000 NA
ENDROOT
BRANCH   3   7
ATOM      7  C   UNL     1      38.004   3.271  15.163  0.00  0.00    +0.000 A 
ATOM      8  C   UNL     1      37.642   3.960  14.013  0.00  0.00    +0.000 A 
ATOM      9  N   UNL     1      37.551   5.302  14.040  0.00  0.00    +0.000 NA
ATOM     10  C   UNL     1      37.811   5.963  15.177  0.00  0.00    +0.000 A 
ATOM     11  C   UNL     1      38.176   5.313  16.347  0.00  0.00    +0.000 A 
ATOM     12  C   UNL     1      38.271   3.953  16.330  0.00  0.00    +0.000 A 
BRANCH  11  13
ATOM     13  C   UNL     1      38.438   6.127  17.528  0.00  0.00    +0.000 A 
ATOM     14  C   UNL     1      39.302   5.735  18.530  0.00  0.00    +0.000 A 
ATOM     15  C   UNL     1      39.544   6.511  19.644  0.00  0.00    +0.000 A 
ATOM     16  C   UNL     1      38.923   7.733  19.808  0.00  0.00    +0.000 A 
ATOM     17  C   UNL     1      39.170   8.588  21.007  0.00  0.00    +0.000 C 
ATOM     18  C   UNL     1      38.056   8.138  18.814  0.00  0.00    +0.000 A 
ATOM     19  C   UNL     1      37.818   7.356  17.699  0.00  0.00    +0.000 A 
ENDBRANCH  11  13
ENDBRANCH   3   7
BRANCH   5  20
ATOM     20  C   UNL     1      40.713  -0.632  14.343  0.00  0.00    +0.000 A 
ATOM     21  C   UNL     1      41.769   0.181  13.988  0.00  0.00    +0.000 A 
ATOM     22  C   UNL     1      42.975  -0.393  13.665  0.00  0.00    +0.000 A 
ATOM     23  C   UNL     1      43.141  -1.750  13.691  0.00  0.00    +0.000 A 
ATOM     24  C   UNL     1      42.087  -2.541  14.044  0.00  0.00    +0.000 A 
ATOM     25  C   UNL     1      40.881  -1.983  14.367  0.00  0.00    +0.000 A 
ENDBRANCH   5  20
BRANCH   1  26
ATOM     26  N   UNL     1      36.019  -1.172  15.510  0.00  0.00    +0.000 NA
BRANCH  26  27
ATOM     27  C   UNL     1      36.039  -2.366  16.308  0.00  0.00    +0.000 C 
BRANCH  27  28
ATOM     28  C   UNL     1      35.791  -1.919  17.757  0.00  0.00    +0.000 C 
BRANCH  28  29
ATOM     29  C   UNL     1      37.175  -1.830  18.397  0.00  0.00    +0.000 C 
BRANCH  29  31
ATOM     30  C   UNL     1      36.148   0.131  18.975  0.00  0.00    +0.000 C 
ATOM     31  O   UNL     1      37.357  -0.568  18.948  0.00  0.00    +0.000 OA
ENDBRANCH  29  31
ENDBRANCH  28  29
ENDBRANCH  27  28
ENDBRANCH  26  27
ENDBRANCH   1  26
TORSDOF 8
ENDMDL
MODEL 6
REMARK VINA RESULT:      -7.5      3.439      8.053
REMARK  Name = 
REMARK  8 active torsions:
REMARK  status: ('A' for Active; 'I' for Inactive)
REMARK    1  A    between atoms: O_2  and  C_3
REMARK    2  A    between atoms: C_3  and  C_4
REMARK    3  A    between atoms: C_4  and  C_5
REMARK    4  A    between atoms: C_5  and  N_6
REMARK    5  A    between atoms: N_6  and  C_7
REMARK    6  A    between atoms: C_9  and  C_10
REMARK    7  A    between atoms: C_14  and  C_15
REMARK    8  A    between atoms: C_24  and  C_25
REMARK                            x       y       z     vdW  Elec       q    Type
REMARK                         _______ _______ _______ _____ _____    ______ ____
ROOT
ATOM      1  C   UNL     1      37.338   3.359  16.179  0.00  0.00    +0.000 A 
ATOM      2  C   UNL     1      36.720   4.159  15.239  0.00  0.00    +0.000 A 
ATOM      3  C   UNL     1      37.066   5.490  15.146  0.00  0.00    +0.000 A 
ATOM      4  N   UNL     1      37.999   5.993  15.972  0.00  0.00    +0.000 NA
ATOM      5  C   UNL     1      38.591   5.219  16.875  0.00  0.00    +0.000 A 
ATOM      6  N   UNL     1      38.252   3.915  16.964  0.00  0.00    +0.000 NA
ENDROOT
BRANCH   3   7
ATOM      7  C   UNL     1      36.453   6.381  14.180  0.00  0.00    +0.000 A 
ATOM      8  C   UNL     1      36.095   7.654  14.604  0.00  0.00    +0.000 A 
ATOM      9  N   UNL     1      35.523   8.509  13.738  0.00  0.00    +0.000 NA
ATOM     10  C   UNL     1      35.302   8.125  12.472  0.00  0.00    +0.000 A 
ATOM     11  C   UNL     1      35.644   6.863  12.009  0.00  0.00    +0.000 A 
ATOM     12  C   UNL     1      36.225   5.988  12.880  0.00  0.00    +0.000 A 
BRANCH  11  13
ATOM     13  C   UNL     1      35.360   6.547  10.615  0.00  0.00    +0.000 A 
ATOM     14  C   UNL     1      34.450   7.256   9.858  0.00  0.00    +0.000 A 
ATOM     15  C   UNL     1      34.185   6.951   8.540  0.00  0.00    +0.000 A 
ATOM     16  C   UNL     1      34.830   5.905   7.908  0.00  0.00    +0.000 A 
ATOM     17  C   UNL     1      34.558   5.557   6.482  0.00  0.00    +0.000 C 
ATOM     18  C   UNL     1      35.742   5.186   8.653  0.00  0.00    +0.000 A 
ATOM     19  C   UNL     1      36.003   5.498   9.975  0.00  0.00    +0.000 A 
ENDBRANCH  11  13
ENDBRANCH   3   7
BRANCH   5  20
ATOM     20  C   UNL     1      39.613   5.787  17.772  0.00  0.00    +0.000 A 
ATOM     21  C   UNL     1      39.338   5.974  19.110  0.00  0.00    +0.000 A 
ATOM     22  C   UNL     1      40.309   6.506  19.925  0.00  0.00    +0.000 A 
ATOM     23  C   UNL     1      41.536   6.851  19.429  0.00  0.00    +0.000 A 
ATOM     24  C   UNL     1      41.794   6.660  18.103  0.00  0.00    +0.000 A 
ATOM     25  C   UNL     1      40.836   6.131  17.282  0.00  0.00    +0.000 A 
ENDBRANCH   5  20
BRANCH   1  26
ATOM     26  N   UNL     1      36.967   1.995  16.254  0.00  0.00    +0.000 NA
BRANCH  26  27
ATOM     27  C   UNL     1      35.795   1.505  16.925  0.00  0.00    +0.000 C 
BRANCH  27  28
ATOM     28  C   UNL     1      36.084   0.038  17.279  0.00  0.00    +0.000 C 
BRANCH  28  29
ATOM     29  C   UNL     1      36.202   0.003  18.800  0.00  0.00    +0.000 C 
BRANCH  29  31
ATOM     30  C   UNL     1      37.463  -1.847  19.268  0.00  0.00    +0.000 C 
ATOM     31  O   UNL     1      37.463  -0.454  19.163  0.00  0.00    +0.000 OA
ENDBRANCH  29  31
ENDBRANCH  28  29
ENDBRANCH  27  28
ENDBRANCH  26  27
ENDBRANCH   1  26
TORSDOF 8
ENDMDL
MODEL 7
REMARK VINA RESULT:      -7.5      2.016      2.844
REMARK  Name = 
REMARK  8 active torsions:
REMARK  status: ('A' for Active; 'I' for Inactive)
REMARK    1  A    between atoms: O_2  and  C_3
REMARK    2  A    between atoms: C_3  and  C_4
REMARK    3  A    between atoms: C_4  and  C_5
REMARK    4  A    between atoms: C_5  and  N_6
REMARK    5  A    between atoms: N_6  and  C_7
REMARK    6  A    between atoms: C_9  and  C_10
REMARK    7  A    between atoms: C_14  and  C_15
REMARK    8  A    between atoms: C_24  and  C_25
REMARK                            x       y       z     vdW  Elec       q    Type
REMARK                         _______ _______ _______ _____ _____    ______ ____
ROOT
ATOM      1  C   UNL     1      37.267   5.474  14.853  0.00  0.00    +0.000 A 
ATOM      2  C   UNL     1      37.478   4.172  14.446  0.00  0.00    +0.000 A 
ATOM      3  C   UNL     1      38.436   3.410  15.078  0.00  0.00    +0.000 A 
ATOM      4  N   UNL     1      39.153   3.941  16.082  0.00  0.00    +0.000 NA
ATOM      5  C   UNL     1      38.947   5.195  16.470  0.00  0.00    +0.000 A 
ATOM      6  N   UNL     1      38.007   5.941  15.850  0.00  0.00    +0.000 NA
ENDROOT
BRANCH   3   7
ATOM      7  C   UNL     1      38.705   2.036  14.696  0.00  0.00    +0.000 A 
ATOM      8  C   UNL     1      39.924   1.755  14.093  0.00  0.00    +0.000 A 
ATOM      9  N   UNL     1      40.210   0.494  13.723  0.00  0.00    +0.000 NA
ATOM     10  C   UNL     1      39.314  -0.481  13.939  0.00  0.00    +0.000 A 
ATOM     11  C   UNL     1      38.086  -0.242  14.537  0.00  0.00    +0.000 A 
ATOM     12  C   UNL     1      37.787   1.033  14.915  0.00  0.00    +0.000 A 
BRANCH  11  13
ATOM     13  C   UNL     1      37.185  -1.374  14.724  0.00  0.00    +0.000 A 
ATOM     14  C   UNL     1      37.335  -2.567  14.048  0.00  0.00    +0.000 A 
ATOM     15  C   UNL     1      36.479  -3.633  14.230  0.00  0.00    +0.000 A 
ATOM     16  C   UNL     1      35.417  -3.551  15.109  0.00  0.00    +0.000 A 
ATOM     17  C   UNL     1      34.478  -4.693  15.320  0.00  0.00    +0.000 C 
ATOM     18  C   UNL     1      35.255  -2.363  15.791  0.00  0.00    +0.000 A 
ATOM     19  C   UNL     1      36.117  -1.298  15.605  0.00  0.00    +0.000 A 
ENDBRANCH  11  13
ENDBRANCH   3   7
BRANCH   5  20
ATOM     20  C   UNL     1      39.742   5.763  17.573  0.00  0.00    +0.000 A 
ATOM     21  C   UNL     1      39.187   5.912  18.826  0.00  0.00    +0.000 A 
ATOM     22  C   UNL     1      39.951   6.445  19.837  0.00  0.00    +0.000 A 
ATOM     23  C   UNL     1      41.246   6.827  19.617  0.00  0.00    +0.000 A 
ATOM     24  C   UNL     1      41.781   6.673  18.372  0.00  0.00    +0.000 A 
ATOM     25  C   UNL     1      41.031   6.144  17.358  0.00  0.00    +0.000 A 
ENDBRANCH   5  20
BRANCH   1  26
ATOM     26  N   UNL     1      36.276   6.238  14.189  0.00  0.00    +0.000 NA
BRANCH  26  27
ATOM     27  C   UNL     1      35.375   5.718  13.198  0.00  0.00    +0.000 C 
BRANCH  27  28
ATOM     28  C   UNL     1      34.234   6.739  13.077  0.00  0.00    +0.000 C 
BRANCH  28  29
ATOM     29  C   UNL     1      33.860   7.102  14.512  0.00  0.00    +0.000 C 
BRANCH  29  31
ATOM     30  C   UNL     1      34.509   9.294  14.598  0.00  0.00    +0.000 C 
ATOM     31  O   UNL     1      33.420   8.419  14.564  0.00  0.00    +0.000 OA
ENDBRANCH  29  31
ENDBRANCH  28  29
ENDBRANCH  27  28
ENDBRANCH  26  27
ENDBRANCH   1  26
TORSDOF 8
ENDMDL
MODEL 8
REMARK VINA RESULT:      -7.4      3.502      8.371
REMARK  Name = 
REMARK  8 active torsions:
REMARK  status: ('A' for Active; 'I' for Inactive)
REMARK    1  A    between atoms: O_2  and  C_3
REMARK    2  A    between atoms: C_3  and  C_4
REMARK    3  A    between atoms: C_4  and  C_5
REMARK    4  A    between atoms: C_5  and  N_6
REMARK    5  A    between atoms: N_6  and  C_7
REMARK    6  A    between atoms: C_9  and  C_10
REMARK    7  A    between atoms: C_14  and  C_15
REMARK    8  A    between atoms: C_24  and  C_25
REMARK                            x       y       z     vdW  Elec       q    Type
REMARK                         _______ _______ _______ _____ _____    ______ ____
ROOT
ATOM      1  C   UNL     1      37.541   1.177  12.295  0.00  0.00    +0.000 A 
ATOM      2  C   UNL     1      37.573   2.443  12.844  0.00  0.00    +0.000 A 
ATOM      3  C   UNL     1      37.950   2.602  14.160  0.00  0.00    +0.000 A 
ATOM      4  N   UNL     1      38.280   1.526  14.893  0.00  0.00    +0.000 NA
ATOM      5  C   UNL     1      38.248   0.309  14.359  0.00  0.00    +0.000 A 
ATOM      6  N   UNL     1      37.879   0.154  13.069  0.00  0.00    +0.000 NA
ENDROOT
BRANCH   3   7
ATOM      7  C   UNL     1      38.004   3.906  14.794  0.00  0.00    +0.000 A 
ATOM      8  C   UNL     1      37.123   4.883  14.348  0.00  0.00    +0.000 A 
ATOM      9  N   UNL     1      37.143   6.105  14.910  0.00  0.00    +0.000 NA
ATOM     10  C   UNL     1      38.012   6.369  15.896  0.00  0.00    +0.000 A 
ATOM     11  C   UNL     1      38.908   5.421  16.370  0.00  0.00    +0.000 A 
ATOM     12  C   UNL     1      38.896   4.180  15.807  0.00  0.00    +0.000 A 
BRANCH  11  13
ATOM     13  C   UNL     1      39.812   5.813  17.445  0.00  0.00    +0.000 A 
ATOM     14  C   UNL     1      41.128   6.164  17.225  0.00  0.00    +0.000 A 
ATOM     15  C   UNL     1      41.976   6.533  18.247  0.00  0.00    +0.000 A 
ATOM     16  C   UNL     1      41.540   6.568  19.557  0.00  0.00    +0.000 A 
ATOM     17  C   UNL     1      42.442   6.964  20.679  0.00  0.00    +0.000 C 
ATOM     18  C   UNL     1      40.226   6.219  19.792  0.00  0.00    +0.000 A 
ATOM     19  C   UNL     1      39.380   5.850  18.763  0.00  0.00    +0.000 A 
ENDBRANCH  11  13
ENDBRANCH   3   7
BRANCH   5  20
ATOM     20  C   UNL     1      38.613  -0.861  15.177  0.00  0.00    +0.000 A 
ATOM     21  C   UNL     1      39.683  -1.654  14.818  0.00  0.00    +0.000 A 
ATOM     22  C   UNL     1      40.002  -2.740  15.598  0.00  0.00    +0.000 A 
ATOM     23  C   UNL     1      39.277  -3.043  16.717  0.00  0.00    +0.000 A 
ATOM     24  C   UNL     1      38.221  -2.250  17.059  0.00  0.00    +0.000 A 
ATOM     25  C   UNL     1      37.893  -1.166  16.292  0.00  0.00    +0.000 A 
ENDBRANCH   5  20
BRANCH   1  26
ATOM     26  N   UNL     1      37.152   1.038  10.940  0.00  0.00    +0.000 NA
BRANCH  26  27
ATOM     27  C   UNL     1      37.919   1.507   9.820  0.00  0.00    +0.000 C 
BRANCH  27  28
ATOM     28  C   UNL     1      36.927   1.671   8.659  0.00  0.00    +0.000 C 
BRANCH  28  29
ATOM     29  C   UNL     1      36.269   3.032   8.876  0.00  0.00    +0.000 C 
BRANCH  29  31
ATOM     30  C   UNL     1      36.567   4.925  10.125  0.00  0.00    +0.000 C 
ATOM     31  O   UNL     1      37.202   3.931   9.377  0.00  0.00    +0.000 OA
ENDBRANCH  29  31
ENDBRANCH  28  29
ENDBRANCH  27  28
ENDBRANCH  26  27
ENDBRANCH   1  26
TORSDOF 8
ENDMDL
MODEL 9
REMARK VINA RESULT:      -7.4      3.487      4.603
REMARK  Name = 
REMARK  8 active torsions:
REMARK  status: ('A' for Active; 'I' for Inactive)
REMARK    1  A    between atoms: O_2  and  C_3
REMARK    2  A    between atoms: C_3  and  C_4
REMARK    3  A    between atoms: C_4  and  C_5
REMARK    4  A    between atoms: C_5  and  N_6
REMARK    5  A    between atoms: N_6  and  C_7
REMARK    6  A    between atoms: C_9  and  C_10
REMARK    7  A    between atoms: C_14  and  C_15
REMARK    8  A    between atoms: C_24  and  C_25
REMARK                            x       y       z     vdW  Elec       q    Type
REMARK                         _______ _______ _______ _____ _____    ______ ____
ROOT
ATOM      1  C   UNL     1      36.808   6.121  14.695  0.00  0.00    +0.000 A 
ATOM      2  C   UNL     1      36.920   4.779  14.390  0.00  0.00    +0.000 A 
ATOM      3  C   UNL     1      37.592   3.941  15.254  0.00  0.00    +0.000 A 
ATOM      4  N   UNL     1      38.129   4.437  16.380  0.00  0.00    +0.000 NA
ATOM      5  C   UNL     1      38.018   5.729  16.669  0.00  0.00    +0.000 A 
ATOM      6  N   UNL     1      37.359   6.550  15.823  0.00  0.00    +0.000 NA
ENDROOT
BRANCH   3   7
ATOM      7  C   UNL     1      37.744   2.522  14.988  0.00  0.00    +0.000 A 
ATOM      8  C   UNL     1      36.593   1.751  14.898  0.00  0.00    +0.000 A 
ATOM      9  N   UNL     1      36.692   0.431  14.655  0.00  0.00    +0.000 NA
ATOM     10  C   UNL     1      37.902  -0.127  14.501  0.00  0.00    +0.000 A 
ATOM     11  C   UNL     1      39.075   0.609  14.584  0.00  0.00    +0.000 A 
ATOM     12  C   UNL     1      38.985   1.946  14.831  0.00  0.00    +0.000 A 
BRANCH  11  13
ATOM     13  C   UNL     1      40.338  -0.097  14.403  0.00  0.00    +0.000 A 
ATOM     14  C   UNL     1      40.490  -1.440  14.680  0.00  0.00    +0.000 A 
ATOM     15  C   UNL     1      41.688  -2.101  14.507  0.00  0.00    +0.000 A 
ATOM     16  C   UNL     1      42.806  -1.437  14.041  0.00  0.00    +0.000 A 
ATOM     17  C   UNL     1      44.112  -2.133  13.847  0.00  0.00    +0.000 C 
ATOM     18  C   UNL     1      42.669  -0.093  13.760  0.00  0.00    +0.000 A 
ATOM     19  C   UNL     1      41.465   0.564  13.936  0.00  0.00    +0.000 A 
ENDBRANCH  11  13
ENDBRANCH   3   7
BRANCH   5  20
ATOM     20  C   UNL     1      38.613   6.258  17.910  0.00  0.00    +0.000 A 
ATOM     21  C   UNL     1      38.088   7.384  18.508  0.00  0.00    +0.000 A 
ATOM     22  C   UNL     1      38.663   7.856  19.664  0.00  0.00    +0.000 A 
ATOM     23  C   UNL     1      39.741   7.229  20.225  0.00  0.00    +0.000 A 
ATOM     24  C   UNL     1      40.249   6.116  19.621  0.00  0.00    +0.000 A 
ATOM     25  C   UNL     1      39.686   5.635  18.470  0.00  0.00    +0.000 A 
ENDBRANCH   5  20
BRANCH   1  26
ATOM     26  N   UNL     1      36.113   6.963  13.793  0.00  0.00    +0.000 NA
BRANCH  26  27
ATOM     27  C   UNL     1      35.068   6.525  12.911  0.00  0.00    +0.000 C 
BRANCH  27  28
ATOM     28  C   UNL     1      33.746   6.954  13.564  0.00  0.00    +0.000 C 
BRANCH  28  29
ATOM     29  C   UNL     1      34.048   8.278  14.263  0.00  0.00    +0.000 C 
BRANCH  29  31
ATOM     30  C   UNL     1      33.756   9.470  16.192  0.00  0.00    +0.000 C 
ATOM     31  O   UNL     1      33.377   8.332  15.477  0.00  0.00    +0.000 OA
ENDBRANCH  29  31
ENDBRANCH  28  29
ENDBRANCH  27  28
ENDBRANCH  26  27
ENDBRANCH   1  26
TORSDOF 8
ENDMDL
MODEL 10
REMARK VINA RESULT:      -7.3      1.980      2.687
REMARK  Name = 
REMARK  8 active torsions:
REMARK  status: ('A' for Active; 'I' for Inactive)
REMARK    1  A    between atoms: O_2  and  C_3
REMARK    2  A    between atoms: C_3  and  C_4
REMARK    3  A    between atoms: C_4  and  C_5
REMARK    4  A    between atoms: C_5  and  N_6
REMARK    5  A    between atoms: N_6  and  C_7
REMARK    6  A    between atoms: C_9  and  C_10
REMARK    7  A    between atoms: C_14  and  C_15
REMARK    8  A    between atoms: C_24  and  C_25
REMARK                            x       y       z     vdW  Elec       q    Type
REMARK                         _______ _______ _______ _____ _____    ______ ____
ROOT
ATOM      1  C   UNL     1      37.855   5.653  14.473  0.00  0.00    +0.000 A 
ATOM      2  C   UNL     1      37.076   4.535  14.694  0.00  0.00    +0.000 A 
ATOM      3  C   UNL     1      37.209   3.837  15.875  0.00  0.00    +0.000 A 
ATOM      4  N   UNL     1      38.095   4.251  16.796  0.00  0.00    +0.000 NA
ATOM      5  C   UNL     1      38.842   5.328  16.579  0.00  0.00    +0.000 A 
ATOM      6  N   UNL     1      38.710   6.012  15.422  0.00  0.00    +0.000 NA
ENDROOT
BRANCH   3   7
ATOM      7  C   UNL     1      36.420   2.655  16.166  0.00  0.00    +0.000 A 
ATOM      8  C   UNL     1      35.050   2.811  16.330  0.00  0.00    +0.000 A 
ATOM      9  N   UNL     1      34.284   1.740  16.601  0.00  0.00    +0.000 NA
ATOM     10  C   UNL     1      34.850   0.529  16.711  0.00  0.00    +0.000 A 
ATOM     11  C   UNL     1      36.214   0.330  16.555  0.00  0.00    +0.000 A 
ATOM     12  C   UNL     1      36.999   1.410  16.280  0.00  0.00    +0.000 A 
BRANCH  11  13
ATOM     13  C   UNL     1      36.727  -1.028  16.696  0.00  0.00    +0.000 A 
ATOM     14  C   UNL     1      35.917  -2.106  16.990  0.00  0.00    +0.000 A 
ATOM     15  C   UNL     1      36.410  -3.387  17.123  0.00  0.00    +0.000 A 
ATOM     16  C   UNL     1      37.756  -3.651  16.964  0.00  0.00    +0.000 A 
ATOM     17  C   UNL     1      38.310  -5.031  17.105  0.00  0.00    +0.000 C 
ATOM     18  C   UNL     1      38.577  -2.583  16.670  0.00  0.00    +0.000 A 
ATOM     19  C   UNL     1      38.077  -1.301  16.538  0.00  0.00    +0.000 A 
ENDBRANCH  11  13
ENDBRANCH   3   7
BRANCH   5  20
ATOM     20  C   UNL     1      39.809   5.770  17.601  0.00  0.00    +0.000 A 
ATOM     21  C   UNL     1      41.087   6.134  17.237  0.00  0.00    +0.000 A 
ATOM     22  C   UNL     1      41.969   6.541  18.210  0.00  0.00    +0.000 A 
ATOM     23  C   UNL     1      41.597   6.590  19.525  0.00  0.00    +0.000 A 
ATOM     24  C   UNL     1      40.327   6.227  19.869  0.00  0.00    +0.000 A 
ATOM     25  C   UNL     1      39.441   5.819  18.911  0.00  0.00    +0.000 A 
ENDBRANCH   5  20
BRANCH   1  26
ATOM     26  N   UNL     1      37.700   6.354  13.253  0.00  0.00    +0.000 NA
BRANCH  26  27
ATOM     27  C   UNL     1      37.362   7.746  13.150  0.00  0.00    +0.000 C 
BRANCH  27  28
ATOM     28  C   UNL     1      36.471   7.882  11.907  0.00  0.00    +0.000 C 
BRANCH  28  29
ATOM     29  C   UNL     1      35.260   6.991  12.175  0.00  0.00    +0.000 C 
BRANCH  29  31
ATOM     30  C   UNL     1      33.753   6.836  13.889  0.00  0.00    +0.000 C 
ATOM     31  O   UNL     1      34.328   7.683  12.939  0.00  0.00    +0.000 OA
ENDBRANCH  29  31
ENDBRANCH  28  29
ENDBRANCH  27  28
ENDBRANCH  26  27
ENDBRANCH   1  26
TORSDOF 8
ENDMDL
