MODEL 1
REMARK VINA RESULT:      -7.2      0.000      0.000
REMARK  Name = 
REMARK  4 active torsions:
REMARK  status: ('A' for Active; 'I' for Inactive)
REMARK    1  A    between atoms: C_2  and  O_3
REMARK    2  A    between atoms: O_3  and  C_4
REMARK    3  A    between atoms: C_9  and  C_10
REMARK    4  A    between atoms: N_12  and  C_13
REMARK                            x       y       z     vdW  Elec       q    Type
REMARK                         _______ _______ _______ _____ _____    ______ ____
ROOT
ATOM      1  C   UNL     1      16.330  11.564  36.200  0.00  0.00    +0.000 C 
ATOM      2  O   UNL     1      16.868  12.673  35.980  0.00  0.00    +0.000 OA
ATOM      3  N   UNL     1      15.616  10.961  35.138  0.00  0.00    +0.000 NA
ENDROOT
BRANCH   3   4
ATOM      4  C   UNL     1      15.492  11.559  33.854  0.00  0.00    +0.000 A 
ATOM      5  C   UNL     1      14.605  12.580  33.590  0.00  0.00    +0.000 A 
ATOM      6  C   UNL     1      14.486  13.160  32.342  0.00  0.00    +0.000 A 
ATOM      7  C   UNL     1      13.533  14.263  32.049  0.00  0.00    +0.000 C 
ATOM      8  C   UNL     1      15.277  12.716  31.294  0.00  0.00    +0.000 A 
ATOM      9  C   UNL     1      16.158  11.704  31.545  0.00  0.00    +0.000 A 
ATOM     10  C   UNL     1      16.277  11.120  32.810  0.00  0.00    +0.000 A 
ATOM     11  O   UNL     1      17.177  10.093  33.049  0.00  0.00    +0.000 OA
ENDBRANCH   3   4
BRANCH   1  17
ATOM     12  C   UNL     1      15.327  10.883  38.351  0.00  0.00    +0.000 A 
ATOM     13  N   UNL     1      15.365  10.279  39.546  0.00  0.00    +0.000 NA
ATOM     14  C   UNL     1      16.468   9.652  39.970  0.00  0.00    +0.000 A 
ATOM     15  C   UNL     1      17.566   9.646  39.140  0.00  0.00    +0.000 A 
ATOM     16  C   UNL     1      17.570  10.253  37.907  0.00  0.00    +0.000 A 
ATOM     17  C   UNL     1      16.416  10.897  37.486  0.00  0.00    +0.000 A 
BRANCH  12  18
ATOM     18  O   UNL     1      14.182  11.544  37.889  0.00  0.00    +0.000 OA
BRANCH  18  20
ATOM     19  C   UNL     1      11.892  11.251  37.122  0.00  0.00    +0.000 C 
ATOM     20  C   UNL     1      12.941  10.918  38.149  0.00  0.00    +0.000 C 
ENDBRANCH  18  20
ENDBRANCH  12  18
ENDBRANCH   1  17
TORSDOF 4
ENDMDL
MODEL 2
REMARK VINA RESULT:      -6.9      1.298      2.535
REMARK  Name = 
REMARK  4 active torsions:
REMARK  status: ('A' for Active; 'I' for Inactive)
REMARK    1  A    between atoms: C_2  and  O_3
REMARK    2  A    between atoms: O_3  and  C_4
REMARK    3  A    between atoms: C_9  and  C_10
REMARK    4  A    between atoms: N_12  and  C_13
REMARK                            x       y       z     vdW  Elec       q    Type
REMARK                         _______ _______ _______ _____ _____    ______ ____
ROOT
ATOM      1  C   UNL     1      15.701  11.954  35.947  0.00  0.00    +0.000 C 
ATOM      2  O   UNL     1      16.006  13.162  35.820  0.00  0.00    +0.000 OA
ATOM      3  N   UNL     1      15.327  11.248  34.781  0.00  0.00    +0.000 NA
ENDROOT
BRANCH   3   4
ATOM      4  C   UNL     1      15.284  11.850  33.493  0.00  0.00    +0.000 A 
ATOM      5  C   UNL     1      14.460  12.913  33.194  0.00  0.00    +0.000 A 
ATOM      6  C   UNL     1      14.420  13.497  31.943  0.00  0.00    +0.000 A 
ATOM      7  C   UNL     1      13.534  14.644  31.612  0.00  0.00    +0.000 C 
ATOM      8  C   UNL     1      15.232  13.014  30.928  0.00  0.00    +0.000 A 
ATOM      9  C   UNL     1      16.052  11.961  31.214  0.00  0.00    +0.000 A 
ATOM     10  C   UNL     1      16.090  11.373  32.482  0.00  0.00    +0.000 A 
ATOM     11  O   UNL     1      16.929  10.304  32.757  0.00  0.00    +0.000 OA
ENDBRANCH   3   4
BRANCH   1  17
ATOM     12  C   UNL     1      16.884  10.660  37.685  0.00  0.00    +0.000 A 
ATOM     13  N   UNL     1      16.947  10.023  38.862  0.00  0.00    +0.000 NA
ATOM     14  C   UNL     1      15.881   9.948  39.666  0.00  0.00    +0.000 A 
ATOM     15  C   UNL     1      14.713  10.545  39.247  0.00  0.00    +0.000 A 
ATOM     16  C   UNL     1      14.606  11.208  38.048  0.00  0.00    +0.000 A 
ATOM     17  C   UNL     1      15.723  11.276  37.230  0.00  0.00    +0.000 A 
BRANCH  12  18
ATOM     18  O   UNL     1      17.989  10.750  36.830  0.00  0.00    +0.000 OA
BRANCH  18  20
ATOM     19  C   UNL     1      17.919   8.731  35.474  0.00  0.00    +0.000 C 
ATOM     20  C   UNL     1      18.647   9.538  36.516  0.00  0.00    +0.000 C 
ENDBRANCH  18  20
ENDBRANCH  12  18
ENDBRANCH   1  17
TORSDOF 4
ENDMDL
MODEL 3
REMARK VINA RESULT:      -6.4      1.921      6.176
REMARK  Name = 
REMARK  4 active torsions:
REMARK  status: ('A' for Active; 'I' for Inactive)
REMARK    1  A    between atoms: C_2  and  O_3
REMARK    2  A    between atoms: O_3  and  C_4
REMARK    3  A    between atoms: C_9  and  C_10
REMARK    4  A    between atoms: N_12  and  C_13
REMARK                            x       y       z     vdW  Elec       q    Type
REMARK                         _______ _______ _______ _____ _____    ______ ____
ROOT
ATOM      1  C   UNL     1      17.099  11.265  36.354  0.00  0.00    +0.000 C 
ATOM      2  O   UNL     1      17.575  12.237  36.983  0.00  0.00    +0.000 OA
ATOM      3  N   UNL     1      17.160   9.994  36.970  0.00  0.00    +0.000 NA
ENDROOT
BRANCH   3   4
ATOM      4  C   UNL     1      17.733   9.785  38.255  0.00  0.00    +0.000 A 
ATOM      5  C   UNL     1      16.985   9.777  39.412  0.00  0.00    +0.000 A 
ATOM      6  C   UNL     1      17.542   9.574  40.659  0.00  0.00    +0.000 A 
ATOM      7  C   UNL     1      16.742   9.563  41.913  0.00  0.00    +0.000 C 
ATOM      8  C   UNL     1      18.908   9.367  40.782  0.00  0.00    +0.000 A 
ATOM      9  C   UNL     1      19.658   9.374  39.641  0.00  0.00    +0.000 A 
ATOM     10  C   UNL     1      19.090   9.579  38.380  0.00  0.00    +0.000 A 
ATOM     11  O   UNL     1      19.865   9.583  37.231  0.00  0.00    +0.000 OA
ENDBRANCH   3   4
BRANCH   1  17
ATOM     12  C   UNL     1      15.318  12.119  34.873  0.00  0.00    +0.000 A 
ATOM     13  N   UNL     1      14.731  12.272  33.678  0.00  0.00    +0.000 NA
ATOM     14  C   UNL     1      15.262  11.737  32.574  0.00  0.00    +0.000 A 
ATOM     15  C   UNL     1      16.432  11.022  32.701  0.00  0.00    +0.000 A 
ATOM     16  C   UNL     1      17.066  10.842  33.906  0.00  0.00    +0.000 A 
ATOM     17  C   UNL     1      16.499  11.405  35.039  0.00  0.00    +0.000 A 
BRANCH  12  18
ATOM     18  O   UNL     1      14.778  12.671  36.041  0.00  0.00    +0.000 OA
BRANCH  18  20
ATOM     19  C   UNL     1      13.737  11.351  37.800  0.00  0.00    +0.000 C 
ATOM     20  C   UNL     1      13.568  12.105  36.509  0.00  0.00    +0.000 C 
ENDBRANCH  18  20
ENDBRANCH  12  18
ENDBRANCH   1  17
TORSDOF 4
ENDMDL
MODEL 4
REMARK VINA RESULT:      -6.0     20.589     23.117
REMARK  Name = 
REMARK  4 active torsions:
REMARK  status: ('A' for Active; 'I' for Inactive)
REMARK    1  A    between atoms: C_2  and  O_3
REMARK    2  A    between atoms: O_3  and  C_4
REMARK    3  A    between atoms: C_9  and  C_10
REMARK    4  A    between atoms: N_12  and  C_13
REMARK                            x       y       z     vdW  Elec       q    Type
REMARK                         _______ _______ _______ _____ _____    ______ ____
ROOT
ATOM      1  C   UNL     1      29.840  23.191  24.743  0.00  0.00    +0.000 C 
ATOM      2  O   UNL     1      30.522  22.141  24.764  0.00  0.00    +0.000 OA
ATOM      3  N   UNL     1      30.469  24.388  25.157  0.00  0.00    +0.000 NA
ENDROOT
BRANCH   3   4
ATOM      4  C   UNL     1      31.824  24.439  25.588  0.00  0.00    +0.000 A 
ATOM      5  C   UNL     1      32.882  24.529  24.711  0.00  0.00    +0.000 A 
ATOM      6  C   UNL     1      34.197  24.579  25.132  0.00  0.00    +0.000 A 
ATOM      7  C   UNL     1      35.346  24.676  24.192  0.00  0.00    +0.000 C 
ATOM      8  C   UNL     1      34.492  24.540  26.486  0.00  0.00    +0.000 A 
ATOM      9  C   UNL     1      33.450  24.451  27.363  0.00  0.00    +0.000 A 
ATOM     10  C   UNL     1      32.120  24.401  26.933  0.00  0.00    +0.000 A 
ATOM     11  O   UNL     1      31.073  24.311  27.837  0.00  0.00    +0.000 OA
ENDBRANCH   3   4
BRANCH   1  17
ATOM     12  C   UNL     1      28.128  23.467  22.987  0.00  0.00    +0.000 A 
ATOM     13  N   UNL     1      26.862  23.496  22.550  0.00  0.00    +0.000 NA
ATOM     14  C   UNL     1      25.837  23.278  23.381  0.00  0.00    +0.000 A 
ATOM     15  C   UNL     1      26.123  23.022  24.704  0.00  0.00    +0.000 A 
ATOM     16  C   UNL     1      27.406  22.984  25.193  0.00  0.00    +0.000 A 
ATOM     17  C   UNL     1      28.453  23.212  24.314  0.00  0.00    +0.000 A 
BRANCH  12  18
ATOM     18  O   UNL     1      29.213  23.692  22.132  0.00  0.00    +0.000 OA
BRANCH  18  20
ATOM     19  C   UNL     1      29.387  26.119  22.134  0.00  0.00    +0.000 C 
ATOM     20  C   UNL     1      29.162  24.862  21.338  0.00  0.00    +0.000 C 
ENDBRANCH  18  20
ENDBRANCH  12  18
ENDBRANCH   1  17
TORSDOF 4
ENDMDL
MODEL 5
REMARK VINA RESULT:      -5.9     18.581     21.347
REMARK  Name = 
REMARK  4 active torsions:
REMARK  status: ('A' for Active; 'I' for Inactive)
REMARK    1  A    between atoms: C_2  and  O_3
REMARK    2  A    between atoms: O_3  and  C_4
REMARK    3  A    between atoms: C_9  and  C_10
REMARK    4  A    between atoms: N_12  and  C_13
REMARK                            x       y       z     vdW  Elec       q    Type
REMARK                         _______ _______ _______ _____ _____    ______ ____
ROOT
ATOM      1  C   UNL     1      27.155  24.270  24.762  0.00  0.00    +0.000 C 
ATOM      2  O   UNL     1      26.124  23.561  24.809  0.00  0.00    +0.000 OA
ATOM      3  N   UNL     1      27.666  24.763  25.985  0.00  0.00    +0.000 NA
ENDROOT
BRANCH   3   4
ATOM      4  C   UNL     1      27.060  24.486  27.242  0.00  0.00    +0.000 A 
ATOM      5  C   UNL     1      27.320  23.338  27.958  0.00  0.00    +0.000 A 
ATOM      6  C   UNL     1      26.731  23.072  29.179  0.00  0.00    +0.000 A 
ATOM      7  C   UNL     1      27.006  21.835  29.958  0.00  0.00    +0.000 C 
ATOM      8  C   UNL     1      25.840  23.979  29.730  0.00  0.00    +0.000 A 
ATOM      9  C   UNL     1      25.576  25.120  29.028  0.00  0.00    +0.000 A 
ATOM     10  C   UNL     1      26.174  25.386  27.793  0.00  0.00    +0.000 A 
ATOM     11  O   UNL     1      25.895  26.550  27.092  0.00  0.00    +0.000 OA
ENDBRANCH   3   4
BRANCH   1  17
ATOM     12  C   UNL     1      28.867  23.799  23.047  0.00  0.00    +0.000 A 
ATOM     13  N   UNL     1      29.512  24.060  21.902  0.00  0.00    +0.000 NA
ATOM     14  C   UNL     1      29.179  25.111  21.145  0.00  0.00    +0.000 A 
ATOM     15  C   UNL     1      28.151  25.918  21.578  0.00  0.00    +0.000 A 
ATOM     16  C   UNL     1      27.464  25.686  22.744  0.00  0.00    +0.000 A 
ATOM     17  C   UNL     1      27.825  24.591  23.515  0.00  0.00    +0.000 A 
BRANCH  12  18
ATOM     18  O   UNL     1      29.201  22.704  23.854  0.00  0.00    +0.000 OA
BRANCH  18  20
ATOM     19  C   UNL     1      30.384  22.382  25.956  0.00  0.00    +0.000 C 
ATOM     20  C   UNL     1      30.459  22.753  24.499  0.00  0.00    +0.000 C 
ENDBRANCH  18  20
ENDBRANCH  12  18
ENDBRANCH   1  17
TORSDOF 4
ENDMDL
MODEL 6
REMARK VINA RESULT:      -5.9      2.732      4.804
REMARK  Name = 
REMARK  4 active torsions:
REMARK  status: ('A' for Active; 'I' for Inactive)
REMARK    1  A    between atoms: C_2  and  O_3
REMARK    2  A    between atoms: O_3  and  C_4
REMARK    3  A    between atoms: C_9  and  C_10
REMARK    4  A    between atoms: N_12  and  C_13
REMARK                            x       y       z     vdW  Elec       q    Type
REMARK                         _______ _______ _______ _____ _____    ______ ____
ROOT
ATOM      1  C   UNL     1      17.531   9.931  37.743  0.00  0.00    +0.000 C 
ATOM      2  O   UNL     1      17.281   9.491  36.598  0.00  0.00    +0.000 OA
ATOM      3  N   UNL     1      16.722  10.985  38.228  0.00  0.00    +0.000 NA
ENDROOT
BRANCH   3   4
ATOM      4  C   UNL     1      15.656  11.550  37.476  0.00  0.00    +0.000 A 
ATOM      5  C   UNL     1      14.335  11.232  37.700  0.00  0.00    +0.000 A 
ATOM      6  C   UNL     1      13.301  11.783  36.968  0.00  0.00    +0.000 A 
ATOM      7  C   UNL     1      11.871  11.446  37.205  0.00  0.00    +0.000 C 
ATOM      8  C   UNL     1      13.575  12.695  35.961  0.00  0.00    +0.000 A 
ATOM      9  C   UNL     1      14.881  13.017  35.731  0.00  0.00    +0.000 A 
ATOM     10  C   UNL     1      15.926  12.457  36.474  0.00  0.00    +0.000 A 
ATOM     11  O   UNL     1      17.248  12.794  36.228  0.00  0.00    +0.000 OA
ENDBRANCH   3   4
BRANCH   1  17
ATOM     12  C   UNL     1      19.872   9.968  38.525  0.00  0.00    +0.000 A 
ATOM     13  N   UNL     1      20.888   9.510  39.268  0.00  0.00    +0.000 NA
ATOM     14  C   UNL     1      20.728   8.471  40.095  0.00  0.00    +0.000 A 
ATOM     15  C   UNL     1      19.485   7.885  40.160  0.00  0.00    +0.000 A 
ATOM     16  C   UNL     1      18.416   8.322  39.416  0.00  0.00    +0.000 A 
ATOM     17  C   UNL     1      18.603   9.401  38.566  0.00  0.00    +0.000 A 
BRANCH  12  18
ATOM     18  O   UNL     1      20.020  11.054  37.654  0.00  0.00    +0.000 OA
BRANCH  18  20
ATOM     19  C   UNL     1      19.855  13.346  38.454  0.00  0.00    +0.000 C 
ATOM     20  C   UNL     1      20.740  12.168  38.146  0.00  0.00    +0.000 C 
ENDBRANCH  18  20
ENDBRANCH  12  18
ENDBRANCH   1  17
TORSDOF 4
ENDMDL
MODEL 7
REMARK VINA RESULT:      -5.8     18.271     19.882
REMARK  Name = 
REMARK  4 active torsions:
REMARK  status: ('A' for Active; 'I' for Inactive)
REMARK    1  A    between atoms: C_2  and  O_3
REMARK    2  A    between atoms: O_3  and  C_4
REMARK    3  A    between atoms: C_9  and  C_10
REMARK    4  A    between atoms: N_12  and  C_13
REMARK                            x       y       z     vdW  Elec       q    Type
REMARK                         _______ _______ _______ _____ _____    ______ ____
ROOT
ATOM      1  C   UNL     1      30.119  23.094  27.564  0.00  0.00    +0.000 C 
ATOM      2  O   UNL     1      29.997  24.324  27.369  0.00  0.00    +0.000 OA
ATOM      3  N   UNL     1      29.600  22.222  26.579  0.00  0.00    +0.000 NA
ENDROOT
BRANCH   3   4
ATOM      4  C   UNL     1      28.958  22.685  25.398  0.00  0.00    +0.000 A 
ATOM      5  C   UNL     1      27.602  22.920  25.330  0.00  0.00    +0.000 A 
ATOM      6  C   UNL     1      26.979  23.370  24.182  0.00  0.00    +0.000 A 
ATOM      7  C   UNL     1      25.517  23.627  24.101  0.00  0.00    +0.000 C 
ATOM      8  C   UNL     1      27.725  23.604  23.037  0.00  0.00    +0.000 A 
ATOM      9  C   UNL     1      29.069  23.374  23.094  0.00  0.00    +0.000 A 
ATOM     10  C   UNL     1      29.696  22.918  24.258  0.00  0.00    +0.000 A 
ATOM     11  O   UNL     1      31.063  22.689  24.299  0.00  0.00    +0.000 OA
ENDBRANCH   3   4
BRANCH   1  17
ATOM     12  C   UNL     1      30.120  22.581  29.979  0.00  0.00    +0.000 A 
ATOM     13  N   UNL     1      30.679  22.092  31.093  0.00  0.00    +0.000 NA
ATOM     14  C   UNL     1      31.899  21.544  31.073  0.00  0.00    +0.000 A 
ATOM     15  C   UNL     1      32.565  21.498  29.869  0.00  0.00    +0.000 A 
ATOM     16  C   UNL     1      32.029  21.988  28.703  0.00  0.00    +0.000 A 
ATOM     17  C   UNL     1      30.763  22.551  28.746  0.00  0.00    +0.000 A 
BRANCH  12  18
ATOM     18  O   UNL     1      28.845  23.159  29.980  0.00  0.00    +0.000 OA
BRANCH  18  20
ATOM     19  C   UNL     1      26.458  22.737  29.764  0.00  0.00    +0.000 C 
ATOM     20  C   UNL     1      27.772  22.324  30.371  0.00  0.00    +0.000 C 
ENDBRANCH  18  20
ENDBRANCH  12  18
ENDBRANCH   1  17
TORSDOF 4
ENDMDL
MODEL 8
REMARK VINA RESULT:      -5.8     18.381     21.065
REMARK  Name = 
REMARK  4 active torsions:
REMARK  status: ('A' for Active; 'I' for Inactive)
REMARK    1  A    between atoms: C_2  and  O_3
REMARK    2  A    between atoms: O_3  and  C_4
REMARK    3  A    between atoms: C_9  and  C_10
REMARK    4  A    between atoms: N_12  and  C_13
REMARK                            x       y       z     vdW  Elec       q    Type
REMARK                         _______ _______ _______ _____ _____    ______ ____
ROOT
ATOM      1  C   UNL     1      27.196  23.880  25.073  0.00  0.00    +0.000 C 
ATOM      2  O   UNL     1      26.182  23.151  25.160  0.00  0.00    +0.000 OA
ATOM      3  N   UNL     1      27.762  24.360  26.277  0.00  0.00    +0.000 NA
ENDROOT
BRANCH   3   4
ATOM      4  C   UNL     1      27.229  24.050  27.558  0.00  0.00    +0.000 A 
ATOM      5  C   UNL     1      26.418  24.916  28.258  0.00  0.00    +0.000 A 
ATOM      6  C   UNL     1      25.901  24.614  29.502  0.00  0.00    +0.000 A 
ATOM      7  C   UNL     1      25.024  25.543  30.263  0.00  0.00    +0.000 C 
ATOM      8  C   UNL     1      26.193  23.395  30.095  0.00  0.00    +0.000 A 
ATOM      9  C   UNL     1      26.996  22.529  29.411  0.00  0.00    +0.000 A 
ATOM     10  C   UNL     1      27.518  22.839  28.150  0.00  0.00    +0.000 A 
ATOM     11  O   UNL     1      28.332  21.949  27.468  0.00  0.00    +0.000 OA
ENDBRANCH   3   4
BRANCH   1  17
ATOM     12  C   UNL     1      28.953  23.605  23.360  0.00  0.00    +0.000 A 
ATOM     13  N   UNL     1      29.537  23.905  22.192  0.00  0.00    +0.000 NA
ATOM     14  C   UNL     1      29.025  24.837  21.381  0.00  0.00    +0.000 A 
ATOM     15  C   UNL     1      27.878  25.482  21.784  0.00  0.00    +0.000 A 
ATOM     16  C   UNL     1      27.248  25.207  22.973  0.00  0.00    +0.000 A 
ATOM     17  C   UNL     1      27.794  24.236  23.799  0.00  0.00    +0.000 A 
BRANCH  12  18
ATOM     18  O   UNL     1      29.474  22.633  24.223  0.00  0.00    +0.000 OA
BRANCH  18  20
ATOM     19  C   UNL     1      31.159  23.310  25.842  0.00  0.00    +0.000 C 
ATOM     20  C   UNL     1      30.860  22.705  24.496  0.00  0.00    +0.000 C 
ENDBRANCH  18  20
ENDBRANCH  12  18
ENDBRANCH   1  17
TORSDOF 4
ENDMDL
MODEL 9
REMARK VINA RESULT:      -5.8     21.593     23.569
REMARK  Name = 
REMARK  4 active torsions:
REMARK  status: ('A' for Active; 'I' for Inactive)
REMARK    1  A    between atoms: C_2  and  O_3
REMARK    2  A    between atoms: O_3  and  C_4
REMARK    3  A    between atoms: C_9  and  C_10
REMARK    4  A    between atoms: N_12  and  C_13
REMARK                            x       y       z     vdW  Elec       q    Type
REMARK                         _______ _______ _______ _____ _____    ______ ____
ROOT
ATOM      1  C   UNL     1      21.893  -8.069  24.590  0.00  0.00    +0.000 C 
ATOM      2  O   UNL     1      21.011  -8.561  23.850  0.00  0.00    +0.000 OA
ATOM      3  N   UNL     1      21.480  -7.537  25.833  0.00  0.00    +0.000 NA
ENDROOT
BRANCH   3   4
ATOM      4  C   UNL     1      20.124  -7.540  26.263  0.00  0.00    +0.000 A 
ATOM      5  C   UNL     1      19.539  -8.628  26.873  0.00  0.00    +0.000 A 
ATOM      6  C   UNL     1      18.222  -8.630  27.290  0.00  0.00    +0.000 A 
ATOM      7  C   UNL     1      17.582  -9.799  27.950  0.00  0.00    +0.000 C 
ATOM      8  C   UNL     1      17.434  -7.504  27.101  0.00  0.00    +0.000 A 
ATOM      9  C   UNL     1      18.005  -6.421  26.497  0.00  0.00    +0.000 A 
ATOM     10  C   UNL     1      19.339  -6.423  26.076  0.00  0.00    +0.000 A 
ATOM     11  O   UNL     1      19.905  -5.315  25.464  0.00  0.00    +0.000 OA
ENDBRANCH   3   4
BRANCH   1  17
ATOM     12  C   UNL     1      24.089  -9.168  24.335  0.00  0.00    +0.000 A 
ATOM     13  N   UNL     1      25.386  -9.177  24.001  0.00  0.00    +0.000 NA
ATOM     14  C   UNL     1      25.987  -8.079  23.531  0.00  0.00    +0.000 A 
ATOM     15  C   UNL     1      25.231  -6.935  23.400  0.00  0.00    +0.000 A 
ATOM     16  C   UNL     1      23.899  -6.883  23.731  0.00  0.00    +0.000 A 
ATOM     17  C   UNL     1      23.295  -8.032  24.215  0.00  0.00    +0.000 A 
BRANCH  12  18
ATOM     18  O   UNL     1      23.441 -10.307  24.828  0.00  0.00    +0.000 OA
BRANCH  18  20
ATOM     19  C   UNL     1      22.770 -10.689  27.136  0.00  0.00    +0.000 C 
ATOM     20  C   UNL     1      23.858 -10.772  26.098  0.00  0.00    +0.000 C 
ENDBRANCH  18  20
ENDBRANCH  12  18
ENDBRANCH   1  17
TORSDOF 4
ENDMDL
MODEL 10
REMARK VINA RESULT:      -5.6      3.988      6.799
REMARK  Name = 
REMARK  4 active torsions:
REMARK  status: ('A' for Active; 'I' for Inactive)
REMARK    1  A    between atoms: C_2  and  O_3
REMARK    2  A    between atoms: O_3  and  C_4
REMARK    3  A    between atoms: C_9  and  C_10
REMARK    4  A    between atoms: N_12  and  C_13
REMARK                            x       y       z     vdW  Elec       q    Type
REMARK                         _______ _______ _______ _____ _____    ______ ____
ROOT
ATOM      1  C   UNL     1      19.127  11.331  37.784  0.00  0.00    +0.000 C 
ATOM      2  O   UNL     1      19.824  12.134  38.444  0.00  0.00    +0.000 OA
ATOM      3  N   UNL     1      19.757  10.157  37.309  0.00  0.00    +0.000 NA
ENDROOT
BRANCH   3   4
ATOM      4  C   UNL     1      21.128   9.863  37.550  0.00  0.00    +0.000 A 
ATOM      5  C   UNL     1      22.122  10.150  36.641  0.00  0.00    +0.000 A 
ATOM      6  C   UNL     1      23.453   9.864  36.877  0.00  0.00    +0.000 A 
ATOM      7  C   UNL     1      24.533  10.171  35.902  0.00  0.00    +0.000 C 
ATOM      8  C   UNL     1      23.832   9.266  38.069  0.00  0.00    +0.000 A 
ATOM      9  C   UNL     1      22.853   8.978  38.976  0.00  0.00    +0.000 A 
ATOM     10  C   UNL     1      21.507   9.268  38.734  0.00  0.00    +0.000 A 
ATOM     11  O   UNL     1      20.525   8.969  39.666  0.00  0.00    +0.000 OA
ENDBRANCH   3   4
BRANCH   1  17
ATOM     12  C   UNL     1      16.741  10.786  38.100  0.00  0.00    +0.000 A 
ATOM     13  N   UNL     1      15.435  10.969  37.865  0.00  0.00    +0.000 NA
ATOM     14  C   UNL     1      15.008  11.924  37.032  0.00  0.00    +0.000 A 
ATOM     15  C   UNL     1      15.954  12.715  36.420  0.00  0.00    +0.000 A 
ATOM     16  C   UNL     1      17.302  12.561  36.632  0.00  0.00    +0.000 A 
ATOM     17  C   UNL     1      17.723  11.566  37.500  0.00  0.00    +0.000 A 
BRANCH  12  18
ATOM     18  O   UNL     1      17.207   9.792  38.969  0.00  0.00    +0.000 OA
BRANCH  18  20
ATOM     19  C   UNL     1      17.100   8.576  41.075  0.00  0.00    +0.000 C 
ATOM     20  C   UNL     1      16.489   9.618  40.176  0.00  0.00    +0.000 C 
ENDBRANCH  18  20
ENDBRANCH  12  18
ENDBRANCH   1  17
TORSDOF 4
ENDMDL
