MODEL 1
REMARK VINA RESULT:      -7.7      0.000      0.000
REMARK  Name = 
REMARK  6 active torsions:
REMARK  status: ('A' for Active; 'I' for Inactive)
REMARK    1  A    between atoms: C_2  and  C_3
REMARK    2  A    between atoms: C_3  and  N_4
REMARK    3  A    between atoms: C_5  and  C_7
REMARK    4  A    between atoms: N_13  and  C_14
REMARK    5  A    between atoms: C_14  and  C_15
REMARK    6  A    between atoms: C_25  and  C_26
REMARK                            x       y       z     vdW  Elec       q    Type
REMARK                         _______ _______ _______ _____ _____    ______ ____
ROOT
ATOM      1  C   UNL     1      35.661  -0.662  16.100  0.00  0.00    +0.000 A 
ATOM      2  C   UNL     1      34.994   0.253  16.879  0.00  0.00    +0.000 A 
ATOM      3  C   UNL     1      34.989   1.569  16.522  0.00  0.00    +0.000 A 
ATOM      4  C   UNL     1      35.632   1.992  15.408  0.00  0.00    +0.000 A 
ATOM      5  C   UNL     1      36.309   1.145  14.594  0.00  0.00    +0.000 A 
ATOM      6  C   UNL     1      36.306  -0.209  14.976  0.00  0.00    +0.000 A 
ATOM      7  N   UNL     1      36.971   1.446  13.389  0.00  0.00    +0.000 N 
ATOM      8  C   UNL     1      37.005   2.749  12.852  0.00  0.00    +0.000 C 
ATOM      9  O   UNL     1      37.622   2.954  11.764  0.00  0.00    +0.000 OA
ATOM     10  C   UNL     1      36.374   3.914  13.456  0.00  0.00    +0.000 C 
ATOM     11  C   UNL     1      36.325   5.084  12.885  0.00  0.00    +0.000 C 
ATOM     12  S   UNL     1      35.595   3.741  15.048  0.00  0.00    +0.000 S 
ENDROOT
BRANCH  11  13
ATOM     13  C   UNL     1      35.684   6.204  13.542  0.00  0.00    +0.000 A 
ATOM     14  C   UNL     1      34.325   6.350  13.442  0.00  0.00    +0.000 A 
ATOM     15  C   UNL     1      33.670   7.421  14.043  0.00  0.00    +0.000 A 
ATOM     16  C   UNL     1      34.414   8.364  14.761  0.00  0.00    +0.000 A 
ATOM     17  C   UNL     1      35.771   8.224  14.864  0.00  0.00    +0.000 A 
ATOM     18  C   UNL     1      36.409   7.156  14.263  0.00  0.00    +0.000 A 
ENDBRANCH  11  13
BRANCH   1  20
ATOM     19  N   UNL     1      36.693  -2.949  16.093  0.00  0.00    +0.000 NA
ATOM     20  C   UNL     1      35.660  -2.069  16.475  0.00  0.00    +0.000 C 
ATOM     21  O   UNL     1      34.711  -2.532  17.165  0.00  0.00    +0.000 OA
BRANCH  19  22
ATOM     22  C   UNL     1      36.735  -4.351  16.444  0.00  0.00    +0.000 C 
BRANCH  22  24
ATOM     23  C   UNL     1      38.581  -3.750  18.006  0.00  0.00    +0.000 C 
ATOM     24  C   UNL     1      38.057  -4.788  17.011  0.00  0.00    +0.000 C 
ENDBRANCH  22  24
ENDBRANCH  19  22
ENDBRANCH   1  20
BRANCH   7  25
ATOM     25  C   UNL     1      37.662   0.363  12.642  0.00  0.00    +0.000 C 
BRANCH  25  26
ATOM     26  C   UNL     1      38.953   0.044  13.240  0.00  0.00    +0.000 A 
ATOM     27  C   UNL     1      39.965   0.957  13.254  0.00  0.00    +0.000 A 
ATOM     28  C   UNL     1      41.188   0.662  13.819  0.00  0.00    +0.000 A 
ATOM     29  C   UNL     1      41.362  -0.585  14.373  0.00  0.00    +0.000 A 
ATOM     30  C   UNL     1      40.361  -1.550  14.385  0.00  0.00    +0.000 A 
ATOM     31  C   UNL     1      40.636  -2.856  15.000  0.00  0.00    +0.000 C 
ATOM     32  C   UNL     1      39.158  -1.189  13.801  0.00  0.00    +0.000 A 
ENDBRANCH  25  26
ENDBRANCH   7  25
TORSDOF 6
ENDMDL
MODEL 2
REMARK VINA RESULT:      -7.4      3.298      8.077
REMARK  Name = 
REMARK  6 active torsions:
REMARK  status: ('A' for Active; 'I' for Inactive)
REMARK    1  A    between atoms: C_2  and  C_3
REMARK    2  A    between atoms: C_3  and  N_4
REMARK    3  A    between atoms: C_5  and  C_7
REMARK    4  A    between atoms: N_13  and  C_14
REMARK    5  A    between atoms: C_14  and  C_15
REMARK    6  A    between atoms: C_25  and  C_26
REMARK                            x       y       z     vdW  Elec       q    Type
REMARK                         _______ _______ _______ _____ _____    ______ ____
ROOT
ATOM      1  C   UNL     1      38.509   3.278  14.970  0.00  0.00    +0.000 A 
ATOM      2  C   UNL     1      39.700   3.326  14.286  0.00  0.00    +0.000 A 
ATOM      3  C   UNL     1      40.171   2.205  13.670  0.00  0.00    +0.000 A 
ATOM      4  C   UNL     1      39.483   1.040  13.719  0.00  0.00    +0.000 A 
ATOM      5  C   UNL     1      38.301   0.922  14.374  0.00  0.00    +0.000 A 
ATOM      6  C   UNL     1      37.829   2.086  15.007  0.00  0.00    +0.000 A 
ATOM      7  N   UNL     1      37.468  -0.209  14.459  0.00  0.00    +0.000 N 
ATOM      8  C   UNL     1      37.783  -1.428  13.824  0.00  0.00    +0.000 C 
ATOM      9  O   UNL     1      36.991  -2.411  13.942  0.00  0.00    +0.000 OA
ATOM     10  C   UNL     1      38.975  -1.664  13.022  0.00  0.00    +0.000 C 
ATOM     11  C   UNL     1      39.190  -2.762  12.355  0.00  0.00    +0.000 C 
ATOM     12  S   UNL     1      40.204  -0.379  12.909  0.00  0.00    +0.000 S 
ENDROOT
BRANCH  11  13
ATOM     13  C   UNL     1      40.399  -2.935  11.577  0.00  0.00    +0.000 A 
ATOM     14  C   UNL     1      41.536  -3.380  12.198  0.00  0.00    +0.000 A 
ATOM     15  C   UNL     1      42.725  -3.544  11.492  0.00  0.00    +0.000 A 
ATOM     16  C   UNL     1      42.756  -3.248  10.124  0.00  0.00    +0.000 A 
ATOM     17  C   UNL     1      41.624  -2.802   9.499  0.00  0.00    +0.000 A 
ATOM     18  C   UNL     1      40.450  -2.644  10.211  0.00  0.00    +0.000 A 
ENDBRANCH  11  13
BRANCH   1  20
ATOM     19  N   UNL     1      38.850   5.404  16.259  0.00  0.00    +0.000 NA
ATOM     20  C   UNL     1      38.000   4.477  15.622  0.00  0.00    +0.000 C 
ATOM     21  O   UNL     1      36.760   4.709  15.626  0.00  0.00    +0.000 OA
BRANCH  19  22
ATOM     22  C   UNL     1      38.390   6.606  16.916  0.00  0.00    +0.000 C 
BRANCH  22  24
ATOM     23  C   UNL     1      39.627   5.666  18.864  0.00  0.00    +0.000 C 
ATOM     24  C   UNL     1      38.444   6.528  18.417  0.00  0.00    +0.000 C 
ENDBRANCH  22  24
ENDBRANCH  19  22
ENDBRANCH   1  20
BRANCH   7  25
ATOM     25  C   UNL     1      36.204  -0.132  15.237  0.00  0.00    +0.000 C 
BRANCH  25  26
ATOM     26  C   UNL     1      36.439  -0.368  16.656  0.00  0.00    +0.000 A 
ATOM     27  C   UNL     1      35.806   0.377  17.606  0.00  0.00    +0.000 A 
ATOM     28  C   UNL     1      36.024   0.159  18.950  0.00  0.00    +0.000 A 
ATOM     29  C   UNL     1      36.901  -0.836  19.312  0.00  0.00    +0.000 A 
ATOM     30  C   UNL     1      37.571  -1.624  18.382  0.00  0.00    +0.000 A 
ATOM     31  C   UNL     1      38.490  -2.667  18.860  0.00  0.00    +0.000 C 
ATOM     32  C   UNL     1      37.307  -1.353  17.049  0.00  0.00    +0.000 A 
ENDBRANCH  25  26
ENDBRANCH   7  25
TORSDOF 6
ENDMDL
MODEL 3
REMARK VINA RESULT:      -7.4      4.130      7.189
REMARK  Name = 
REMARK  6 active torsions:
REMARK  status: ('A' for Active; 'I' for Inactive)
REMARK    1  A    between atoms: C_2  and  C_3
REMARK    2  A    between atoms: C_3  and  N_4
REMARK    3  A    between atoms: C_5  and  C_7
REMARK    4  A    between atoms: N_13  and  C_14
REMARK    5  A    between atoms: C_14  and  C_15
REMARK    6  A    between atoms: C_25  and  C_26
REMARK                            x       y       z     vdW  Elec       q    Type
REMARK                         _______ _______ _______ _____ _____    ______ ____
ROOT
ATOM      1  C   UNL     1      36.541   6.030  12.323  0.00  0.00    +0.000 A 
ATOM      2  C   UNL     1      37.305   7.138  12.602  0.00  0.00    +0.000 A 
ATOM      3  C   UNL     1      37.901   7.258  13.823  0.00  0.00    +0.000 A 
ATOM      4  C   UNL     1      37.753   6.300  14.769  0.00  0.00    +0.000 A 
ATOM      5  C   UNL     1      37.015   5.181  14.560  0.00  0.00    +0.000 A 
ATOM      6  C   UNL     1      36.405   5.073  13.297  0.00  0.00    +0.000 A 
ATOM      7  N   UNL     1      36.824   4.095  15.434  0.00  0.00    +0.000 N 
ATOM      8  C   UNL     1      37.423   4.039  16.709  0.00  0.00    +0.000 C 
ATOM      9  O   UNL     1      37.208   3.032  17.451  0.00  0.00    +0.000 OA
ATOM     10  C   UNL     1      38.292   5.065  17.266  0.00  0.00    +0.000 C 
ATOM     11  C   UNL     1      38.922   4.940  18.400  0.00  0.00    +0.000 C 
ATOM     12  S   UNL     1      38.545   6.570  16.346  0.00  0.00    +0.000 S 
ENDROOT
BRANCH  11  13
ATOM     13  C   UNL     1      39.771   6.001  18.899  0.00  0.00    +0.000 A 
ATOM     14  C   UNL     1      41.066   6.086  18.459  0.00  0.00    +0.000 A 
ATOM     15  C   UNL     1      41.921   7.080  18.926  0.00  0.00    +0.000 A 
ATOM     16  C   UNL     1      41.448   8.008  19.861  0.00  0.00    +0.000 A 
ATOM     17  C   UNL     1      40.156   7.928  20.305  0.00  0.00    +0.000 A 
ATOM     18  C   UNL     1      39.317   6.937  19.833  0.00  0.00    +0.000 A 
ENDBRANCH  11  13
BRANCH   1  20
ATOM     19  N   UNL     1      36.415   5.031  10.025  0.00  0.00    +0.000 NA
ATOM     20  C   UNL     1      35.911   5.897  11.017  0.00  0.00    +0.000 C 
ATOM     21  O   UNL     1      34.879   6.571  10.747  0.00  0.00    +0.000 OA
BRANCH  19  22
ATOM     22  C   UNL     1      35.822   4.865   8.717  0.00  0.00    +0.000 C 
BRANCH  22  24
ATOM     23  C   UNL     1      35.679   3.499   6.637  0.00  0.00    +0.000 C 
ATOM     24  C   UNL     1      36.051   3.503   8.122  0.00  0.00    +0.000 C 
ENDBRANCH  22  24
ENDBRANCH  19  22
ENDBRANCH   1  20
BRANCH   7  25
ATOM     25  C   UNL     1      35.967   2.957  15.013  0.00  0.00    +0.000 C 
BRANCH  25  26
ATOM     26  C   UNL     1      36.758   1.754  14.781  0.00  0.00    +0.000 A 
ATOM     27  C   UNL     1      37.996   1.825  14.216  0.00  0.00    +0.000 A 
ATOM     28  C   UNL     1      38.749   0.692  13.994  0.00  0.00    +0.000 A 
ATOM     29  C   UNL     1      38.217  -0.522  14.362  0.00  0.00    +0.000 A 
ATOM     30  C   UNL     1      36.959  -0.648  14.942  0.00  0.00    +0.000 A 
ATOM     31  C   UNL     1      36.471  -1.986  15.303  0.00  0.00    +0.000 C 
ATOM     32  C   UNL     1      36.256   0.530  15.137  0.00  0.00    +0.000 A 
ENDBRANCH  25  26
ENDBRANCH   7  25
TORSDOF 6
ENDMDL
MODEL 4
REMARK VINA RESULT:      -7.2      3.875      6.169
REMARK  Name = 
REMARK  6 active torsions:
REMARK  status: ('A' for Active; 'I' for Inactive)
REMARK    1  A    between atoms: C_2  and  C_3
REMARK    2  A    between atoms: C_3  and  N_4
REMARK    3  A    between atoms: C_5  and  C_7
REMARK    4  A    between atoms: N_13  and  C_14
REMARK    5  A    between atoms: C_14  and  C_15
REMARK    6  A    between atoms: C_25  and  C_26
REMARK                            x       y       z     vdW  Elec       q    Type
REMARK                         _______ _______ _______ _____ _____    ______ ____
ROOT
ATOM      1  C   UNL     1      38.395   4.336  15.927  0.00  0.00    +0.000 A 
ATOM      2  C   UNL     1      38.354   5.359  15.010  0.00  0.00    +0.000 A 
ATOM      3  C   UNL     1      38.184   5.074  13.687  0.00  0.00    +0.000 A 
ATOM      4  C   UNL     1      38.055   3.796  13.259  0.00  0.00    +0.000 A 
ATOM      5  C   UNL     1      38.085   2.739  14.109  0.00  0.00    +0.000 A 
ATOM      6  C   UNL     1      38.262   3.048  15.470  0.00  0.00    +0.000 A 
ATOM      7  N   UNL     1      37.914   1.376  13.802  0.00  0.00    +0.000 N 
ATOM      8  C   UNL     1      37.668   0.924  12.489  0.00  0.00    +0.000 C 
ATOM      9  O   UNL     1      37.526  -0.319  12.279  0.00  0.00    +0.000 OA
ATOM     10  C   UNL     1      37.561   1.784  11.320  0.00  0.00    +0.000 C 
ATOM     11  C   UNL     1      37.224   1.354  10.137  0.00  0.00    +0.000 C 
ATOM     12  S   UNL     1      37.873   3.528  11.503  0.00  0.00    +0.000 S 
ENDROOT
BRANCH  11  13
ATOM     13  C   UNL     1      37.137   2.263   9.013  0.00  0.00    +0.000 A 
ATOM     14  C   UNL     1      38.250   2.485   8.245  0.00  0.00    +0.000 A 
ATOM     15  C   UNL     1      38.217   3.363   7.166  0.00  0.00    +0.000 A 
ATOM     16  C   UNL     1      37.024   4.029   6.861  0.00  0.00    +0.000 A 
ATOM     17  C   UNL     1      35.909   3.812   7.624  0.00  0.00    +0.000 A 
ATOM     18  C   UNL     1      35.956   2.937   8.693  0.00  0.00    +0.000 A 
ENDBRANCH  11  13
BRANCH   1  20
ATOM     19  N   UNL     1      39.246   5.791  17.785  0.00  0.00    +0.000 NA
ATOM     20  C   UNL     1      38.567   4.639  17.341  0.00  0.00    +0.000 C 
ATOM     21  O   UNL     1      38.098   3.854  18.211  0.00  0.00    +0.000 OA
BRANCH  19  22
ATOM     22  C   UNL     1      39.440   6.133  19.176  0.00  0.00    +0.000 C 
BRANCH  22  24
ATOM     23  C   UNL     1      41.752   6.516  18.331  0.00  0.00    +0.000 C 
ATOM     24  C   UNL     1      40.886   6.263  19.567  0.00  0.00    +0.000 C 
ENDBRANCH  22  24
ENDBRANCH  19  22
ENDBRANCH   1  20
BRANCH   7  25
ATOM     25  C   UNL     1      37.987   0.365  14.888  0.00  0.00    +0.000 C 
BRANCH  25  26
ATOM     26  C   UNL     1      39.212  -0.420  14.801  0.00  0.00    +0.000 A 
ATOM     27  C   UNL     1      39.219  -1.748  15.112  0.00  0.00    +0.000 A 
ATOM     28  C   UNL     1      40.374  -2.497  15.031  0.00  0.00    +0.000 A 
ATOM     29  C   UNL     1      41.528  -1.866  14.626  0.00  0.00    +0.000 A 
ATOM     30  C   UNL     1      41.573  -0.516  14.297  0.00  0.00    +0.000 A 
ATOM     31  C   UNL     1      42.851   0.074  13.873  0.00  0.00    +0.000 C 
ATOM     32  C   UNL     1      40.378   0.177  14.400  0.00  0.00    +0.000 A 
ENDBRANCH  25  26
ENDBRANCH   7  25
TORSDOF 6
ENDMDL
MODEL 5
REMARK VINA RESULT:      -7.2      4.223      9.386
REMARK  Name = 
REMARK  6 active torsions:
REMARK  status: ('A' for Active; 'I' for Inactive)
REMARK    1  A    between atoms: C_2  and  C_3
REMARK    2  A    between atoms: C_3  and  N_4
REMARK    3  A    between atoms: C_5  and  C_7
REMARK    4  A    between atoms: N_13  and  C_14
REMARK    5  A    between atoms: C_14  and  C_15
REMARK    6  A    between atoms: C_25  and  C_26
REMARK                            x       y       z     vdW  Elec       q    Type
REMARK                         _______ _______ _______ _____ _____    ______ ____
ROOT
ATOM      1  C   UNL     1      39.422   6.917  17.955  0.00  0.00    +0.000 A 
ATOM      2  C   UNL     1      39.489   5.769  18.707  0.00  0.00    +0.000 A 
ATOM      3  C   UNL     1      38.778   4.670  18.327  0.00  0.00    +0.000 A 
ATOM      4  C   UNL     1      38.004   4.689  17.216  0.00  0.00    +0.000 A 
ATOM      5  C   UNL     1      37.893   5.786  16.428  0.00  0.00    +0.000 A 
ATOM      6  C   UNL     1      38.630   6.913  16.833  0.00  0.00    +0.000 A 
ATOM      7  N   UNL     1      37.168   5.921  15.229  0.00  0.00    +0.000 N 
ATOM      8  C   UNL     1      36.431   4.857  14.669  0.00  0.00    +0.000 C 
ATOM      9  O   UNL     1      35.797   5.044  13.587  0.00  0.00    +0.000 OA
ATOM     10  C   UNL     1      36.331   3.522  15.243  0.00  0.00    +0.000 C 
ATOM     11  C   UNL     1      35.736   2.526  14.651  0.00  0.00    +0.000 C 
ATOM     12  S   UNL     1      37.085   3.208  16.826  0.00  0.00    +0.000 S 
ENDROOT
BRANCH  11  13
ATOM     13  C   UNL     1      35.669   1.223  15.278  0.00  0.00    +0.000 A 
ATOM     14  C   UNL     1      36.411   0.193  14.761  0.00  0.00    +0.000 A 
ATOM     15  C   UNL     1      36.363  -1.081  15.321  0.00  0.00    +0.000 A 
ATOM     16  C   UNL     1      35.544  -1.310  16.433  0.00  0.00    +0.000 A 
ATOM     17  C   UNL     1      34.801  -0.286  16.953  0.00  0.00    +0.000 A 
ATOM     18  C   UNL     1      34.857   0.974  16.387  0.00  0.00    +0.000 A 
ENDBRANCH  11  13
BRANCH   1  20
ATOM     19  N   UNL     1      40.229   8.540  19.690  0.00  0.00    +0.000 NA
ATOM     20  C   UNL     1      40.188   8.090  18.355  0.00  0.00    +0.000 C 
ATOM     21  O   UNL     1      40.841   8.736  17.490  0.00  0.00    +0.000 OA
BRANCH  19  22
ATOM     22  C   UNL     1      40.976   9.697  20.132  0.00  0.00    +0.000 C 
BRANCH  22  24
ATOM     23  C   UNL     1      38.710  10.193  21.044  0.00  0.00    +0.000 C 
ATOM     24  C   UNL     1      40.175  10.636  20.991  0.00  0.00    +0.000 C 
ENDBRANCH  22  24
ENDBRANCH  19  22
ENDBRANCH   1  20
BRANCH   7  25
ATOM     25  C   UNL     1      37.173   7.222  14.511  0.00  0.00    +0.000 C 
BRANCH  25  26
ATOM     26  C   UNL     1      36.082   8.080  14.960  0.00  0.00    +0.000 A 
ATOM     27  C   UNL     1      34.828   7.951  14.442  0.00  0.00    +0.000 A 
ATOM     28  C   UNL     1      33.793   8.759  14.862  0.00  0.00    +0.000 A 
ATOM     29  C   UNL     1      34.058   9.704  15.825  0.00  0.00    +0.000 A 
ATOM     30  C   UNL     1      35.320   9.874  16.386  0.00  0.00    +0.000 A 
ATOM     31  C   UNL     1      35.511  10.910  17.411  0.00  0.00    +0.000 C 
ATOM     32  C   UNL     1      36.314   9.031  15.919  0.00  0.00    +0.000 A 
ENDBRANCH  25  26
ENDBRANCH   7  25
TORSDOF 6
ENDMDL
MODEL 6
REMARK VINA RESULT:      -7.1      3.865      6.825
REMARK  Name = 
REMARK  6 active torsions:
REMARK  status: ('A' for Active; 'I' for Inactive)
REMARK    1  A    between atoms: C_2  and  C_3
REMARK    2  A    between atoms: C_3  and  N_4
REMARK    3  A    between atoms: C_5  and  C_7
REMARK    4  A    between atoms: N_13  and  C_14
REMARK    5  A    between atoms: C_14  and  C_15
REMARK    6  A    between atoms: C_25  and  C_26
REMARK                            x       y       z     vdW  Elec       q    Type
REMARK                         _______ _______ _______ _____ _____    ______ ____
ROOT
ATOM      1  C   UNL     1      37.622   4.121  11.883  0.00  0.00    +0.000 A 
ATOM      2  C   UNL     1      38.305   5.308  11.995  0.00  0.00    +0.000 A 
ATOM      3  C   UNL     1      38.621   5.792  13.230  0.00  0.00    +0.000 A 
ATOM      4  C   UNL     1      38.273   5.119  14.353  0.00  0.00    +0.000 A 
ATOM      5  C   UNL     1      37.600   3.943  14.315  0.00  0.00    +0.000 A 
ATOM      6  C   UNL     1      37.279   3.458  13.035  0.00  0.00    +0.000 A 
ATOM      7  N   UNL     1      37.225   3.125  15.397  0.00  0.00    +0.000 N 
ATOM      8  C   UNL     1      37.533   3.454  16.734  0.00  0.00    +0.000 C 
ATOM      9  O   UNL     1      37.164   2.675  17.664  0.00  0.00    +0.000 OA
ATOM     10  C   UNL     1      38.259   4.645  17.151  0.00  0.00    +0.000 C 
ATOM     11  C   UNL     1      38.627   4.871  18.380  0.00  0.00    +0.000 C 
ATOM     12  S   UNL     1      38.703   5.856  15.922  0.00  0.00    +0.000 S 
ENDROOT
BRANCH  11  13
ATOM     13  C   UNL     1      39.345   6.079  18.729  0.00  0.00    +0.000 A 
ATOM     14  C   UNL     1      40.714   6.087  18.662  0.00  0.00    +0.000 A 
ATOM     15  C   UNL     1      41.445   7.221  19.005  0.00  0.00    +0.000 A 
ATOM     16  C   UNL     1      40.768   8.372  19.426  0.00  0.00    +0.000 A 
ATOM     17  C   UNL     1      39.401   8.369  19.496  0.00  0.00    +0.000 A 
ATOM     18  C   UNL     1      38.687   7.237  19.152  0.00  0.00    +0.000 A 
ENDBRANCH  11  13
BRANCH   1  20
ATOM     19  N   UNL     1      36.559   4.349   9.622  0.00  0.00    +0.000 NA
ATOM     20  C   UNL     1      37.291   3.599  10.564  0.00  0.00    +0.000 C 
ATOM     21  O   UNL     1      37.666   2.439  10.238  0.00  0.00    +0.000 OA
BRANCH  19  22
ATOM     22  C   UNL     1      36.209   3.872   8.302  0.00  0.00    +0.000 C 
BRANCH  22  24
ATOM     23  C   UNL     1      35.125   6.116   8.272  0.00  0.00    +0.000 C 
ATOM     24  C   UNL     1      35.212   4.747   7.593  0.00  0.00    +0.000 C 
ENDBRANCH  22  24
ENDBRANCH  19  22
ENDBRANCH   1  20
BRANCH   7  25
ATOM     25  C   UNL     1      36.482   1.864  15.141  0.00  0.00    +0.000 C 
BRANCH  25  26
ATOM     26  C   UNL     1      37.331   0.696  15.348  0.00  0.00    +0.000 A 
ATOM     27  C   UNL     1      36.921  -0.339  16.136  0.00  0.00    +0.000 A 
ATOM     28  C   UNL     1      37.718  -1.446  16.336  0.00  0.00    +0.000 A 
ATOM     29  C   UNL     1      38.945  -1.482  15.715  0.00  0.00    +0.000 A 
ATOM     30  C   UNL     1      39.408  -0.453  14.902  0.00  0.00    +0.000 A 
ATOM     31  C   UNL     1      40.734  -0.578  14.279  0.00  0.00    +0.000 C 
ATOM     32  C   UNL     1      38.558   0.629  14.744  0.00  0.00    +0.000 A 
ENDBRANCH  25  26
ENDBRANCH   7  25
TORSDOF 6
ENDMDL
MODEL 7
REMARK VINA RESULT:      -6.8      4.205      6.799
REMARK  Name = 
REMARK  6 active torsions:
REMARK  status: ('A' for Active; 'I' for Inactive)
REMARK    1  A    between atoms: C_2  and  C_3
REMARK    2  A    between atoms: C_3  and  N_4
REMARK    3  A    between atoms: C_5  and  C_7
REMARK    4  A    between atoms: N_13  and  C_14
REMARK    5  A    between atoms: C_14  and  C_15
REMARK    6  A    between atoms: C_25  and  C_26
REMARK                            x       y       z     vdW  Elec       q    Type
REMARK                         _______ _______ _______ _____ _____    ______ ____
ROOT
ATOM      1  C   UNL     1      39.169   4.754  11.899  0.00  0.00    +0.000 A 
ATOM      2  C   UNL     1      39.880   5.879  12.242  0.00  0.00    +0.000 A 
ATOM      3  C   UNL     1      39.945   6.266  13.548  0.00  0.00    +0.000 A 
ATOM      4  C   UNL     1      39.318   5.558  14.517  0.00  0.00    +0.000 A 
ATOM      5  C   UNL     1      38.600   4.439  14.251  0.00  0.00    +0.000 A 
ATOM      6  C   UNL     1      38.541   4.053  12.899  0.00  0.00    +0.000 A 
ATOM      7  N   UNL     1      37.948   3.590  15.164  0.00  0.00    +0.000 N 
ATOM      8  C   UNL     1      37.974   3.818  16.556  0.00  0.00    +0.000 C 
ATOM      9  O   UNL     1      37.362   3.018  17.326  0.00  0.00    +0.000 OA
ATOM     10  C   UNL     1      38.659   4.927  17.205  0.00  0.00    +0.000 C 
ATOM     11  C   UNL     1      38.761   5.054  18.497  0.00  0.00    +0.000 C 
ATOM     12  S   UNL     1      39.435   6.170  16.191  0.00  0.00    +0.000 S 
ENDROOT
BRANCH  11  13
ATOM     13  C   UNL     1      39.456   6.183  19.079  0.00  0.00    +0.000 A 
ATOM     14  C   UNL     1      38.773   7.353  19.291  0.00  0.00    +0.000 A 
ATOM     15  C   UNL     1      39.406   8.468  19.833  0.00  0.00    +0.000 A 
ATOM     16  C   UNL     1      40.763   8.391  20.167  0.00  0.00    +0.000 A 
ATOM     17  C   UNL     1      41.450   7.226  19.958  0.00  0.00    +0.000 A 
ATOM     18  C   UNL     1      40.810   6.126  19.419  0.00  0.00    +0.000 A 
ENDBRANCH  11  13
BRANCH   1  20
ATOM     19  N   UNL     1      38.447   3.154  10.106  0.00  0.00    +0.000 NA
ATOM     20  C   UNL     1      39.106   4.334  10.506  0.00  0.00    +0.000 C 
ATOM     21  O   UNL     1      39.653   5.039   9.615  0.00  0.00    +0.000 OA
BRANCH  19  22
ATOM     22  C   UNL     1      38.358   2.699   8.737  0.00  0.00    +0.000 C 
BRANCH  22  24
ATOM     23  C   UNL     1      36.867   1.267   7.345  0.00  0.00    +0.000 C 
ATOM     24  C   UNL     1      36.946   2.488   8.265  0.00  0.00    +0.000 C 
ENDBRANCH  22  24
ENDBRANCH  19  22
ENDBRANCH   1  20
BRANCH   7  25
ATOM     25  C   UNL     1      37.206   2.405  14.664  0.00  0.00    +0.000 C 
BRANCH  25  26
ATOM     26  C   UNL     1      37.962   1.176  14.874  0.00  0.00    +0.000 A 
ATOM     27  C   UNL     1      39.262   1.074  14.475  0.00  0.00    +0.000 A 
ATOM     28  C   UNL     1      39.983  -0.084  14.672  0.00  0.00    +0.000 A 
ATOM     29  C   UNL     1      39.355  -1.143  15.285  0.00  0.00    +0.000 A 
ATOM     30  C   UNL     1      38.032  -1.089  15.711  0.00  0.00    +0.000 A 
ATOM     31  C   UNL     1      37.442  -2.269  16.358  0.00  0.00    +0.000 C 
ATOM     32  C   UNL     1      37.365   0.104  15.483  0.00  0.00    +0.000 A 
ENDBRANCH  25  26
ENDBRANCH   7  25
TORSDOF 6
ENDMDL
MODEL 8
REMARK VINA RESULT:      -6.8     27.505     30.247
REMARK  Name = 
REMARK  6 active torsions:
REMARK  status: ('A' for Active; 'I' for Inactive)
REMARK    1  A    between atoms: C_2  and  C_3
REMARK    2  A    between atoms: C_3  and  N_4
REMARK    3  A    between atoms: C_5  and  C_7
REMARK    4  A    between atoms: N_13  and  C_14
REMARK    5  A    between atoms: C_14  and  C_15
REMARK    6  A    between atoms: C_25  and  C_26
REMARK                            x       y       z     vdW  Elec       q    Type
REMARK                         _______ _______ _______ _____ _____    ______ ____
ROOT
ATOM      1  C   UNL     1      24.238  15.025  41.618  0.00  0.00    +0.000 A 
ATOM      2  C   UNL     1      23.228  15.239  40.710  0.00  0.00    +0.000 A 
ATOM      3  C   UNL     1      23.531  15.428  39.395  0.00  0.00    +0.000 A 
ATOM      4  C   UNL     1      24.814  15.409  38.964  0.00  0.00    +0.000 A 
ATOM      5  C   UNL     1      25.859  15.202  39.804  0.00  0.00    +0.000 A 
ATOM      6  C   UNL     1      25.531  15.011  41.158  0.00  0.00    +0.000 A 
ATOM      7  N   UNL     1      27.225  15.109  39.480  0.00  0.00    +0.000 N 
ATOM      8  C   UNL     1      27.695  15.221  38.155  0.00  0.00    +0.000 C 
ATOM      9  O   UNL     1      28.940  15.131  37.930  0.00  0.00    +0.000 OA
ATOM     10  C   UNL     1      26.852  15.437  36.988  0.00  0.00    +0.000 C 
ATOM     11  C   UNL     1      27.297  15.426  35.765  0.00  0.00    +0.000 C 
ATOM     12  S   UNL     1      25.106  15.702  37.227  0.00  0.00    +0.000 S 
ENDROOT
BRANCH  11  13
ATOM     13  C   UNL     1      26.404  15.651  34.647  0.00  0.00    +0.000 A 
ATOM     14  C   UNL     1      25.989  14.583  33.896  0.00  0.00    +0.000 A 
ATOM     15  C   UNL     1      25.144  14.756  32.803  0.00  0.00    +0.000 A 
ATOM     16  C   UNL     1      24.713  16.044  32.467  0.00  0.00    +0.000 A 
ATOM     17  C   UNL     1      25.124  17.115  33.213  0.00  0.00    +0.000 A 
ATOM     18  C   UNL     1      25.963  16.930  34.296  0.00  0.00    +0.000 A 
ENDBRANCH  11  13
BRANCH   1  20
ATOM     19  N   UNL     1      22.895  13.934  43.435  0.00  0.00    +0.000 NA
ATOM     20  C   UNL     1      23.916  14.814  43.023  0.00  0.00    +0.000 C 
ATOM     21  O   UNL     1      24.562  15.432  43.913  0.00  0.00    +0.000 OA
BRANCH  19  22
ATOM     22  C   UNL     1      22.542  13.692  44.816  0.00  0.00    +0.000 C 
BRANCH  22  24
ATOM     23  C   UNL     1      21.639  11.554  43.908  0.00  0.00    +0.000 C 
ATOM     24  C   UNL     1      22.267  12.246  45.121  0.00  0.00    +0.000 C 
ENDBRANCH  22  24
ENDBRANCH  19  22
ENDBRANCH   1  20
BRANCH   7  25
ATOM     25  C   UNL     1      28.221  14.881  40.558  0.00  0.00    +0.000 C 
BRANCH  25  26
ATOM     26  C   UNL     1      28.709  13.507  40.549  0.00  0.00    +0.000 A 
ATOM     27  C   UNL     1      30.031  13.232  40.363  0.00  0.00    +0.000 A 
ATOM     28  C   UNL     1      30.499  11.935  40.353  0.00  0.00    +0.000 A 
ATOM     29  C   UNL     1      29.592  10.918  40.539  0.00  0.00    +0.000 A 
ATOM     30  C   UNL     1      28.234  11.146  40.734  0.00  0.00    +0.000 A 
ATOM     31  C   UNL     1      27.338   9.997  40.925  0.00  0.00    +0.000 C 
ATOM     32  C   UNL     1      27.831  12.471  40.732  0.00  0.00    +0.000 A 
ENDBRANCH  25  26
ENDBRANCH   7  25
TORSDOF 6
ENDMDL
MODEL 9
REMARK VINA RESULT:      -6.7      3.367      7.530
REMARK  Name = 
REMARK  6 active torsions:
REMARK  status: ('A' for Active; 'I' for Inactive)
REMARK    1  A    between atoms: C_2  and  C_3
REMARK    2  A    between atoms: C_3  and  N_4
REMARK    3  A    between atoms: C_5  and  C_7
REMARK    4  A    between atoms: N_13  and  C_14
REMARK    5  A    between atoms: C_14  and  C_15
REMARK    6  A    between atoms: C_25  and  C_26
REMARK                            x       y       z     vdW  Elec       q    Type
REMARK                         _______ _______ _______ _____ _____    ______ ____
ROOT
ATOM      1  C   UNL     1      38.496  -2.282  16.009  0.00  0.00    +0.000 A 
ATOM      2  C   UNL     1      39.713  -2.913  16.104  0.00  0.00    +0.000 A 
ATOM      3  C   UNL     1      40.581  -2.868  15.053  0.00  0.00    +0.000 A 
ATOM      4  C   UNL     1      40.264  -2.209  13.914  0.00  0.00    +0.000 A 
ATOM      5  C   UNL     1      39.082  -1.564  13.753  0.00  0.00    +0.000 A 
ATOM      6  C   UNL     1      38.196  -1.620  14.844  0.00  0.00    +0.000 A 
ATOM      7  N   UNL     1      38.654  -0.805  12.648  0.00  0.00    +0.000 N 
ATOM      8  C   UNL     1      39.460  -0.611  11.508  0.00  0.00    +0.000 C 
ATOM      9  O   UNL     1      39.014   0.081  10.543  0.00  0.00    +0.000 OA
ATOM     10  C   UNL     1      40.801  -1.152  11.335  0.00  0.00    +0.000 C 
ATOM     11  C   UNL     1      41.568  -0.868  10.322  0.00  0.00    +0.000 C 
ATOM     12  S   UNL     1      41.456  -2.241  12.584  0.00  0.00    +0.000 S 
ENDROOT
BRANCH  11  13
ATOM     13  C   UNL     1      42.893  -1.443  10.209  0.00  0.00    +0.000 A 
ATOM     14  C   UNL     1      43.961  -0.774  10.747  0.00  0.00    +0.000 A 
ATOM     15  C   UNL     1      45.253  -1.282  10.646  0.00  0.00    +0.000 A 
ATOM     16  C   UNL     1      45.462  -2.497   9.984  0.00  0.00    +0.000 A 
ATOM     17  C   UNL     1      44.400  -3.169   9.444  0.00  0.00    +0.000 A 
ATOM     18  C   UNL     1      43.122  -2.654   9.551  0.00  0.00    +0.000 A 
ENDBRANCH  11  13
BRANCH   1  20
ATOM     19  N   UNL     1      37.544  -1.315  18.120  0.00  0.00    +0.000 NA
ATOM     20  C   UNL     1      37.571  -2.321  17.133  0.00  0.00    +0.000 C 
ATOM     21  O   UNL     1      36.759  -3.281  17.242  0.00  0.00    +0.000 OA
BRANCH  19  22
ATOM     22  C   UNL     1      36.643  -1.312  19.251  0.00  0.00    +0.000 C 
BRANCH  22  24
ATOM     23  C   UNL     1      35.678   0.502  17.841  0.00  0.00    +0.000 C 
ATOM     24  C   UNL     1      35.588  -0.244  19.175  0.00  0.00    +0.000 C 
ENDBRANCH  22  24
ENDBRANCH  19  22
ENDBRANCH   1  20
BRANCH   7  25
ATOM     25  C   UNL     1      37.308  -0.176  12.667  0.00  0.00    +0.000 C 
BRANCH  25  26
ATOM     26  C   UNL     1      37.298   1.030  13.486  0.00  0.00    +0.000 A 
ATOM     27  C   UNL     1      38.444   1.731  13.720  0.00  0.00    +0.000 A 
ATOM     28  C   UNL     1      38.441   2.873  14.493  0.00  0.00    +0.000 A 
ATOM     29  C   UNL     1      37.244   3.291  15.025  0.00  0.00    +0.000 A 
ATOM     30  C   UNL     1      36.048   2.613  14.816  0.00  0.00    +0.000 A 
ATOM     31  C   UNL     1      34.816   3.135  15.425  0.00  0.00    +0.000 C 
ATOM     32  C   UNL     1      36.122   1.475  14.031  0.00  0.00    +0.000 A 
ENDBRANCH  25  26
ENDBRANCH   7  25
TORSDOF 6
ENDMDL
MODEL 10
REMARK VINA RESULT:      -6.7     25.438     29.003
REMARK  Name = 
REMARK  6 active torsions:
REMARK  status: ('A' for Active; 'I' for Inactive)
REMARK    1  A    between atoms: C_2  and  C_3
REMARK    2  A    between atoms: C_3  and  N_4
REMARK    3  A    between atoms: C_5  and  C_7
REMARK    4  A    between atoms: N_13  and  C_14
REMARK    5  A    between atoms: C_14  and  C_15
REMARK    6  A    between atoms: C_25  and  C_26
REMARK                            x       y       z     vdW  Elec       q    Type
REMARK                         _______ _______ _______ _____ _____    ______ ____
ROOT
ATOM      1  C   UNL     1      25.660  15.392  39.029  0.00  0.00    +0.000 A 
ATOM      2  C   UNL     1      26.841  15.375  39.734  0.00  0.00    +0.000 A 
ATOM      3  C   UNL     1      28.028  15.409  39.064  0.00  0.00    +0.000 A 
ATOM      4  C   UNL     1      28.065  15.460  37.711  0.00  0.00    +0.000 A 
ATOM      5  C   UNL     1      26.940  15.481  36.954  0.00  0.00    +0.000 A 
ATOM      6  C   UNL     1      25.723  15.444  37.659  0.00  0.00    +0.000 A 
ATOM      7  N   UNL     1      26.840  15.584  35.554  0.00  0.00    +0.000 N 
ATOM      8  C   UNL     1      27.974  15.690  34.723  0.00  0.00    +0.000 C 
ATOM      9  O   UNL     1      27.816  15.776  33.468  0.00  0.00    +0.000 OA
ATOM     10  C   UNL     1      29.352  15.710  35.194  0.00  0.00    +0.000 C 
ATOM     11  C   UNL     1      30.376  15.920  34.418  0.00  0.00    +0.000 C 
ATOM     12  S   UNL     1      29.671  15.466  36.930  0.00  0.00    +0.000 S 
ENDROOT
BRANCH  11  13
ATOM     13  C   UNL     1      31.723  15.924  34.950  0.00  0.00    +0.000 A 
ATOM     14  C   UNL     1      32.274  17.108  35.366  0.00  0.00    +0.000 A 
ATOM     15  C   UNL     1      33.571  17.160  35.868  0.00  0.00    +0.000 A 
ATOM     16  C   UNL     1      34.324  15.983  35.948  0.00  0.00    +0.000 A 
ATOM     17  C   UNL     1      33.779  14.798  35.533  0.00  0.00    +0.000 A 
ATOM     18  C   UNL     1      32.490  14.760  35.037  0.00  0.00    +0.000 A 
ENDBRANCH  11  13
BRANCH   1  20
ATOM     19  N   UNL     1      24.172  16.119  40.914  0.00  0.00    +0.000 NA
ATOM     20  C   UNL     1      24.392  15.364  39.743  0.00  0.00    +0.000 C 
ATOM     21  O   UNL     1      23.447  14.646  39.314  0.00  0.00    +0.000 OA
BRANCH  19  22
ATOM     22  C   UNL     1      22.929  16.124  41.654  0.00  0.00    +0.000 C 
BRANCH  22  24
ATOM     23  C   UNL     1      21.497  14.416  42.768  0.00  0.00    +0.000 C 
ATOM     24  C   UNL     1      22.874  15.085  42.740  0.00  0.00    +0.000 C 
ENDBRANCH  22  24
ENDBRANCH  19  22
ENDBRANCH   1  20
BRANCH   7  25
ATOM     25  C   UNL     1      25.500  15.586  34.912  0.00  0.00    +0.000 C 
BRANCH  25  26
ATOM     26  C   UNL     1      25.102  16.932  34.518  0.00  0.00    +0.000 A 
ATOM     27  C   UNL     1      25.040  17.942  35.432  0.00  0.00    +0.000 A 
ATOM     28  C   UNL     1      24.664  19.217  35.066  0.00  0.00    +0.000 A 
ATOM     29  C   UNL     1      24.353  19.447  33.746  0.00  0.00    +0.000 A 
ATOM     30  C   UNL     1      24.401  18.451  32.776  0.00  0.00    +0.000 A 
ATOM     31  C   UNL     1      24.051  18.788  31.389  0.00  0.00    +0.000 C 
ATOM     32  C   UNL     1      24.786  17.194  33.211  0.00  0.00    +0.000 A 
ENDBRANCH  25  26
ENDBRANCH   7  25
TORSDOF 6
ENDMDL
