MODEL 1
REMARK VINA RESULT:      -7.0      0.000      0.000
REMARK  Name = 
REMARK  4 active torsions:
REMARK  status: ('A' for Active; 'I' for Inactive)
REMARK    1  A    between atoms: C_2  and  C_18
REMARK    2  A    between atoms: N_3  and  C_4
REMARK    3  A    between atoms: C_4  and  N_6
REMARK    4  A    between atoms: N_6  and  C_7
REMARK                            x       y       z     vdW  Elec       q    Type
REMARK                         _______ _______ _______ _____ _____    ______ ____
ROOT
ATOM      1  C   UNL     1      15.502  11.463  34.706  0.00  0.00    +0.000 A 
ATOM      2  C   UNL     1      16.318  10.512  34.131  0.00  0.00    +0.000 A 
ATOM      3  C   UNL     1      16.545  10.476  32.755  0.00  0.00    +0.000 A 
ATOM      4  C   UNL     1      15.925  11.426  31.976  0.00  0.00    +0.000 A 
ATOM      5  C   UNL     1      15.094  12.399  32.538  0.00  0.00    +0.000 A 
ATOM      6  C   UNL     1      14.477  13.349  31.745  0.00  0.00    +0.000 A 
ATOM      7  O   UNL     1      14.693  13.327  30.366  0.00  0.00    +0.000 OA
ATOM      8  C   UNL     1      13.659  14.301  32.325  0.00  0.00    +0.000 A 
ATOM      9  C   UNL     1      13.465  14.296  33.684  0.00  0.00    +0.000 A 
ATOM     10  C   UNL     1      14.083  13.347  34.471  0.00  0.00    +0.000 A 
ATOM     11  C   UNL     1      14.893  12.403  33.905  0.00  0.00    +0.000 A 
ENDROOT
BRANCH   1  12
ATOM     12  N   UNL     1      15.273  11.498  36.102  0.00  0.00    +0.000 NA
BRANCH  12  13
ATOM     13  C   UNL     1      16.345  11.753  36.977  0.00  0.00    +0.000 C 
ATOM     14  S   UNL     1      17.349  12.993  36.679  0.00  0.00    +0.000 S 
BRANCH  13  17
ATOM     15  O   UNL     1      18.275   9.708  37.268  0.00  0.00    +0.000 OA
ATOM     16  C   UNL     1      17.507   9.928  38.224  0.00  0.00    +0.000 C 
ATOM     17  N   UNL     1      16.542  10.939  38.099  0.00  0.00    +0.000 NA
BRANCH  16  18
ATOM     18  C   UNL     1      17.619   9.127  39.475  0.00  0.00    +0.000 C 
ATOM     19  C   UNL     1      18.810   9.511  40.412  0.00  0.00    +0.000 C 
ATOM     20  C   UNL     1      18.863   8.225  39.552  0.00  0.00    +0.000 C 
ENDBRANCH  16  18
ENDBRANCH  13  17
ENDBRANCH  12  13
ENDBRANCH   1  12
TORSDOF 4
ENDMDL
MODEL 2
REMARK VINA RESULT:      -6.8      1.759      3.218
REMARK  Name = 
REMARK  4 active torsions:
REMARK  status: ('A' for Active; 'I' for Inactive)
REMARK    1  A    between atoms: C_2  and  C_18
REMARK    2  A    between atoms: N_3  and  C_4
REMARK    3  A    between atoms: C_4  and  N_6
REMARK    4  A    between atoms: N_6  and  C_7
REMARK                            x       y       z     vdW  Elec       q    Type
REMARK                         _______ _______ _______ _____ _____    ______ ____
ROOT
ATOM      1  C   UNL     1      16.335  10.844  36.466  0.00  0.00    +0.000 A 
ATOM      2  C   UNL     1      15.469  11.569  37.256  0.00  0.00    +0.000 A 
ATOM      3  C   UNL     1      14.541  12.453  36.705  0.00  0.00    +0.000 A 
ATOM      4  C   UNL     1      14.512  12.585  35.335  0.00  0.00    +0.000 A 
ATOM      5  C   UNL     1      15.381  11.858  34.516  0.00  0.00    +0.000 A 
ATOM      6  C   UNL     1      15.342  11.999  33.141  0.00  0.00    +0.000 A 
ATOM      7  O   UNL     1      14.419  12.880  32.573  0.00  0.00    +0.000 OA
ATOM      8  C   UNL     1      16.213  11.270  32.352  0.00  0.00    +0.000 A 
ATOM      9  C   UNL     1      17.109  10.412  32.939  0.00  0.00    +0.000 A 
ATOM     10  C   UNL     1      17.144  10.276  34.311  0.00  0.00    +0.000 A 
ATOM     11  C   UNL     1      16.287  10.993  35.097  0.00  0.00    +0.000 A 
ENDROOT
BRANCH   1  12
ATOM     12  N   UNL     1      17.276   9.947  37.026  0.00  0.00    +0.000 NA
BRANCH  12  13
ATOM     13  C   UNL     1      17.990  10.320  38.180  0.00  0.00    +0.000 C 
ATOM     14  S   UNL     1      19.321  11.238  38.041  0.00  0.00    +0.000 S 
BRANCH  13  17
ATOM     15  O   UNL     1      18.612   7.878  39.460  0.00  0.00    +0.000 OA
ATOM     16  C   UNL     1      17.873   8.680  40.060  0.00  0.00    +0.000 C 
ATOM     17  N   UNL     1      17.552   9.898  39.441  0.00  0.00    +0.000 NA
BRANCH  16  18
ATOM     18  C   UNL     1      17.342   8.345  41.411  0.00  0.00    +0.000 C 
ATOM     19  C   UNL     1      15.964   7.605  41.424  0.00  0.00    +0.000 C 
ATOM     20  C   UNL     1      16.062   9.102  41.806  0.00  0.00    +0.000 C 
ENDBRANCH  16  18
ENDBRANCH  13  17
ENDBRANCH  12  13
ENDBRANCH   1  12
TORSDOF 4
ENDMDL
MODEL 3
REMARK VINA RESULT:      -6.6     17.794     19.184
REMARK  Name = 
REMARK  4 active torsions:
REMARK  status: ('A' for Active; 'I' for Inactive)
REMARK    1  A    between atoms: C_2  and  C_18
REMARK    2  A    between atoms: N_3  and  C_4
REMARK    3  A    between atoms: C_4  and  N_6
REMARK    4  A    between atoms: N_6  and  C_7
REMARK                            x       y       z     vdW  Elec       q    Type
REMARK                         _______ _______ _______ _____ _____    ______ ____
ROOT
ATOM      1  C   UNL     1      28.906  22.423  26.547  0.00  0.00    +0.000 A 
ATOM      2  C   UNL     1      30.269  22.385  26.340  0.00  0.00    +0.000 A 
ATOM      3  C   UNL     1      30.830  22.685  25.098  0.00  0.00    +0.000 A 
ATOM      4  C   UNL     1      29.977  23.025  24.072  0.00  0.00    +0.000 A 
ATOM      5  C   UNL     1      28.593  23.069  24.261  0.00  0.00    +0.000 A 
ATOM      6  C   UNL     1      27.746  23.411  23.222  0.00  0.00    +0.000 A 
ATOM      7  O   UNL     1      28.292  23.715  21.973  0.00  0.00    +0.000 OA
ATOM      8  C   UNL     1      26.381  23.448  23.434  0.00  0.00    +0.000 A 
ATOM      9  C   UNL     1      25.875  23.144  24.673  0.00  0.00    +0.000 A 
ATOM     10  C   UNL     1      26.723  22.803  25.706  0.00  0.00    +0.000 A 
ATOM     11  C   UNL     1      28.074  22.765  25.505  0.00  0.00    +0.000 A 
ENDROOT
BRANCH   1  12
ATOM     12  N   UNL     1      28.339  22.118  27.807  0.00  0.00    +0.000 NA
BRANCH  12  13
ATOM     13  C   UNL     1      28.346  23.088  28.827  0.00  0.00    +0.000 C 
ATOM     14  S   UNL     1      29.384  22.945  30.066  0.00  0.00    +0.000 S 
BRANCH  13  17
ATOM     15  O   UNL     1      25.802  23.263  30.046  0.00  0.00    +0.000 OA
ATOM     16  C   UNL     1      26.200  24.239  29.383  0.00  0.00    +0.000 C 
ATOM     17  N   UNL     1      27.460  24.172  28.769  0.00  0.00    +0.000 NA
BRANCH  16  18
ATOM     18  C   UNL     1      25.347  25.452  29.247  0.00  0.00    +0.000 C 
ATOM     19  C   UNL     1      24.530  25.551  27.917  0.00  0.00    +0.000 C 
ATOM     20  C   UNL     1      25.786  26.428  28.142  0.00  0.00    +0.000 C 
ENDBRANCH  16  18
ENDBRANCH  13  17
ENDBRANCH  12  13
ENDBRANCH   1  12
TORSDOF 4
ENDMDL
MODEL 4
REMARK VINA RESULT:      -6.5     18.432     19.309
REMARK  Name = 
REMARK  4 active torsions:
REMARK  status: ('A' for Active; 'I' for Inactive)
REMARK    1  A    between atoms: C_2  and  C_18
REMARK    2  A    between atoms: N_3  and  C_4
REMARK    3  A    between atoms: C_4  and  N_6
REMARK    4  A    between atoms: N_6  and  C_7
REMARK                            x       y       z     vdW  Elec       q    Type
REMARK                         _______ _______ _______ _____ _____    ______ ____
ROOT
ATOM      1  C   UNL     1      28.620  22.626  25.875  0.00  0.00    +0.000 A 
ATOM      2  C   UNL     1      29.973  22.511  26.110  0.00  0.00    +0.000 A 
ATOM      3  C   UNL     1      30.917  22.822  25.131  0.00  0.00    +0.000 A 
ATOM      4  C   UNL     1      30.456  23.253  23.908  0.00  0.00    +0.000 A 
ATOM      5  C   UNL     1      29.088  23.377  23.648  0.00  0.00    +0.000 A 
ATOM      6  C   UNL     1      28.638  23.810  22.414  0.00  0.00    +0.000 A 
ATOM      7  O   UNL     1      29.569  24.126  21.423  0.00  0.00    +0.000 OA
ATOM      8  C   UNL     1      27.280  23.924  22.181  0.00  0.00    +0.000 A 
ATOM      9  C   UNL     1      26.388  23.606  23.176  0.00  0.00    +0.000 A 
ATOM     10  C   UNL     1      26.843  23.173  24.404  0.00  0.00    +0.000 A 
ATOM     11  C   UNL     1      28.183  23.059  24.642  0.00  0.00    +0.000 A 
ENDROOT
BRANCH   1  12
ATOM     12  N   UNL     1      27.664  22.310  26.869  0.00  0.00    +0.000 NA
BRANCH  12  13
ATOM     13  C   UNL     1      27.448  23.202  27.936  0.00  0.00    +0.000 C 
ATOM     14  S   UNL     1      26.034  23.990  28.052  0.00  0.00    +0.000 S 
BRANCH  13  17
ATOM     15  O   UNL     1      27.690  21.910  30.438  0.00  0.00    +0.000 OA
ATOM     16  C   UNL     1      28.553  22.753  30.130  0.00  0.00    +0.000 C 
ATOM     17  N   UNL     1      28.451  23.406  28.892  0.00  0.00    +0.000 NA
BRANCH  16  18
ATOM     18  C   UNL     1      29.672  23.057  31.065  0.00  0.00    +0.000 C 
ATOM     19  C   UNL     1      30.982  22.235  30.832  0.00  0.00    +0.000 C 
ATOM     20  C   UNL     1      30.043  21.908  32.019  0.00  0.00    +0.000 C 
ENDBRANCH  16  18
ENDBRANCH  13  17
ENDBRANCH  12  13
ENDBRANCH   1  12
TORSDOF 4
ENDMDL
MODEL 5
REMARK VINA RESULT:      -6.4      2.867      3.849
REMARK  Name = 
REMARK  4 active torsions:
REMARK  status: ('A' for Active; 'I' for Inactive)
REMARK    1  A    between atoms: C_2  and  C_18
REMARK    2  A    between atoms: N_3  and  C_4
REMARK    3  A    between atoms: C_4  and  N_6
REMARK    4  A    between atoms: N_6  and  C_7
REMARK                            x       y       z     vdW  Elec       q    Type
REMARK                         _______ _______ _______ _____ _____    ______ ____
ROOT
ATOM      1  C   UNL     1      17.317   9.980  37.028  0.00  0.00    +0.000 A 
ATOM      2  C   UNL     1      18.137   9.323  36.135  0.00  0.00    +0.000 A 
ATOM      3  C   UNL     1      18.008   9.497  34.757  0.00  0.00    +0.000 A 
ATOM      4  C   UNL     1      17.027  10.351  34.305  0.00  0.00    +0.000 A 
ATOM      5  C   UNL     1      16.186  11.027  35.194  0.00  0.00    +0.000 A 
ATOM      6  C   UNL     1      15.204  11.883  34.728  0.00  0.00    +0.000 A 
ATOM      7  O   UNL     1      15.061  12.068  33.351  0.00  0.00    +0.000 OA
ATOM      8  C   UNL     1      14.384  12.539  35.626  0.00  0.00    +0.000 A 
ATOM      9  C   UNL     1      14.549  12.337  36.974  0.00  0.00    +0.000 A 
ATOM     10  C   UNL     1      15.529  11.482  37.433  0.00  0.00    +0.000 A 
ATOM     11  C   UNL     1      16.344  10.830  36.552  0.00  0.00    +0.000 A 
ENDROOT
BRANCH   1  12
ATOM     12  N   UNL     1      17.450   9.803  38.426  0.00  0.00    +0.000 NA
BRANCH  12  13
ATOM     13  C   UNL     1      18.710   9.965  39.031  0.00  0.00    +0.000 C 
ATOM     14  S   UNL     1      19.415   8.704  39.771  0.00  0.00    +0.000 S 
BRANCH  13  17
ATOM     15  O   UNL     1      20.972  10.658  37.485  0.00  0.00    +0.000 OA
ATOM     16  C   UNL     1      20.474  11.534  38.217  0.00  0.00    +0.000 C 
ATOM     17  N   UNL     1      19.351  11.210  38.993  0.00  0.00    +0.000 NA
BRANCH  16  18
ATOM     18  C   UNL     1      21.067  12.900  38.262  0.00  0.00    +0.000 C 
ATOM     19  C   UNL     1      22.174  13.113  39.346  0.00  0.00    +0.000 C 
ATOM     20  C   UNL     1      20.753  13.695  39.542  0.00  0.00    +0.000 C 
ENDBRANCH  16  18
ENDBRANCH  13  17
ENDBRANCH  12  13
ENDBRANCH   1  12
TORSDOF 4
ENDMDL
MODEL 6
REMARK VINA RESULT:      -6.4      2.544      3.664
REMARK  Name = 
REMARK  4 active torsions:
REMARK  status: ('A' for Active; 'I' for Inactive)
REMARK    1  A    between atoms: C_2  and  C_18
REMARK    2  A    between atoms: N_3  and  C_4
REMARK    3  A    between atoms: C_4  and  N_6
REMARK    4  A    between atoms: N_6  and  C_7
REMARK                            x       y       z     vdW  Elec       q    Type
REMARK                         _______ _______ _______ _____ _____    ______ ____
ROOT
ATOM      1  C   UNL     1      17.280  10.043  37.231  0.00  0.00    +0.000 A 
ATOM      2  C   UNL     1      18.179   9.385  36.418  0.00  0.00    +0.000 A 
ATOM      3  C   UNL     1      18.155   9.531  35.030  0.00  0.00    +0.000 A 
ATOM      4  C   UNL     1      17.200  10.359  34.486  0.00  0.00    +0.000 A 
ATOM      5  C   UNL     1      16.280  11.036  35.293  0.00  0.00    +0.000 A 
ATOM      6  C   UNL     1      15.325  11.865  34.734  0.00  0.00    +0.000 A 
ATOM      7  O   UNL     1      15.288  12.023  33.347  0.00  0.00    +0.000 OA
ATOM      8  C   UNL     1      14.425  12.524  35.552  0.00  0.00    +0.000 A 
ATOM      9  C   UNL     1      14.487  12.349  36.912  0.00  0.00    +0.000 A 
ATOM     10  C   UNL     1      15.441  11.520  37.464  0.00  0.00    +0.000 A 
ATOM     11  C   UNL     1      16.334  10.867  36.662  0.00  0.00    +0.000 A 
ENDROOT
BRANCH   1  12
ATOM     12  N   UNL     1      17.305   9.894  38.637  0.00  0.00    +0.000 NA
BRANCH  12  13
ATOM     13  C   UNL     1      18.446   9.352  39.260  0.00  0.00    +0.000 C 
ATOM     14  S   UNL     1      19.691  10.321  39.640  0.00  0.00    +0.000 S 
BRANCH  13  17
ATOM     15  O   UNL     1      17.366   8.054  41.526  0.00  0.00    +0.000 OA
ATOM     16  C   UNL     1      17.958   7.357  40.680  0.00  0.00    +0.000 C 
ATOM     17  N   UNL     1      18.502   7.983  39.548  0.00  0.00    +0.000 NA
BRANCH  16  18
ATOM     18  C   UNL     1      18.084   5.886  40.876  0.00  0.00    +0.000 C 
ATOM     19  C   UNL     1      19.289   5.429  41.763  0.00  0.00    +0.000 C 
ATOM     20  C   UNL     1      19.327   5.254  40.225  0.00  0.00    +0.000 C 
ENDBRANCH  16  18
ENDBRANCH  13  17
ENDBRANCH  12  13
ENDBRANCH   1  12
TORSDOF 4
ENDMDL
MODEL 7
REMARK VINA RESULT:      -6.2     20.871     22.269
REMARK  Name = 
REMARK  4 active torsions:
REMARK  status: ('A' for Active; 'I' for Inactive)
REMARK    1  A    between atoms: C_2  and  C_18
REMARK    2  A    between atoms: N_3  and  C_4
REMARK    3  A    between atoms: C_4  and  N_6
REMARK    4  A    between atoms: N_6  and  C_7
REMARK                            x       y       z     vdW  Elec       q    Type
REMARK                         _______ _______ _______ _____ _____    ______ ____
ROOT
ATOM      1  C   UNL     1      20.770  -8.671  25.991  0.00  0.00    +0.000 A 
ATOM      2  C   UNL     1      21.787  -8.016  25.329  0.00  0.00    +0.000 A 
ATOM      3  C   UNL     1      21.729  -6.647  25.068  0.00  0.00    +0.000 A 
ATOM      4  C   UNL     1      20.616  -5.958  25.494  0.00  0.00    +0.000 A 
ATOM      5  C   UNL     1      19.574  -6.603  26.166  0.00  0.00    +0.000 A 
ATOM      6  C   UNL     1      18.461  -5.899  26.588  0.00  0.00    +0.000 A 
ATOM      7  O   UNL     1      18.387  -4.528  26.336  0.00  0.00    +0.000 OA
ATOM      8  C   UNL     1      17.443  -6.559  27.251  0.00  0.00    +0.000 A 
ATOM      9  C   UNL     1      17.544  -7.908  27.485  0.00  0.00    +0.000 A 
ATOM     10  C   UNL     1      18.657  -8.606  27.061  0.00  0.00    +0.000 A 
ATOM     11  C   UNL     1      19.667  -7.960  26.406  0.00  0.00    +0.000 A 
ENDROOT
BRANCH   1  12
ATOM     12  N   UNL     1      20.831 -10.060  26.254  0.00  0.00    +0.000 NA
BRANCH  12  13
ATOM     13  C   UNL     1      21.532 -10.525  27.383  0.00  0.00    +0.000 C 
ATOM     14  S   UNL     1      23.019 -11.149  27.205  0.00  0.00    +0.000 S 
BRANCH  13  17
ATOM     15  O   UNL     1      19.599 -12.279  28.466  0.00  0.00    +0.000 OA
ATOM     16  C   UNL     1      19.987 -11.329  29.172  0.00  0.00    +0.000 C 
ATOM     17  N   UNL     1      20.946 -10.446  28.652  0.00  0.00    +0.000 NA
BRANCH  16  18
ATOM     18  C   UNL     1      19.436 -11.140  30.544  0.00  0.00    +0.000 C 
ATOM     19  C   UNL     1      18.160 -10.241  30.634  0.00  0.00    +0.000 C 
ATOM     20  C   UNL     1      19.539  -9.704  31.086  0.00  0.00    +0.000 C 
ENDBRANCH  16  18
ENDBRANCH  13  17
ENDBRANCH  12  13
ENDBRANCH   1  12
TORSDOF 4
ENDMDL
MODEL 8
REMARK VINA RESULT:      -6.0     21.273     23.257
REMARK  Name = 
REMARK  4 active torsions:
REMARK  status: ('A' for Active; 'I' for Inactive)
REMARK    1  A    between atoms: C_2  and  C_18
REMARK    2  A    between atoms: N_3  and  C_4
REMARK    3  A    between atoms: C_4  and  N_6
REMARK    4  A    between atoms: N_6  and  C_7
REMARK                            x       y       z     vdW  Elec       q    Type
REMARK                         _______ _______ _______ _____ _____    ______ ____
ROOT
ATOM      1  C   UNL     1      21.546  -7.335  25.250  0.00  0.00    +0.000 A 
ATOM      2  C   UNL     1      21.852  -8.678  25.321  0.00  0.00    +0.000 A 
ATOM      3  C   UNL     1      21.022  -9.586  25.978  0.00  0.00    +0.000 A 
ATOM      4  C   UNL     1      19.873  -9.101  26.561  0.00  0.00    +0.000 A 
ATOM      5  C   UNL     1      19.543  -7.744  26.500  0.00  0.00    +0.000 A 
ATOM      6  C   UNL     1      18.386  -7.269  27.090  0.00  0.00    +0.000 A 
ATOM      7  O   UNL     1      17.543  -8.164  27.751  0.00  0.00    +0.000 OA
ATOM      8  C   UNL     1      18.081  -5.922  27.017  0.00  0.00    +0.000 A 
ATOM      9  C   UNL     1      18.930  -5.066  26.360  0.00  0.00    +0.000 A 
ATOM     10  C   UNL     1      20.083  -5.545  25.773  0.00  0.00    +0.000 A 
ATOM     11  C   UNL     1      20.390  -6.875  25.841  0.00  0.00    +0.000 A 
ENDROOT
BRANCH   1  12
ATOM     12  N   UNL     1      22.390  -6.416  24.583  0.00  0.00    +0.000 NA
BRANCH  12  13
ATOM     13  C   UNL     1      23.164  -6.848  23.490  0.00  0.00    +0.000 C 
ATOM     14  S   UNL     1      24.740  -7.175  23.701  0.00  0.00    +0.000 S 
BRANCH  13  17
ATOM     15  O   UNL     1      22.642  -9.273  22.137  0.00  0.00    +0.000 OA
ATOM     16  C   UNL     1      22.324  -8.209  21.573  0.00  0.00    +0.000 C 
ATOM     17  N   UNL     1      22.575  -6.994  22.228  0.00  0.00    +0.000 NA
BRANCH  16  18
ATOM     18  C   UNL     1      21.688  -8.235  20.226  0.00  0.00    +0.000 C 
ATOM     19  C   UNL     1      22.680  -8.198  19.017  0.00  0.00    +0.000 C 
ATOM     20  C   UNL     1      21.862  -6.943  19.408  0.00  0.00    +0.000 C 
ENDBRANCH  16  18
ENDBRANCH  13  17
ENDBRANCH  12  13
ENDBRANCH   1  12
TORSDOF 4
ENDMDL
MODEL 9
REMARK VINA RESULT:      -6.0     18.961     19.696
REMARK  Name = 
REMARK  4 active torsions:
REMARK  status: ('A' for Active; 'I' for Inactive)
REMARK    1  A    between atoms: C_2  and  C_18
REMARK    2  A    between atoms: N_3  and  C_4
REMARK    3  A    between atoms: C_4  and  N_6
REMARK    4  A    between atoms: N_6  and  C_7
REMARK                            x       y       z     vdW  Elec       q    Type
REMARK                         _______ _______ _______ _____ _____    ______ ____
ROOT
ATOM      1  C   UNL     1      29.243  22.606  26.405  0.00  0.00    +0.000 A 
ATOM      2  C   UNL     1      30.531  22.623  25.912  0.00  0.00    +0.000 A 
ATOM      3  C   UNL     1      30.797  22.875  24.566  0.00  0.00    +0.000 A 
ATOM      4  C   UNL     1      29.728  23.109  23.731  0.00  0.00    +0.000 A 
ATOM      5  C   UNL     1      28.415  23.097  24.211  0.00  0.00    +0.000 A 
ATOM      6  C   UNL     1      27.348  23.334  23.362  0.00  0.00    +0.000 A 
ATOM      7  O   UNL     1      27.598  23.588  22.012  0.00  0.00    +0.000 OA
ATOM      8  C   UNL     1      26.059  23.316  23.860  0.00  0.00    +0.000 A 
ATOM      9  C   UNL     1      25.846  23.063  25.192  0.00  0.00    +0.000 A 
ATOM     10  C   UNL     1      26.913  22.827  26.034  0.00  0.00    +0.000 A 
ATOM     11  C   UNL     1      28.190  22.844  25.550  0.00  0.00    +0.000 A 
ENDROOT
BRANCH   1  12
ATOM     12  N   UNL     1      28.975  22.350  27.770  0.00  0.00    +0.000 NA
BRANCH  12  13
ATOM     13  C   UNL     1      29.714  23.021  28.763  0.00  0.00    +0.000 C 
ATOM     14  S   UNL     1      29.506  24.616  28.981  0.00  0.00    +0.000 S 
BRANCH  13  17
ATOM     15  O   UNL     1      32.525  22.960  28.472  0.00  0.00    +0.000 OA
ATOM     16  C   UNL     1      32.018  22.296  29.396  0.00  0.00    +0.000 C 
ATOM     17  N   UNL     1      30.624  22.313  29.557  0.00  0.00    +0.000 NA
BRANCH  16  18
ATOM     18  C   UNL     1      32.884  21.499  30.309  0.00  0.00    +0.000 C 
ATOM     19  C   UNL     1      33.205  22.173  31.684  0.00  0.00    +0.000 C 
ATOM     20  C   UNL     1      34.275  22.105  30.567  0.00  0.00    +0.000 C 
ENDBRANCH  16  18
ENDBRANCH  13  17
ENDBRANCH  12  13
ENDBRANCH   1  12
TORSDOF 4
ENDMDL
MODEL 10
REMARK VINA RESULT:      -5.9     18.241     19.695
REMARK  Name = 
REMARK  4 active torsions:
REMARK  status: ('A' for Active; 'I' for Inactive)
REMARK    1  A    between atoms: C_2  and  C_18
REMARK    2  A    between atoms: N_3  and  C_4
REMARK    3  A    between atoms: C_4  and  N_6
REMARK    4  A    between atoms: N_6  and  C_7
REMARK                            x       y       z     vdW  Elec       q    Type
REMARK                         _______ _______ _______ _____ _____    ______ ____
ROOT
ATOM      1  C   UNL     1      27.012  23.334  24.556  0.00  0.00    +0.000 A 
ATOM      2  C   UNL     1      26.982  23.777  23.251  0.00  0.00    +0.000 A 
ATOM      3  C   UNL     1      28.145  23.901  22.491  0.00  0.00    +0.000 A 
ATOM      4  C   UNL     1      29.340  23.564  23.086  0.00  0.00    +0.000 A 
ATOM      5  C   UNL     1      29.393  23.112  24.408  0.00  0.00    +0.000 A 
ATOM      6  C   UNL     1      30.600  22.777  24.994  0.00  0.00    +0.000 A 
ATOM      7  O   UNL     1      31.774  22.894  24.247  0.00  0.00    +0.000 OA
ATOM      8  C   UNL     1      30.627  22.333  26.303  0.00  0.00    +0.000 A 
ATOM      9  C   UNL     1      29.456  22.228  27.011  0.00  0.00    +0.000 A 
ATOM     10  C   UNL     1      28.255  22.564  26.422  0.00  0.00    +0.000 A 
ATOM     11  C   UNL     1      28.220  23.003  25.129  0.00  0.00    +0.000 A 
ENDROOT
BRANCH   1  12
ATOM     12  N   UNL     1      25.831  23.210  25.326  0.00  0.00    +0.000 NA
BRANCH  12  13
ATOM     13  C   UNL     1      25.344  24.322  26.038  0.00  0.00    +0.000 C 
ATOM     14  S   UNL     1      24.974  25.687  25.243  0.00  0.00    +0.000 S 
BRANCH  13  17
ATOM     15  O   UNL     1      27.099  25.340  28.006  0.00  0.00    +0.000 OA
ATOM     16  C   UNL     1      26.065  24.760  28.389  0.00  0.00    +0.000 C 
ATOM     17  N   UNL     1      25.181  24.247  27.427  0.00  0.00    +0.000 NA
BRANCH  16  18
ATOM     18  C   UNL     1      25.780  24.617  29.844  0.00  0.00    +0.000 C 
ATOM     19  C   UNL     1      24.960  25.785  30.483  0.00  0.00    +0.000 C 
ATOM     20  C   UNL     1      26.481  25.651  30.741  0.00  0.00    +0.000 C 
ENDBRANCH  16  18
ENDBRANCH  13  17
ENDBRANCH  12  13
ENDBRANCH   1  12
TORSDOF 4
ENDMDL
