MODEL 1
REMARK VINA RESULT:      -8.1      0.000      0.000
REMARK  Name = 
REMARK  6 active torsions:
REMARK  status: ('A' for Active; 'I' for Inactive)
REMARK    1  A    between atoms: O_2  and  C_3
REMARK    2  A    between atoms: C_6  and  C_7
REMARK    3  A    between atoms: C_12  and  N_13
REMARK    4  A    between atoms: C_14  and  C_16
REMARK    5  A    between atoms: N_18  and  C_19
REMARK    6  A    between atoms: C_19  and  C_20
REMARK                            x       y       z     vdW  Elec       q    Type
REMARK                         _______ _______ _______ _____ _____    ______ ____
ROOT
ATOM      1  C   UNL     1      38.539   2.159  14.645  0.00  0.00    +0.000 A 
ATOM      2  N   UNL     1      38.407   3.408  15.160  0.00  0.00    +0.000 NA
ATOM      3  N   UNL     1      39.218   4.412  14.878  0.00  0.00    +0.000 N 
ATOM      4  C   UNL     1      40.237   4.187  14.037  0.00  0.00    +0.000 A 
ATOM      5  O   UNL     1      41.006   5.131  13.765  0.00  0.00    +0.000 OA
ATOM      6  C   UNL     1      40.436   2.942  13.473  0.00  0.00    +0.000 A 
ATOM      7  C   UNL     1      41.454   2.654  12.599  0.00  0.00    +0.000 A 
ATOM      8  C   UNL     1      41.681   1.419  12.012  0.00  0.00    +0.000 A 
ATOM      9  C   UNL     1      40.794   0.405  12.350  0.00  0.00    +0.000 A 
ATOM     10  C   UNL     1      39.757   0.644  13.224  0.00  0.00    +0.000 A 
ATOM     11  C   UNL     1      39.575   1.914  13.783  0.00  0.00    +0.000 A 
ENDROOT
BRANCH   1  13
ATOM     12  N   UNL     1      37.686   0.198  16.030  0.00  0.00    +0.000 NA
ATOM     13  C   UNL     1      37.601   1.127  14.982  0.00  0.00    +0.000 C 
ATOM     14  O   UNL     1      36.545   1.028  14.247  0.00  0.00    +0.000 OA
BRANCH  12  20
ATOM     15  C   UNL     1      35.632  -0.425  17.130  0.00  0.00    +0.000 A 
ATOM     16  C   UNL     1      34.559  -1.303  17.331  0.00  0.00    +0.000 A 
ATOM     17  C   UNL     1      34.532  -2.502  16.653  0.00  0.00    +0.000 A 
ATOM     18  C   UNL     1      35.540  -2.854  15.778  0.00  0.00    +0.000 A 
ATOM     19  C   UNL     1      36.591  -1.970  15.591  0.00  0.00    +0.000 A 
ATOM     20  C   UNL     1      36.637  -0.759  16.265  0.00  0.00    +0.000 A 
BRANCH  18  21
ATOM     21  C   UNL     1      35.475  -4.161  15.067  0.00  0.00    +0.000 C 
ATOM     22  C   UNL     1      34.150  -4.438  14.441  0.00  0.00    +0.000 C 
ATOM     23  C   UNL     1      36.582  -4.233  14.047  0.00  0.00    +0.000 C 
ATOM     24  C   UNL     1      35.807  -5.269  16.093  0.00  0.00    +0.000 C 
ENDBRANCH  18  21
BRANCH  15  26
ATOM     25  C   UNL     1      36.208   0.794  19.146  0.00  0.00    +0.000 C 
ATOM     26  O   UNL     1      35.673   0.773  17.814  0.00  0.00    +0.000 OA
ENDBRANCH  15  26
ENDBRANCH  12  20
ENDBRANCH   1  13
BRANCH   3  27
ATOM     27  C   UNL     1      39.001   5.723  15.435  0.00  0.00    +0.000 C 
BRANCH  27  28
ATOM     28  C   UNL     1      39.575   5.900  16.786  0.00  0.00    +0.000 A 
ATOM     29  C   UNL     1      40.873   6.236  16.993  0.00  0.00    +0.000 A 
ATOM     30  C   UNL     1      41.472   6.422  18.242  0.00  0.00    +0.000 A 
ATOM     31  C   UNL     1      40.639   6.241  19.317  0.00  0.00    +0.000 A 
ATOM     32  C   UNL     1      39.352   5.904  19.183  0.00  0.00    +0.000 A 
ATOM     33  C   UNL     1      38.746   5.716  17.920  0.00  0.00    +0.000 A 
ENDBRANCH  27  28
ENDBRANCH   3  27
TORSDOF 6
ENDMDL
MODEL 2
REMARK VINA RESULT:      -8.0      2.673      4.043
REMARK  Name = 
REMARK  6 active torsions:
REMARK  status: ('A' for Active; 'I' for Inactive)
REMARK    1  A    between atoms: O_2  and  C_3
REMARK    2  A    between atoms: C_6  and  C_7
REMARK    3  A    between atoms: C_12  and  N_13
REMARK    4  A    between atoms: C_14  and  C_16
REMARK    5  A    between atoms: N_18  and  C_19
REMARK    6  A    between atoms: C_19  and  C_20
REMARK                            x       y       z     vdW  Elec       q    Type
REMARK                         _______ _______ _______ _____ _____    ______ ____
ROOT
ATOM      1  C   UNL     1      38.044   3.874  15.893  0.00  0.00    +0.000 A 
ATOM      2  N   UNL     1      38.491   4.316  17.096  0.00  0.00    +0.000 NA
ATOM      3  N   UNL     1      38.465   5.583  17.473  0.00  0.00    +0.000 N 
ATOM      4  C   UNL     1      37.972   6.488  16.617  0.00  0.00    +0.000 A 
ATOM      5  O   UNL     1      37.943   7.686  16.966  0.00  0.00    +0.000 OA
ATOM      6  C   UNL     1      37.499   6.115  15.375  0.00  0.00    +0.000 A 
ATOM      7  C   UNL     1      36.976   6.993  14.461  0.00  0.00    +0.000 A 
ATOM      8  C   UNL     1      36.489   6.654  13.208  0.00  0.00    +0.000 A 
ATOM      9  C   UNL     1      36.545   5.307  12.872  0.00  0.00    +0.000 A 
ATOM     10  C   UNL     1      37.064   4.385  13.754  0.00  0.00    +0.000 A 
ATOM     11  C   UNL     1      37.537   4.788  15.008  0.00  0.00    +0.000 A 
ENDROOT
BRANCH   1  13
ATOM     12  N   UNL     1      37.069   1.525  15.737  0.00  0.00    +0.000 NA
ATOM     13  C   UNL     1      38.085   2.477  15.567  0.00  0.00    +0.000 C 
ATOM     14  O   UNL     1      39.179   2.025  15.053  0.00  0.00    +0.000 OA
BRANCH  12  20
ATOM     15  C   UNL     1      36.986  -0.167  14.020  0.00  0.00    +0.000 A 
ATOM     16  C   UNL     1      37.217  -1.472  13.565  0.00  0.00    +0.000 A 
ATOM     17  C   UNL     1      37.705  -2.416  14.439  0.00  0.00    +0.000 A 
ATOM     18  C   UNL     1      37.976  -2.103  15.757  0.00  0.00    +0.000 A 
ATOM     19  C   UNL     1      37.744  -0.806  16.188  0.00  0.00    +0.000 A 
ATOM     20  C   UNL     1      37.250   0.159  15.322  0.00  0.00    +0.000 A 
BRANCH  18  21
ATOM     21  C   UNL     1      38.500  -3.154  16.672  0.00  0.00    +0.000 C 
ATOM     22  C   UNL     1      38.579  -2.722  18.097  0.00  0.00    +0.000 C 
ATOM     23  C   UNL     1      37.669  -4.403  16.529  0.00  0.00    +0.000 C 
ATOM     24  C   UNL     1      39.907  -3.551  16.171  0.00  0.00    +0.000 C 
ENDBRANCH  18  21
BRANCH  15  26
ATOM     25  C   UNL     1      37.041   0.879  11.833  0.00  0.00    +0.000 C 
ATOM     26  O   UNL     1      36.485   0.782  13.154  0.00  0.00    +0.000 OA
ENDBRANCH  15  26
ENDBRANCH  12  20
ENDBRANCH   1  13
BRANCH   3  27
ATOM     27  C   UNL     1      38.925   5.980  18.779  0.00  0.00    +0.000 C 
BRANCH  27  28
ATOM     28  C   UNL     1      40.382   6.223  18.850  0.00  0.00    +0.000 A 
ATOM     29  C   UNL     1      41.048   6.353  20.024  0.00  0.00    +0.000 A 
ATOM     30  C   UNL     1      42.420   6.579  20.157  0.00  0.00    +0.000 A 
ATOM     31  C   UNL     1      43.110   6.669  18.974  0.00  0.00    +0.000 A 
ATOM     32  C   UNL     1      42.513   6.556  17.782  0.00  0.00    +0.000 A 
ATOM     33  C   UNL     1      41.126   6.327  17.649  0.00  0.00    +0.000 A 
ENDBRANCH  27  28
ENDBRANCH   3  27
TORSDOF 6
ENDMDL
MODEL 3
REMARK VINA RESULT:      -7.9      2.446      8.580
REMARK  Name = 
REMARK  6 active torsions:
REMARK  status: ('A' for Active; 'I' for Inactive)
REMARK    1  A    between atoms: O_2  and  C_3
REMARK    2  A    between atoms: C_6  and  C_7
REMARK    3  A    between atoms: C_12  and  N_13
REMARK    4  A    between atoms: C_14  and  C_16
REMARK    5  A    between atoms: N_18  and  C_19
REMARK    6  A    between atoms: C_19  and  C_20
REMARK                            x       y       z     vdW  Elec       q    Type
REMARK                         _______ _______ _______ _____ _____    ______ ____
ROOT
ATOM      1  C   UNL     1      37.847   3.892  16.578  0.00  0.00    +0.000 A 
ATOM      2  N   UNL     1      36.775   3.140  16.934  0.00  0.00    +0.000 NA
ATOM      3  N   UNL     1      36.132   2.332  16.108  0.00  0.00    +0.000 N 
ATOM      4  C   UNL     1      36.561   2.251  14.841  0.00  0.00    +0.000 A 
ATOM      5  O   UNL     1      35.960   1.490  14.055  0.00  0.00    +0.000 OA
ATOM      6  C   UNL     1      37.645   2.986  14.404  0.00  0.00    +0.000 A 
ATOM      7  C   UNL     1      38.134   2.938  13.123  0.00  0.00    +0.000 A 
ATOM      8  C   UNL     1      39.221   3.657  12.652  0.00  0.00    +0.000 A 
ATOM      9  C   UNL     1      39.853   4.488  13.569  0.00  0.00    +0.000 A 
ATOM     10  C   UNL     1      39.398   4.573  14.867  0.00  0.00    +0.000 A 
ATOM     11  C   UNL     1      38.297   3.818  15.286  0.00  0.00    +0.000 A 
ENDROOT
BRANCH   1  13
ATOM     12  N   UNL     1      39.014   6.021  17.351  0.00  0.00    +0.000 NA
ATOM     13  C   UNL     1      38.505   4.727  17.541  0.00  0.00    +0.000 C 
ATOM     14  O   UNL     1      38.653   4.250  18.730  0.00  0.00    +0.000 OA
BRANCH  12  20
ATOM     15  C   UNL     1      38.842   7.629  19.140  0.00  0.00    +0.000 A 
ATOM     16  C   UNL     1      39.377   8.306  20.244  0.00  0.00    +0.000 A 
ATOM     17  C   UNL     1      40.687   8.081  20.603  0.00  0.00    +0.000 A 
ATOM     18  C   UNL     1      41.484   7.200  19.899  0.00  0.00    +0.000 A 
ATOM     19  C   UNL     1      40.935   6.538  18.812  0.00  0.00    +0.000 A 
ATOM     20  C   UNL     1      39.617   6.751  18.433  0.00  0.00    +0.000 A 
BRANCH  18  21
ATOM     21  C   UNL     1      42.897   6.988  20.318  0.00  0.00    +0.000 C 
ATOM     22  C   UNL     1      43.085   5.812  21.216  0.00  0.00    +0.000 C 
ATOM     23  C   UNL     1      43.772   6.882  19.095  0.00  0.00    +0.000 C 
ATOM     24  C   UNL     1      43.370   8.272  21.037  0.00  0.00    +0.000 C 
ENDBRANCH  18  21
BRANCH  15  26
ATOM     25  C   UNL     1      36.734   8.755  19.550  0.00  0.00    +0.000 C 
ATOM     26  O   UNL     1      37.534   7.856  18.766  0.00  0.00    +0.000 OA
ENDBRANCH  15  26
ENDBRANCH  12  20
ENDBRANCH   1  13
BRANCH   3  27
ATOM     27  C   UNL     1      35.020   1.537  16.560  0.00  0.00    +0.000 C 
BRANCH  27  28
ATOM     28  C   UNL     1      35.418   0.268  17.209  0.00  0.00    +0.000 A 
ATOM     29  C   UNL     1      35.961   0.218  18.450  0.00  0.00    +0.000 A 
ATOM     30  C   UNL     1      36.352  -0.946  19.117  0.00  0.00    +0.000 A 
ATOM     31  C   UNL     1      36.150  -2.110  18.418  0.00  0.00    +0.000 A 
ATOM     32  C   UNL     1      35.624  -2.130  17.189  0.00  0.00    +0.000 A 
ATOM     33  C   UNL     1      35.228  -0.952  16.515  0.00  0.00    +0.000 A 
ENDBRANCH  27  28
ENDBRANCH   3  27
TORSDOF 6
ENDMDL
MODEL 4
REMARK VINA RESULT:      -7.8      3.025      6.549
REMARK  Name = 
REMARK  6 active torsions:
REMARK  status: ('A' for Active; 'I' for Inactive)
REMARK    1  A    between atoms: O_2  and  C_3
REMARK    2  A    between atoms: C_6  and  C_7
REMARK    3  A    between atoms: C_12  and  N_13
REMARK    4  A    between atoms: C_14  and  C_16
REMARK    5  A    between atoms: N_18  and  C_19
REMARK    6  A    between atoms: C_19  and  C_20
REMARK                            x       y       z     vdW  Elec       q    Type
REMARK                         _______ _______ _______ _____ _____    ______ ____
ROOT
ATOM      1  C   UNL     1      38.218   0.297  15.332  0.00  0.00    +0.000 A 
ATOM      2  N   UNL     1      38.209   1.645  15.168  0.00  0.00    +0.000 NA
ATOM      3  N   UNL     1      37.186   2.420  15.483  0.00  0.00    +0.000 N 
ATOM      4  C   UNL     1      36.088   1.845  15.990  0.00  0.00    +0.000 A 
ATOM      5  O   UNL     1      35.118   2.570  16.291  0.00  0.00    +0.000 OA
ATOM      6  C   UNL     1      36.021   0.479  16.186  0.00  0.00    +0.000 A 
ATOM      7  C   UNL     1      34.929  -0.165  16.709  0.00  0.00    +0.000 A 
ATOM      8  C   UNL     1      34.829  -1.531  16.922  0.00  0.00    +0.000 A 
ATOM      9  C   UNL     1      35.937  -2.291  16.570  0.00  0.00    +0.000 A 
ATOM     10  C   UNL     1      37.058  -1.691  16.039  0.00  0.00    +0.000 A 
ATOM     11  C   UNL     1      37.102  -0.305  15.851  0.00  0.00    +0.000 A 
ENDROOT
BRANCH   1  13
ATOM     12  N   UNL     1      40.220  -0.309  13.877  0.00  0.00    +0.000 NA
ATOM     13  C   UNL     1      39.378  -0.473  14.987  0.00  0.00    +0.000 C 
ATOM     14  O   UNL     1      39.704  -1.434  15.784  0.00  0.00    +0.000 OA
BRANCH  12  20
ATOM     15  C   UNL     1      41.297  -2.176  12.794  0.00  0.00    +0.000 A 
ATOM     16  C   UNL     1      42.424  -2.966  12.534  0.00  0.00    +0.000 A 
ATOM     17  C   UNL     1      43.604  -2.696  13.189  0.00  0.00    +0.000 A 
ATOM     18  C   UNL     1      43.700  -1.658  14.096  0.00  0.00    +0.000 A 
ATOM     19  C   UNL     1      42.575  -0.886  14.337  0.00  0.00    +0.000 A 
ATOM     20  C   UNL     1      41.376  -1.144  13.689  0.00  0.00    +0.000 A 
BRANCH  18  21
ATOM     21  C   UNL     1      44.995  -1.401  14.786  0.00  0.00    +0.000 C 
ATOM     22  C   UNL     1      44.982  -0.182  15.646  0.00  0.00    +0.000 C 
ATOM     23  C   UNL     1      45.392  -2.619  15.579  0.00  0.00    +0.000 C 
ATOM     24  C   UNL     1      46.085  -1.259  13.699  0.00  0.00    +0.000 C 
ENDBRANCH  18  21
BRANCH  15  26
ATOM     25  C   UNL     1      40.113  -2.626  10.726  0.00  0.00    +0.000 C 
ATOM     26  O   UNL     1      40.107  -2.447  12.151  0.00  0.00    +0.000 OA
ENDBRANCH  15  26
ENDBRANCH  12  20
ENDBRANCH   1  13
BRANCH   3  27
ATOM     27  C   UNL     1      37.257   3.849  15.314  0.00  0.00    +0.000 C 
BRANCH  27  28
ATOM     28  C   UNL     1      38.221   4.510  16.219  0.00  0.00    +0.000 A 
ATOM     29  C   UNL     1      38.107   4.470  17.569  0.00  0.00    +0.000 A 
ATOM     30  C   UNL     1      38.985   5.069  18.476  0.00  0.00    +0.000 A 
ATOM     31  C   UNL     1      40.036   5.743  17.905  0.00  0.00    +0.000 A 
ATOM     32  C   UNL     1      40.205   5.825  16.581  0.00  0.00    +0.000 A 
ATOM     33  C   UNL     1      39.316   5.219  15.665  0.00  0.00    +0.000 A 
ENDBRANCH  27  28
ENDBRANCH   3  27
TORSDOF 6
ENDMDL
MODEL 5
REMARK VINA RESULT:      -7.8      3.516      7.539
REMARK  Name = 
REMARK  6 active torsions:
REMARK  status: ('A' for Active; 'I' for Inactive)
REMARK    1  A    between atoms: O_2  and  C_3
REMARK    2  A    between atoms: C_6  and  C_7
REMARK    3  A    between atoms: C_12  and  N_13
REMARK    4  A    between atoms: C_14  and  C_16
REMARK    5  A    between atoms: N_18  and  C_19
REMARK    6  A    between atoms: C_19  and  C_20
REMARK                            x       y       z     vdW  Elec       q    Type
REMARK                         _______ _______ _______ _____ _____    ______ ____
ROOT
ATOM      1  C   UNL     1      37.992  -1.654  15.620  0.00  0.00    +0.000 A 
ATOM      2  N   UNL     1      37.768  -0.436  16.176  0.00  0.00    +0.000 NA
ATOM      3  N   UNL     1      36.598  -0.042  16.646  0.00  0.00    +0.000 N 
ATOM      4  C   UNL     1      35.565  -0.893  16.568  0.00  0.00    +0.000 A 
ATOM      5  O   UNL     1      34.457  -0.529  17.011  0.00  0.00    +0.000 OA
ATOM      6  C   UNL     1      35.714  -2.149  16.014  0.00  0.00    +0.000 A 
ATOM      7  C   UNL     1      34.698  -3.065  15.914  0.00  0.00    +0.000 A 
ATOM      8  C   UNL     1      34.812  -4.334  15.370  0.00  0.00    +0.000 A 
ATOM      9  C   UNL     1      36.068  -4.687  14.892  0.00  0.00    +0.000 A 
ATOM     10  C   UNL     1      37.121  -3.802  14.968  0.00  0.00    +0.000 A 
ATOM     11  C   UNL     1      36.945  -2.534  15.533  0.00  0.00    +0.000 A 
ENDROOT
BRANCH   1  13
ATOM     12  N   UNL     1      40.017  -1.452  14.087  0.00  0.00    +0.000 NA
ATOM     13  C   UNL     1      39.299  -2.015  15.153  0.00  0.00    +0.000 C 
ATOM     14  O   UNL     1      39.904  -2.968  15.778  0.00  0.00    +0.000 OA
BRANCH  12  20
ATOM     15  C   UNL     1      41.506  -2.743  12.697  0.00  0.00    +0.000 A 
ATOM     16  C   UNL     1      42.791  -3.145  12.310  0.00  0.00    +0.000 A 
ATOM     17  C   UNL     1      43.883  -2.688  13.014  0.00  0.00    +0.000 A 
ATOM     18  C   UNL     1      43.736  -1.838  14.093  0.00  0.00    +0.000 A 
ATOM     19  C   UNL     1      42.457  -1.449  14.458  0.00  0.00    +0.000 A 
ATOM     20  C   UNL     1      41.345  -1.900  13.763  0.00  0.00    +0.000 A 
BRANCH  18  21
ATOM     21  C   UNL     1      44.942  -1.368  14.830  0.00  0.00    +0.000 C 
ATOM     22  C   UNL     1      46.108  -1.076  13.947  0.00  0.00    +0.000 C 
ATOM     23  C   UNL     1      44.582  -0.169  15.668  0.00  0.00    +0.000 C 
ATOM     24  C   UNL     1      45.324  -2.467  15.849  0.00  0.00    +0.000 C 
ENDBRANCH  18  21
BRANCH  15  26
ATOM     25  C   UNL     1      40.204  -2.770  10.652  0.00  0.00    +0.000 C 
ATOM     26  O   UNL     1      40.407  -3.206  12.005  0.00  0.00    +0.000 OA
ENDBRANCH  15  26
ENDBRANCH  12  20
ENDBRANCH   1  13
BRANCH   3  27
ATOM     27  C   UNL     1      36.438   1.253  17.255  0.00  0.00    +0.000 C 
BRANCH  27  28
ATOM     28  C   UNL     1      36.099   2.326  16.295  0.00  0.00    +0.000 A 
ATOM     29  C   UNL     1      34.822   2.639  15.966  0.00  0.00    +0.000 A 
ATOM     30  C   UNL     1      34.438   3.642  15.072  0.00  0.00    +0.000 A 
ATOM     31  C   UNL     1      35.475   4.342  14.506  0.00  0.00    +0.000 A 
ATOM     32  C   UNL     1      36.756   4.081  14.784  0.00  0.00    +0.000 A 
ATOM     33  C   UNL     1      37.144   3.067  15.688  0.00  0.00    +0.000 A 
ENDBRANCH  27  28
ENDBRANCH   3  27
TORSDOF 6
ENDMDL
MODEL 6
REMARK VINA RESULT:      -7.7      3.162      7.844
REMARK  Name = 
REMARK  6 active torsions:
REMARK  status: ('A' for Active; 'I' for Inactive)
REMARK    1  A    between atoms: O_2  and  C_3
REMARK    2  A    between atoms: C_6  and  C_7
REMARK    3  A    between atoms: C_12  and  N_13
REMARK    4  A    between atoms: C_14  and  C_16
REMARK    5  A    between atoms: N_18  and  C_19
REMARK    6  A    between atoms: C_19  and  C_20
REMARK                            x       y       z     vdW  Elec       q    Type
REMARK                         _______ _______ _______ _____ _____    ______ ____
ROOT
ATOM      1  C   UNL     1      38.729  -0.028  15.061  0.00  0.00    +0.000 A 
ATOM      2  N   UNL     1      38.000  -0.918  15.781  0.00  0.00    +0.000 NA
ATOM      3  N   UNL     1      38.436  -2.115  16.135  0.00  0.00    +0.000 N 
ATOM      4  C   UNL     1      39.671  -2.476  15.760  0.00  0.00    +0.000 A 
ATOM      5  O   UNL     1      40.090  -3.603  16.091  0.00  0.00    +0.000 OA
ATOM      6  C   UNL     1      40.472  -1.624  15.025  0.00  0.00    +0.000 A 
ATOM      7  C   UNL     1      41.746  -1.933  14.620  0.00  0.00    +0.000 A 
ATOM      8  C   UNL     1      42.579  -1.103  13.886  0.00  0.00    +0.000 A 
ATOM      9  C   UNL     1      42.061   0.140  13.545  0.00  0.00    +0.000 A 
ATOM     10  C   UNL     1      40.787   0.498  13.927  0.00  0.00    +0.000 A 
ATOM     11  C   UNL     1      39.993  -0.383  14.671  0.00  0.00    +0.000 A 
ENDROOT
BRANCH   1  13
ATOM     12  N   UNL     1      37.270   1.580  13.728  0.00  0.00    +0.000 NA
ATOM     13  C   UNL     1      38.192   1.262  14.736  0.00  0.00    +0.000 C 
ATOM     14  O   UNL     1      38.591   2.262  15.449  0.00  0.00    +0.000 OA
BRANCH  12  20
ATOM     15  C   UNL     1      35.667   3.313  14.221  0.00  0.00    +0.000 A 
ATOM     16  C   UNL     1      35.214   4.636  14.125  0.00  0.00    +0.000 A 
ATOM     17  C   UNL     1      35.912   5.534  13.349  0.00  0.00    +0.000 A 
ATOM     18  C   UNL     1      37.051   5.158  12.664  0.00  0.00    +0.000 A 
ATOM     19  C   UNL     1      37.484   3.847  12.774  0.00  0.00    +0.000 A 
ATOM     20  C   UNL     1      36.795   2.926  13.550  0.00  0.00    +0.000 A 
BRANCH  18  21
ATOM     21  C   UNL     1      37.774   6.159  11.832  0.00  0.00    +0.000 C 
ATOM     22  C   UNL     1      36.889   6.914  10.898  0.00  0.00    +0.000 C 
ATOM     23  C   UNL     1      38.541   7.097  12.729  0.00  0.00    +0.000 C 
ATOM     24  C   UNL     1      38.856   5.403  11.027  0.00  0.00    +0.000 C 
ENDBRANCH  18  21
BRANCH  15  26
ATOM     25  C   UNL     1      35.108   2.446  16.415  0.00  0.00    +0.000 C 
ATOM     26  O   UNL     1      34.968   2.404  14.987  0.00  0.00    +0.000 OA
ENDBRANCH  15  26
ENDBRANCH  12  20
ENDBRANCH   1  13
BRANCH   3  27
ATOM     27  C   UNL     1      37.621  -2.998  16.929  0.00  0.00    +0.000 C 
BRANCH  27  28
ATOM     28  C   UNL     1      36.362  -3.405  16.268  0.00  0.00    +0.000 A 
ATOM     29  C   UNL     1      35.158  -2.874  16.594  0.00  0.00    +0.000 A 
ATOM     30  C   UNL     1      33.937  -3.212  16.005  0.00  0.00    +0.000 A 
ATOM     31  C   UNL     1      34.014  -4.164  15.018  0.00  0.00    +0.000 A 
ATOM     32  C   UNL     1      35.168  -4.730  14.652  0.00  0.00    +0.000 A 
ATOM     33  C   UNL     1      36.402  -4.388  15.248  0.00  0.00    +0.000 A 
ENDBRANCH  27  28
ENDBRANCH   3  27
TORSDOF 6
ENDMDL
MODEL 7
REMARK VINA RESULT:      -7.4      2.376      8.275
REMARK  Name = 
REMARK  6 active torsions:
REMARK  status: ('A' for Active; 'I' for Inactive)
REMARK    1  A    between atoms: O_2  and  C_3
REMARK    2  A    between atoms: C_6  and  C_7
REMARK    3  A    between atoms: C_12  and  N_13
REMARK    4  A    between atoms: C_14  and  C_16
REMARK    5  A    between atoms: N_18  and  C_19
REMARK    6  A    between atoms: C_19  and  C_20
REMARK                            x       y       z     vdW  Elec       q    Type
REMARK                         _______ _______ _______ _____ _____    ______ ____
ROOT
ATOM      1  C   UNL     1      37.365   0.424  14.954  0.00  0.00    +0.000 A 
ATOM      2  N   UNL     1      38.064  -0.345  14.080  0.00  0.00    +0.000 NA
ATOM      3  N   UNL     1      37.851  -1.636  13.899  0.00  0.00    +0.000 N 
ATOM      4  C   UNL     1      36.891  -2.228  14.622  0.00  0.00    +0.000 A 
ATOM      5  O   UNL     1      36.683  -3.446  14.455  0.00  0.00    +0.000 OA
ATOM      6  C   UNL     1      36.138  -1.512  15.531  0.00  0.00    +0.000 A 
ATOM      7  C   UNL     1      35.136  -2.059  16.293  0.00  0.00    +0.000 A 
ATOM      8  C   UNL     1      34.359  -1.372  17.211  0.00  0.00    +0.000 A 
ATOM      9  C   UNL     1      34.633  -0.017  17.356  0.00  0.00    +0.000 A 
ATOM     10  C   UNL     1      35.630   0.579  16.616  0.00  0.00    +0.000 A 
ATOM     11  C   UNL     1      36.380  -0.167  15.700  0.00  0.00    +0.000 A 
ENDROOT
BRANCH   1  13
ATOM     12  N   UNL     1      36.719   2.880  15.159  0.00  0.00    +0.000 NA
ATOM     13  C   UNL     1      37.642   1.826  15.077  0.00  0.00    +0.000 C 
ATOM     14  O   UNL     1      38.882   2.180  15.121  0.00  0.00    +0.000 OA
BRANCH  12  20
ATOM     15  C   UNL     1      36.821   5.150  14.352  0.00  0.00    +0.000 A 
ATOM     16  C   UNL     1      37.169   6.498  14.508  0.00  0.00    +0.000 A 
ATOM     17  C   UNL     1      37.849   6.894  15.638  0.00  0.00    +0.000 A 
ATOM     18  C   UNL     1      38.193   5.989  16.623  0.00  0.00    +0.000 A 
ATOM     19  C   UNL     1      37.838   4.660  16.451  0.00  0.00    +0.000 A 
ATOM     20  C   UNL     1      37.154   4.241  15.319  0.00  0.00    +0.000 A 
BRANCH  18  21
ATOM     21  C   UNL     1      38.932   6.456  17.829  0.00  0.00    +0.000 C 
ATOM     22  C   UNL     1      39.198   5.378  18.824  0.00  0.00    +0.000 C 
ATOM     23  C   UNL     1      40.212   7.129  17.403  0.00  0.00    +0.000 C 
ATOM     24  C   UNL     1      38.093   7.576  18.486  0.00  0.00    +0.000 C 
ENDBRANCH  18  21
BRANCH  15  26
ATOM     25  C   UNL     1      35.824   5.719  12.217  0.00  0.00    +0.000 C 
ATOM     26  O   UNL     1      36.150   4.743  13.218  0.00  0.00    +0.000 OA
ENDBRANCH  15  26
ENDBRANCH  12  20
ENDBRANCH   1  13
BRANCH   3  27
ATOM     27  C   UNL     1      38.608  -2.385  12.929  0.00  0.00    +0.000 C 
BRANCH  27  28
ATOM     28  C   UNL     1      40.072  -2.216  13.054  0.00  0.00    +0.000 A 
ATOM     29  C   UNL     1      40.869  -1.918  11.998  0.00  0.00    +0.000 A 
ATOM     30  C   UNL     1      42.254  -1.741  12.053  0.00  0.00    +0.000 A 
ATOM     31  C   UNL     1      42.809  -1.890  13.300  0.00  0.00    +0.000 A 
ATOM     32  C   UNL     1      42.081  -2.189  14.380  0.00  0.00    +0.000 A 
ATOM     33  C   UNL     1      40.681  -2.367  14.325  0.00  0.00    +0.000 A 
ENDBRANCH  27  28
ENDBRANCH   3  27
TORSDOF 6
ENDMDL
MODEL 8
REMARK VINA RESULT:      -7.4     26.834     30.580
REMARK  Name = 
REMARK  6 active torsions:
REMARK  status: ('A' for Active; 'I' for Inactive)
REMARK    1  A    between atoms: O_2  and  C_3
REMARK    2  A    between atoms: C_6  and  C_7
REMARK    3  A    between atoms: C_12  and  N_13
REMARK    4  A    between atoms: C_14  and  C_16
REMARK    5  A    between atoms: N_18  and  C_19
REMARK    6  A    between atoms: C_19  and  C_20
REMARK                            x       y       z     vdW  Elec       q    Type
REMARK                         _______ _______ _______ _____ _____    ______ ____
ROOT
ATOM      1  C   UNL     1      25.854  13.521  40.698  0.00  0.00    +0.000 A 
ATOM      2  N   UNL     1      26.250  12.234  40.526  0.00  0.00    +0.000 NA
ATOM      3  N   UNL     1      26.297  11.339  41.498  0.00  0.00    +0.000 N 
ATOM      4  C   UNL     1      25.937  11.723  42.730  0.00  0.00    +0.000 A 
ATOM      5  O   UNL     1      25.978  10.884  43.653  0.00  0.00    +0.000 OA
ATOM      6  C   UNL     1      25.523  13.016  42.984  0.00  0.00    +0.000 A 
ATOM      7  C   UNL     1      25.134  13.465  44.220  0.00  0.00    +0.000 A 
ATOM      8  C   UNL     1      24.709  14.752  44.510  0.00  0.00    +0.000 A 
ATOM      9  C   UNL     1      24.683  15.644  43.446  0.00  0.00    +0.000 A 
ATOM     10  C   UNL     1      25.065  15.243  42.185  0.00  0.00    +0.000 A 
ATOM     11  C   UNL     1      25.481  13.927  41.953  0.00  0.00    +0.000 A 
ENDROOT
BRANCH   1  13
ATOM     12  N   UNL     1      24.696  14.765  38.801  0.00  0.00    +0.000 NA
ATOM     13  C   UNL     1      25.807  14.426  39.586  0.00  0.00    +0.000 C 
ATOM     14  O   UNL     1      26.910  15.008  39.256  0.00  0.00    +0.000 OA
BRANCH  12  20
ATOM     15  C   UNL     1      24.492  17.032  38.002  0.00  0.00    +0.000 A 
ATOM     16  C   UNL     1      24.649  18.006  37.008  0.00  0.00    +0.000 A 
ATOM     17  C   UNL     1      25.112  17.635  35.765  0.00  0.00    +0.000 A 
ATOM     18  C   UNL     1      25.428  16.321  35.480  0.00  0.00    +0.000 A 
ATOM     19  C   UNL     1      25.268  15.372  36.478  0.00  0.00    +0.000 A 
ATOM     20  C   UNL     1      24.801  15.726  37.735  0.00  0.00    +0.000 A 
BRANCH  18  21
ATOM     21  C   UNL     1      25.922  15.960  34.123  0.00  0.00    +0.000 C 
ATOM     22  C   UNL     1      27.376  16.230  33.924  0.00  0.00    +0.000 C 
ATOM     23  C   UNL     1      25.594  14.517  33.837  0.00  0.00    +0.000 C 
ATOM     24  C   UNL     1      25.098  16.768  33.094  0.00  0.00    +0.000 C 
ENDBRANCH  18  21
BRANCH  15  26
ATOM     25  C   UNL     1      24.799  18.285  40.055  0.00  0.00    +0.000 C 
ATOM     26  O   UNL     1      24.017  17.393  39.245  0.00  0.00    +0.000 OA
ENDBRANCH  15  26
ENDBRANCH  12  20
ENDBRANCH   1  13
BRANCH   3  27
ATOM     27  C   UNL     1      26.696   9.980  41.239  0.00  0.00    +0.000 C 
BRANCH  27  28
ATOM     28  C   UNL     1      28.162   9.792  41.165  0.00  0.00    +0.000 A 
ATOM     29  C   UNL     1      28.990  10.701  40.593  0.00  0.00    +0.000 A 
ATOM     30  C   UNL     1      30.379  10.583  40.496  0.00  0.00    +0.000 A 
ATOM     31  C   UNL     1      30.902   9.436  41.039  0.00  0.00    +0.000 A 
ATOM     32  C   UNL     1      30.141   8.498  41.612  0.00  0.00    +0.000 A 
ATOM     33  C   UNL     1      28.737   8.618  41.710  0.00  0.00    +0.000 A 
ENDBRANCH  27  28
ENDBRANCH   3  27
TORSDOF 6
ENDMDL
MODEL 9
REMARK VINA RESULT:      -7.3      5.026      8.062
REMARK  Name = 
REMARK  6 active torsions:
REMARK  status: ('A' for Active; 'I' for Inactive)
REMARK    1  A    between atoms: O_2  and  C_3
REMARK    2  A    between atoms: C_6  and  C_7
REMARK    3  A    between atoms: C_12  and  N_13
REMARK    4  A    between atoms: C_14  and  C_16
REMARK    5  A    between atoms: N_18  and  C_19
REMARK    6  A    between atoms: C_19  and  C_20
REMARK                            x       y       z     vdW  Elec       q    Type
REMARK                         _______ _______ _______ _____ _____    ______ ____
ROOT
ATOM      1  C   UNL     1      37.043   5.452  14.696  0.00  0.00    +0.000 A 
ATOM      2  N   UNL     1      37.982   6.026  15.491  0.00  0.00    +0.000 NA
ATOM      3  N   UNL     1      38.410   5.502  16.626  0.00  0.00    +0.000 N 
ATOM      4  C   UNL     1      37.885   4.334  17.022  0.00  0.00    +0.000 A 
ATOM      5  O   UNL     1      38.286   3.832  18.092  0.00  0.00    +0.000 OA
ATOM      6  C   UNL     1      36.925   3.689  16.268  0.00  0.00    +0.000 A 
ATOM      7  C   UNL     1      36.358   2.490  16.616  0.00  0.00    +0.000 A 
ATOM      8  C   UNL     1      35.397   1.813  15.882  0.00  0.00    +0.000 A 
ATOM      9  C   UNL     1      34.988   2.417  14.700  0.00  0.00    +0.000 A 
ATOM     10  C   UNL     1      35.526   3.623  14.307  0.00  0.00    +0.000 A 
ATOM     11  C   UNL     1      36.498   4.257  15.088  0.00  0.00    +0.000 A 
ENDROOT
BRANCH   1  13
ATOM     12  N   UNL     1      35.421   6.686  13.168  0.00  0.00    +0.000 NA
ATOM     13  C   UNL     1      36.647   6.074  13.466  0.00  0.00    +0.000 C 
ATOM     14  O   UNL     1      37.511   6.083  12.508  0.00  0.00    +0.000 OA
BRANCH  12  20
ATOM     15  C   UNL     1      35.069   8.667  11.837  0.00  0.00    +0.000 A 
ATOM     16  C   UNL     1      34.910   9.309  10.602  0.00  0.00    +0.000 A 
ATOM     17  C   UNL     1      34.870   8.556   9.450  0.00  0.00    +0.000 A 
ATOM     18  C   UNL     1      34.987   7.180   9.487  0.00  0.00    +0.000 A 
ATOM     19  C   UNL     1      35.146   6.564  10.718  0.00  0.00    +0.000 A 
ATOM     20  C   UNL     1      35.187   7.305  11.890  0.00  0.00    +0.000 A 
BRANCH  18  21
ATOM     21  C   UNL     1      34.935   6.402   8.218  0.00  0.00    +0.000 C 
ATOM     22  C   UNL     1      35.424   4.999   8.356  0.00  0.00    +0.000 C 
ATOM     23  C   UNL     1      33.534   6.436   7.665  0.00  0.00    +0.000 C 
ATOM     24  C   UNL     1      35.794   7.151   7.174  0.00  0.00    +0.000 C 
ENDBRANCH  18  21
BRANCH  15  26
ATOM     25  C   UNL     1      34.251  10.567  13.102  0.00  0.00    +0.000 C 
ATOM     26  O   UNL     1      35.098   9.412  12.997  0.00  0.00    +0.000 OA
ENDBRANCH  15  26
ENDBRANCH  12  20
ENDBRANCH   1  13
BRANCH   3  27
ATOM     27  C   UNL     1      39.434   6.149  17.404  0.00  0.00    +0.000 C 
BRANCH  27  28
ATOM     28  C   UNL     1      38.908   7.034  18.466  0.00  0.00    +0.000 A 
ATOM     29  C   UNL     1      37.834   7.841  18.282  0.00  0.00    +0.000 A 
ATOM     30  C   UNL     1      37.287   8.695  19.245  0.00  0.00    +0.000 A 
ATOM     31  C   UNL     1      37.924   8.679  20.461  0.00  0.00    +0.000 A 
ATOM     32  C   UNL     1      38.990   7.911  20.706  0.00  0.00    +0.000 A 
ATOM     33  C   UNL     1      39.542   7.049  19.733  0.00  0.00    +0.000 A 
ENDBRANCH  27  28
ENDBRANCH   3  27
TORSDOF 6
ENDMDL
MODEL 10
REMARK VINA RESULT:      -7.2      3.716      7.793
REMARK  Name = 
REMARK  6 active torsions:
REMARK  status: ('A' for Active; 'I' for Inactive)
REMARK    1  A    between atoms: O_2  and  C_3
REMARK    2  A    between atoms: C_6  and  C_7
REMARK    3  A    between atoms: C_12  and  N_13
REMARK    4  A    between atoms: C_14  and  C_16
REMARK    5  A    between atoms: N_18  and  C_19
REMARK    6  A    between atoms: C_19  and  C_20
REMARK                            x       y       z     vdW  Elec       q    Type
REMARK                         _______ _______ _______ _____ _____    ______ ____
ROOT
ATOM      1  C   UNL     1      37.825  -0.443  15.645  0.00  0.00    +0.000 A 
ATOM      2  N   UNL     1      38.814  -1.272  15.223  0.00  0.00    +0.000 NA
ATOM      3  N   UNL     1      39.258  -2.305  15.918  0.00  0.00    +0.000 N 
ATOM      4  C   UNL     1      38.705  -2.549  17.114  0.00  0.00    +0.000 A 
ATOM      5  O   UNL     1      39.118  -3.523  17.775  0.00  0.00    +0.000 OA
ATOM      6  C   UNL     1      37.694  -1.750  17.611  0.00  0.00    +0.000 A 
ATOM      7  C   UNL     1      37.084  -1.954  18.822  0.00  0.00    +0.000 A 
ATOM      8  C   UNL     1      36.066  -1.176  19.349  0.00  0.00    +0.000 A 
ATOM      9  C   UNL     1      35.644  -0.105  18.570  0.00  0.00    +0.000 A 
ATOM     10  C   UNL     1      36.227   0.144  17.348  0.00  0.00    +0.000 A 
ATOM     11  C   UNL     1      37.249  -0.681  16.865  0.00  0.00    +0.000 A 
ENDROOT
BRANCH   1  13
ATOM     12  N   UNL     1      37.854   1.965  14.814  0.00  0.00    +0.000 NA
ATOM     13  C   UNL     1      37.382   0.644  14.820  0.00  0.00    +0.000 C 
ATOM     14  O   UNL     1      36.440   0.395  13.975  0.00  0.00    +0.000 OA
BRANCH  12  20
ATOM     15  C   UNL     1      36.323   3.760  14.317  0.00  0.00    +0.000 A 
ATOM     16  C   UNL     1      35.836   4.766  13.471  0.00  0.00    +0.000 A 
ATOM     17  C   UNL     1      36.380   4.913  12.214  0.00  0.00    +0.000 A 
ATOM     18  C   UNL     1      37.397   4.091  11.772  0.00  0.00    +0.000 A 
ATOM     19  C   UNL     1      37.867   3.104  12.624  0.00  0.00    +0.000 A 
ATOM     20  C   UNL     1      37.331   2.939  13.893  0.00  0.00    +0.000 A 
BRANCH  18  21
ATOM     21  C   UNL     1      37.956   4.281  10.404  0.00  0.00    +0.000 C 
ATOM     22  C   UNL     1      39.222   3.530  10.165  0.00  0.00    +0.000 C 
ATOM     23  C   UNL     1      36.910   3.919   9.381  0.00  0.00    +0.000 C 
ATOM     24  C   UNL     1      38.203   5.794  10.205  0.00  0.00    +0.000 C 
ENDBRANCH  18  21
BRANCH  15  26
ATOM     25  C   UNL     1      34.466   3.023  15.691  0.00  0.00    +0.000 C 
ATOM     26  O   UNL     1      35.776   3.599  15.573  0.00  0.00    +0.000 OA
ENDBRANCH  15  26
ENDBRANCH  12  20
ENDBRANCH   1  13
BRANCH   3  27
ATOM     27  C   UNL     1      40.289  -3.165  15.396  0.00  0.00    +0.000 C 
BRANCH  27  28
ATOM     28  C   UNL     1      41.036  -2.580  14.262  0.00  0.00    +0.000 A 
ATOM     29  C   UNL     1      40.793  -2.917  12.971  0.00  0.00    +0.000 A 
ATOM     30  C   UNL     1      41.461  -2.399  11.858  0.00  0.00    +0.000 A 
ATOM     31  C   UNL     1      42.433  -1.474  12.145  0.00  0.00    +0.000 A 
ATOM     32  C   UNL     1      42.726  -1.101  13.396  0.00  0.00    +0.000 A 
ATOM     33  C   UNL     1      42.051  -1.626  14.520  0.00  0.00    +0.000 A 
ENDBRANCH  27  28
ENDBRANCH   3  27
TORSDOF 6
ENDMDL
