MODEL 1
REMARK VINA RESULT:      -6.3      0.000      0.000
REMARK  Name = 
REMARK  3 active torsions:
REMARK  status: ('A' for Active; 'I' for Inactive)
REMARK    1  A    between atoms: C_2  and  C_3
REMARK    2  A    between atoms: C_3  and  N_4
REMARK    3  A    between atoms: C_7  and  C_8
REMARK                            x       y       z     vdW  Elec       q    Type
REMARK                         _______ _______ _______ _____ _____    ______ ____
ROOT
ATOM      1  C   UNL     1      28.777  24.753  21.976  0.00  0.00    +0.000 A 
ATOM      2  C   UNL     1      27.656  23.948  21.993  0.00  0.00    +0.000 A 
ATOM      3  N   UNL     1      27.778  23.018  22.959  0.00  0.00    +0.000 NA
ATOM      4  C   UNL     1      28.951  23.191  23.581  0.00  0.00    +0.000 A 
ATOM      5  C   UNL     1      29.567  22.521  24.631  0.00  0.00    +0.000 A 
ATOM      6  C   UNL     1      30.791  22.930  25.062  0.00  0.00    +0.000 A 
ATOM      7  C   UNL     1      31.447  24.004  24.478  0.00  0.00    +0.000 A 
ATOM      8  C   UNL     1      32.792  24.404  24.998  0.00  0.00    +0.000 C 
ATOM      9  C   UNL     1      30.824  24.649  23.447  0.00  0.00    +0.000 A 
ATOM     10  C   UNL     1      29.578  24.262  22.980  0.00  0.00    +0.000 A 
ENDROOT
BRANCH   1  14
ATOM     11  N   UNL     1      30.821  26.926  18.045  0.00  0.00    +0.000 NA
ATOM     12  C   UNL     1      30.035  26.841  19.260  0.00  0.00    +0.000 A 
ATOM     13  N   UNL     1      29.808  25.789  20.017  0.00  0.00    +0.000 NA
ATOM     14  C   UNL     1      29.071  25.902  21.079  0.00  0.00    +0.000 A 
ATOM     15  C   UNL     1      28.561  27.149  21.354  0.00  0.00    +0.000 A 
ATOM     16  S   UNL     1      29.176  28.078  20.060  0.00  0.00    +0.000 S 
BRANCH  11  17
ATOM     17  C   UNL     1      30.888  28.233  17.426  0.00  0.00    +0.000 C 
BRANCH  17  19
ATOM     18  C   UNL     1      29.501  27.572  15.524  0.00  0.00    +0.000 C 
ATOM     19  C   UNL     1      30.645  28.072  15.973  0.00  0.00    +0.000 C 
ENDBRANCH  17  19
ENDBRANCH  11  17
ENDBRANCH   1  14
TORSDOF 3
ENDMDL
MODEL 2
REMARK VINA RESULT:      -5.9     24.573     28.192
REMARK  Name = 
REMARK  3 active torsions:
REMARK  status: ('A' for Active; 'I' for Inactive)
REMARK    1  A    between atoms: C_2  and  C_3
REMARK    2  A    between atoms: C_3  and  N_4
REMARK    3  A    between atoms: C_7  and  C_8
REMARK                            x       y       z     vdW  Elec       q    Type
REMARK                         _______ _______ _______ _____ _____    ______ ____
ROOT
ATOM      1  C   UNL     1      16.820  11.003  37.896  0.00  0.00    +0.000 A 
ATOM      2  C   UNL     1      17.730  11.734  37.159  0.00  0.00    +0.000 A 
ATOM      3  N   UNL     1      17.077  12.552  36.312  0.00  0.00    +0.000 NA
ATOM      4  C   UNL     1      15.758  12.378  36.473  0.00  0.00    +0.000 A 
ATOM      5  C   UNL     1      14.652  12.959  35.864  0.00  0.00    +0.000 A 
ATOM      6  C   UNL     1      13.402  12.576  36.240  0.00  0.00    +0.000 A 
ATOM      7  C   UNL     1      13.198  11.616  37.221  0.00  0.00    +0.000 A 
ATOM      8  C   UNL     1      11.798  11.239  37.589  0.00  0.00    +0.000 C 
ATOM      9  C   UNL     1      14.299  11.058  37.807  0.00  0.00    +0.000 A 
ATOM     10  C   UNL     1      15.588  11.421  37.451  0.00  0.00    +0.000 A 
ENDROOT
BRANCH   1  14
ATOM     11  N   UNL     1      15.878   8.543  42.070  0.00  0.00    +0.000 NA
ATOM     12  C   UNL     1      16.606   8.892  40.866  0.00  0.00    +0.000 A 
ATOM     13  N   UNL     1      16.315   9.810  39.969  0.00  0.00    +0.000 NA
ATOM     14  C   UNL     1      17.092   9.983  38.944  0.00  0.00    +0.000 A 
ATOM     15  C   UNL     1      18.200   9.174  38.858  0.00  0.00    +0.000 A 
ATOM     16  S   UNL     1      18.050   8.214  40.262  0.00  0.00    +0.000 S 
BRANCH  11  17
ATOM     17  C   UNL     1      16.450   7.478  42.867  0.00  0.00    +0.000 C 
BRANCH  17  19
ATOM     18  C   UNL     1      15.086   6.520  44.656  0.00  0.00    +0.000 C 
ATOM     19  C   UNL     1      15.831   7.524  44.213  0.00  0.00    +0.000 C 
ENDBRANCH  17  19
ENDBRANCH  11  17
ENDBRANCH   1  14
TORSDOF 3
ENDMDL
MODEL 3
REMARK VINA RESULT:      -5.7     24.899     27.997
REMARK  Name = 
REMARK  3 active torsions:
REMARK  status: ('A' for Active; 'I' for Inactive)
REMARK    1  A    between atoms: C_2  and  C_3
REMARK    2  A    between atoms: C_3  and  N_4
REMARK    3  A    between atoms: C_7  and  C_8
REMARK                            x       y       z     vdW  Elec       q    Type
REMARK                         _______ _______ _______ _____ _____    ______ ____
ROOT
ATOM      1  C   UNL     1      17.377  10.431  38.454  0.00  0.00    +0.000 A 
ATOM      2  C   UNL     1      18.364  11.125  37.783  0.00  0.00    +0.000 A 
ATOM      3  N   UNL     1      17.804  12.016  36.945  0.00  0.00    +0.000 NA
ATOM      4  C   UNL     1      16.471  11.929  37.047  0.00  0.00    +0.000 A 
ATOM      5  C   UNL     1      15.433  12.606  36.419  0.00  0.00    +0.000 A 
ATOM      6  C   UNL     1      14.145  12.297  36.730  0.00  0.00    +0.000 A 
ATOM      7  C   UNL     1      13.837  11.318  37.663  0.00  0.00    +0.000 A 
ATOM      8  C   UNL     1      12.400  11.025  37.961  0.00  0.00    +0.000 C 
ATOM      9  C   UNL     1      14.871  10.664  38.269  0.00  0.00    +0.000 A 
ATOM     10  C   UNL     1      16.196  10.950  37.979  0.00  0.00    +0.000 A 
ENDROOT
BRANCH   1  14
ATOM     11  N   UNL     1      18.974   6.064  40.109  0.00  0.00    +0.000 NA
ATOM     12  C   UNL     1      18.296   7.345  40.170  0.00  0.00    +0.000 A 
ATOM     13  N   UNL     1      18.188   8.261  39.233  0.00  0.00    +0.000 NA
ATOM     14  C   UNL     1      17.536   9.357  39.471  0.00  0.00    +0.000 A 
ATOM     15  C   UNL     1      16.984   9.496  40.722  0.00  0.00    +0.000 A 
ATOM     16  S   UNL     1      17.443   8.034  41.476  0.00  0.00    +0.000 S 
BRANCH  11  17
ATOM     17  C   UNL     1      18.921   5.263  41.313  0.00  0.00    +0.000 C 
BRANCH  17  19
ATOM     18  C   UNL     1      19.733   3.047  40.674  0.00  0.00    +0.000 C 
ATOM     19  C   UNL     1      19.978   4.227  41.228  0.00  0.00    +0.000 C 
ENDBRANCH  17  19
ENDBRANCH  11  17
ENDBRANCH   1  14
TORSDOF 3
ENDMDL
MODEL 4
REMARK VINA RESULT:      -5.7     34.038     37.311
REMARK  Name = 
REMARK  3 active torsions:
REMARK  status: ('A' for Active; 'I' for Inactive)
REMARK    1  A    between atoms: C_2  and  C_3
REMARK    2  A    between atoms: C_3  and  N_4
REMARK    3  A    between atoms: C_7  and  C_8
REMARK                            x       y       z     vdW  Elec       q    Type
REMARK                         _______ _______ _______ _____ _____    ______ ____
ROOT
ATOM      1  C   UNL     1      18.066  -7.805  27.300  0.00  0.00    +0.000 A 
ATOM      2  C   UNL     1      17.484  -6.561  27.161  0.00  0.00    +0.000 A 
ATOM      3  N   UNL     1      18.295  -5.757  26.449  0.00  0.00    +0.000 NA
ATOM      4  C   UNL     1      19.398  -6.439  26.114  0.00  0.00    +0.000 A 
ATOM      5  C   UNL     1      20.536  -6.095  25.395  0.00  0.00    +0.000 A 
ATOM      6  C   UNL     1      21.518  -7.019  25.209  0.00  0.00    +0.000 A 
ATOM      7  C   UNL     1      21.415  -8.303  25.722  0.00  0.00    +0.000 A 
ATOM      8  C   UNL     1      22.529  -9.272  25.484  0.00  0.00    +0.000 C 
ATOM      9  C   UNL     1      20.288  -8.622  26.426  0.00  0.00    +0.000 A 
ATOM     10  C   UNL     1      19.267  -7.709  26.637  0.00  0.00    +0.000 A 
ENDROOT
BRANCH   1  14
ATOM     11  N   UNL     1      17.408 -10.744  31.210  0.00  0.00    +0.000 NA
ATOM     12  C   UNL     1      17.265 -10.305  29.835  0.00  0.00    +0.000 A 
ATOM     13  N   UNL     1      17.766  -9.232  29.262  0.00  0.00    +0.000 NA
ATOM     14  C   UNL     1      17.530  -8.998  28.007  0.00  0.00    +0.000 A 
ATOM     15  C   UNL     1      16.748  -9.911  27.339  0.00  0.00    +0.000 A 
ATOM     16  S   UNL     1      16.405 -11.049  28.565  0.00  0.00    +0.000 S 
BRANCH  11  17
ATOM     17  C   UNL     1      16.733 -11.979  31.551  0.00  0.00    +0.000 C 
BRANCH  17  19
ATOM     18  C   UNL     1      15.388 -10.523  32.984  0.00  0.00    +0.000 C 
ATOM     19  C   UNL     1      15.484 -11.639  32.274  0.00  0.00    +0.000 C 
ENDBRANCH  17  19
ENDBRANCH  11  17
ENDBRANCH   1  14
TORSDOF 3
ENDMDL
MODEL 5
REMARK VINA RESULT:      -5.6     28.745     31.828
REMARK  Name = 
REMARK  3 active torsions:
REMARK  status: ('A' for Active; 'I' for Inactive)
REMARK    1  A    between atoms: C_2  and  C_3
REMARK    2  A    between atoms: C_3  and  N_4
REMARK    3  A    between atoms: C_7  and  C_8
REMARK                            x       y       z     vdW  Elec       q    Type
REMARK                         _______ _______ _______ _____ _____    ______ ____
ROOT
ATOM      1  C   UNL     1      33.552  -3.579  34.731  0.00  0.00    +0.000 A 
ATOM      2  C   UNL     1      33.309  -3.791  36.073  0.00  0.00    +0.000 A 
ATOM      3  N   UNL     1      33.231  -2.610  36.713  0.00  0.00    +0.000 NA
ATOM      4  C   UNL     1      33.417  -1.623  35.827  0.00  0.00    +0.000 A 
ATOM      5  C   UNL     1      33.436  -0.239  35.950  0.00  0.00    +0.000 A 
ATOM      6  C   UNL     1      33.653   0.530  34.848  0.00  0.00    +0.000 A 
ATOM      7  C   UNL     1      33.858  -0.033  33.597  0.00  0.00    +0.000 A 
ATOM      8  C   UNL     1      34.092   0.866  32.424  0.00  0.00    +0.000 C 
ATOM      9  C   UNL     1      33.835  -1.396  33.497  0.00  0.00    +0.000 A 
ATOM     10  C   UNL     1      33.617  -2.212  34.596  0.00  0.00    +0.000 A 
ENDROOT
BRANCH   1  14
ATOM     11  N   UNL     1      32.201  -5.980  30.636  0.00  0.00    +0.000 NA
ATOM     12  C   UNL     1      33.039  -5.655  31.774  0.00  0.00    +0.000 A 
ATOM     13  N   UNL     1      32.845  -4.742  32.701  0.00  0.00    +0.000 NA
ATOM     14  C   UNL     1      33.713  -4.591  33.653  0.00  0.00    +0.000 A 
ATOM     15  C   UNL     1      34.812  -5.418  33.632  0.00  0.00    +0.000 A 
ATOM     16  S   UNL     1      34.521  -6.360  32.239  0.00  0.00    +0.000 S 
BRANCH  11  17
ATOM     17  C   UNL     1      32.682  -7.045  29.781  0.00  0.00    +0.000 C 
BRANCH  17  19
ATOM     18  C   UNL     1      34.465  -6.833  28.121  0.00  0.00    +0.000 C 
ATOM     19  C   UNL     1      33.284  -6.432  28.573  0.00  0.00    +0.000 C 
ENDBRANCH  17  19
ENDBRANCH  11  17
ENDBRANCH   1  14
TORSDOF 3
ENDMDL
MODEL 6
REMARK VINA RESULT:      -5.5     23.425     26.938
REMARK  Name = 
REMARK  3 active torsions:
REMARK  status: ('A' for Active; 'I' for Inactive)
REMARK    1  A    between atoms: C_2  and  C_3
REMARK    2  A    between atoms: C_3  and  N_4
REMARK    3  A    between atoms: C_7  and  C_8
REMARK                            x       y       z     vdW  Elec       q    Type
REMARK                         _______ _______ _______ _____ _____    ______ ____
ROOT
ATOM      1  C   UNL     1      17.957   8.796  39.721  0.00  0.00    +0.000 A 
ATOM      2  C   UNL     1      16.995   9.548  40.365  0.00  0.00    +0.000 A 
ATOM      3  N   UNL     1      16.455   8.832  41.369  0.00  0.00    +0.000 NA
ATOM      4  C   UNL     1      17.037   7.626  41.404  0.00  0.00    +0.000 A 
ATOM      5  C   UNL     1      16.861   6.520  42.225  0.00  0.00    +0.000 A 
ATOM      6  C   UNL     1      17.614   5.405  42.019  0.00  0.00    +0.000 A 
ATOM      7  C   UNL     1      18.558   5.342  41.006  0.00  0.00    +0.000 A 
ATOM      8  C   UNL     1      19.354   4.086  40.831  0.00  0.00    +0.000 C 
ATOM      9  C   UNL     1      18.717   6.440  40.209  0.00  0.00    +0.000 A 
ATOM     10  C   UNL     1      17.969   7.594  40.387  0.00  0.00    +0.000 A 
ENDROOT
BRANCH   1  14
ATOM     11  N   UNL     1      22.209   9.954  37.499  0.00  0.00    +0.000 NA
ATOM     12  C   UNL     1      20.784   9.707  37.600  0.00  0.00    +0.000 A 
ATOM     13  N   UNL     1      20.085   9.364  38.661  0.00  0.00    +0.000 NA
ATOM     14  C   UNL     1      18.804   9.184  38.562  0.00  0.00    +0.000 A 
ATOM     15  C   UNL     1      18.243   9.367  37.320  0.00  0.00    +0.000 A 
ATOM     16  S   UNL     1      19.601   9.788  36.375  0.00  0.00    +0.000 S 
BRANCH  11  17
ATOM     17  C   UNL     1      22.695  10.318  36.185  0.00  0.00    +0.000 C 
BRANCH  17  19
ATOM     18  C   UNL     1      24.538  11.653  37.080  0.00  0.00    +0.000 C 
ATOM     19  C   UNL     1      24.133  10.659  36.300  0.00  0.00    +0.000 C 
ENDBRANCH  17  19
ENDBRANCH  11  17
ENDBRANCH   1  14
TORSDOF 3
ENDMDL
MODEL 7
REMARK VINA RESULT:      -5.4      4.420      5.966
REMARK  Name = 
REMARK  3 active torsions:
REMARK  status: ('A' for Active; 'I' for Inactive)
REMARK    1  A    between atoms: C_2  and  C_3
REMARK    2  A    between atoms: C_3  and  N_4
REMARK    3  A    between atoms: C_7  and  C_8
REMARK                            x       y       z     vdW  Elec       q    Type
REMARK                         _______ _______ _______ _____ _____    ______ ____
ROOT
ATOM      1  C   UNL     1      27.483  23.102  26.680  0.00  0.00    +0.000 A 
ATOM      2  C   UNL     1      28.149  22.091  27.342  0.00  0.00    +0.000 A 
ATOM      3  N   UNL     1      27.842  22.125  28.652  0.00  0.00    +0.000 NA
ATOM      4  C   UNL     1      26.989  23.134  28.871  0.00  0.00    +0.000 A 
ATOM      5  C   UNL     1      26.365  23.607  30.019  0.00  0.00    +0.000 A 
ATOM      6  C   UNL     1      25.528  24.677  29.937  0.00  0.00    +0.000 A 
ATOM      7  C   UNL     1      25.278  25.313  28.730  0.00  0.00    +0.000 A 
ATOM      8  C   UNL     1      24.348  26.484  28.705  0.00  0.00    +0.000 C 
ATOM      9  C   UNL     1      25.901  24.833  27.612  0.00  0.00    +0.000 A 
ATOM     10  C   UNL     1      26.760  23.746  27.657  0.00  0.00    +0.000 A 
ENDROOT
BRANCH   1  14
ATOM     11  N   UNL     1      29.588  24.840  22.569  0.00  0.00    +0.000 NA
ATOM     12  C   UNL     1      28.543  24.248  23.382  0.00  0.00    +0.000 A 
ATOM     13  N   UNL     1      28.564  23.973  24.668  0.00  0.00    +0.000 NA
ATOM     14  C   UNL     1      27.525  23.438  25.232  0.00  0.00    +0.000 A 
ATOM     15  C   UNL     1      26.439  23.185  24.427  0.00  0.00    +0.000 A 
ATOM     16  S   UNL     1      26.988  23.737  22.907  0.00  0.00    +0.000 S 
BRANCH  11  17
ATOM     17  C   UNL     1      29.271  25.023  21.168  0.00  0.00    +0.000 C 
BRANCH  17  19
ATOM     18  C   UNL     1      29.816  26.877  19.669  0.00  0.00    +0.000 C 
ATOM     19  C   UNL     1      29.378  26.467  20.853  0.00  0.00    +0.000 C 
ENDBRANCH  17  19
ENDBRANCH  11  17
ENDBRANCH   1  14
TORSDOF 3
ENDMDL
MODEL 8
REMARK VINA RESULT:      -5.4     32.644     34.720
REMARK  Name = 
REMARK  3 active torsions:
REMARK  status: ('A' for Active; 'I' for Inactive)
REMARK    1  A    between atoms: C_2  and  C_3
REMARK    2  A    between atoms: C_3  and  N_4
REMARK    3  A    between atoms: C_7  and  C_8
REMARK                            x       y       z     vdW  Elec       q    Type
REMARK                         _______ _______ _______ _____ _____    ______ ____
ROOT
ATOM      1  C   UNL     1      20.472  -8.905  25.174  0.00  0.00    +0.000 A 
ATOM      2  C   UNL     1      19.968 -10.131  25.560  0.00  0.00    +0.000 A 
ATOM      3  N   UNL     1      18.925  -9.953  26.391  0.00  0.00    +0.000 NA
ATOM      4  C   UNL     1      18.727  -8.640  26.564  0.00  0.00    +0.000 A 
ATOM      5  C   UNL     1      17.802  -7.917  27.308  0.00  0.00    +0.000 A 
ATOM      6  C   UNL     1      17.843  -6.557  27.292  0.00  0.00    +0.000 A 
ATOM      7  C   UNL     1      18.790  -5.867  26.548  0.00  0.00    +0.000 A 
ATOM      8  C   UNL     1      18.782  -4.371  26.573  0.00  0.00    +0.000 C 
ATOM      9  C   UNL     1      19.690  -6.596  25.824  0.00  0.00    +0.000 A 
ATOM     10  C   UNL     1      19.680  -7.982  25.815  0.00  0.00    +0.000 A 
ENDROOT
BRANCH   1  14
ATOM     11  N   UNL     1      24.935  -7.121  24.056  0.00  0.00    +0.000 NA
ATOM     12  C   UNL     1      23.669  -7.785  23.817  0.00  0.00    +0.000 A 
ATOM     13  N   UNL     1      22.687  -8.007  24.664  0.00  0.00    +0.000 NA
ATOM     14  C   UNL     1      21.617  -8.624  24.268  0.00  0.00    +0.000 A 
ATOM     15  C   UNL     1      21.576  -9.020  22.952  0.00  0.00    +0.000 A 
ATOM     16  S   UNL     1      23.086  -8.474  22.370  0.00  0.00    +0.000 S 
BRANCH  11  17
ATOM     17  C   UNL     1      25.824  -7.027  22.917  0.00  0.00    +0.000 C 
BRANCH  17  19
ATOM     18  C   UNL     1      27.780  -8.256  22.113  0.00  0.00    +0.000 C 
ATOM     19  C   UNL     1      26.792  -8.148  22.992  0.00  0.00    +0.000 C 
ENDBRANCH  17  19
ENDBRANCH  11  17
ENDBRANCH   1  14
TORSDOF 3
ENDMDL
MODEL 9
REMARK VINA RESULT:      -5.4     32.826     35.256
REMARK  Name = 
REMARK  3 active torsions:
REMARK  status: ('A' for Active; 'I' for Inactive)
REMARK    1  A    between atoms: C_2  and  C_3
REMARK    2  A    between atoms: C_3  and  N_4
REMARK    3  A    between atoms: C_7  and  C_8
REMARK                            x       y       z     vdW  Elec       q    Type
REMARK                         _______ _______ _______ _____ _____    ______ ____
ROOT
ATOM      1  C   UNL     1      20.295  -6.530  25.689  0.00  0.00    +0.000 A 
ATOM      2  C   UNL     1      19.855  -5.228  25.817  0.00  0.00    +0.000 A 
ATOM      3  N   UNL     1      18.630  -5.215  26.374  0.00  0.00    +0.000 NA
ATOM      4  C   UNL     1      18.251  -6.476  26.617  0.00  0.00    +0.000 A 
ATOM      5  C   UNL     1      17.100  -7.022  27.172  0.00  0.00    +0.000 A 
ATOM      6  C   UNL     1      16.991  -8.373  27.298  0.00  0.00    +0.000 A 
ATOM      7  C   UNL     1      18.003  -9.226  26.884  0.00  0.00    +0.000 A 
ATOM      8  C   UNL     1      17.823 -10.702  27.050  0.00  0.00    +0.000 C 
ATOM      9  C   UNL     1      19.127  -8.669  26.342  0.00  0.00    +0.000 A 
ATOM     10  C   UNL     1      19.275  -7.299  26.197  0.00  0.00    +0.000 A 
ENDROOT
BRANCH   1  14
ATOM     11  N   UNL     1      23.957  -9.789  25.109  0.00  0.00    +0.000 NA
ATOM     12  C   UNL     1      23.233  -8.549  24.905  0.00  0.00    +0.000 A 
ATOM     13  N   UNL     1      22.087  -8.173  25.431  0.00  0.00    +0.000 NA
ATOM     14  C   UNL     1      21.585  -7.015  25.129  0.00  0.00    +0.000 A 
ATOM     15  C   UNL     1      22.302  -6.234  24.254  0.00  0.00    +0.000 A 
ATOM     16  S   UNL     1      23.655  -7.221  23.922  0.00  0.00    +0.000 S 
BRANCH  11  17
ATOM     17  C   UNL     1      25.204  -9.918  24.385  0.00  0.00    +0.000 C 
BRANCH  17  19
ATOM     18  C   UNL     1      25.792 -11.184  26.392  0.00  0.00    +0.000 C 
ATOM     19  C   UNL     1      26.179 -10.609  25.261  0.00  0.00    +0.000 C 
ENDBRANCH  17  19
ENDBRANCH  11  17
ENDBRANCH   1  14
TORSDOF 3
ENDMDL
MODEL 10
REMARK VINA RESULT:      -5.3     35.075     37.861
REMARK  Name = 
REMARK  3 active torsions:
REMARK  status: ('A' for Active; 'I' for Inactive)
REMARK    1  A    between atoms: C_2  and  C_3
REMARK    2  A    between atoms: C_3  and  N_4
REMARK    3  A    between atoms: C_7  and  C_8
REMARK                            x       y       z     vdW  Elec       q    Type
REMARK                         _______ _______ _______ _____ _____    ______ ____
ROOT
ATOM      1  C   UNL     1      13.321  -8.752  24.233  0.00  0.00    +0.000 A 
ATOM      2  C   UNL     1      12.828  -8.510  22.966  0.00  0.00    +0.000 A 
ATOM      3  N   UNL     1      11.488  -8.640  22.968  0.00  0.00    +0.000 NA
ATOM      4  C   UNL     1      11.085  -8.962  24.204  0.00  0.00    +0.000 A 
ATOM      5  C   UNL     1       9.831  -9.208  24.750  0.00  0.00    +0.000 A 
ATOM      6  C   UNL     1       9.724  -9.520  26.070  0.00  0.00    +0.000 A 
ATOM      7  C   UNL     1      10.839  -9.601  26.892  0.00  0.00    +0.000 A 
ATOM      8  C   UNL     1      10.655  -9.949  28.335  0.00  0.00    +0.000 C 
ATOM      9  C   UNL     1      12.063  -9.355  26.335  0.00  0.00    +0.000 A 
ATOM     10  C   UNL     1      12.212  -9.034  24.995  0.00  0.00    +0.000 A 
ENDROOT
BRANCH   1  14
ATOM     11  N   UNL     1      17.152  -6.909  26.740  0.00  0.00    +0.000 NA
ATOM     12  C   UNL     1      16.453  -7.828  25.863  0.00  0.00    +0.000 A 
ATOM     13  N   UNL     1      15.191  -7.805  25.491  0.00  0.00    +0.000 NA
ATOM     14  C   UNL     1      14.736  -8.721  24.691  0.00  0.00    +0.000 A 
ATOM     15  C   UNL     1      15.625  -9.682  24.273  0.00  0.00    +0.000 A 
ATOM     16  S   UNL     1      17.062  -9.204  25.061  0.00  0.00    +0.000 S 
BRANCH  11  17
ATOM     17  C   UNL     1      18.553  -7.195  26.966  0.00  0.00    +0.000 C 
BRANCH  17  19
ATOM     18  C   UNL     1      19.203  -4.957  26.225  0.00  0.00    +0.000 C 
ATOM     19  C   UNL     1      19.355  -6.271  26.129  0.00  0.00    +0.000 C 
ENDBRANCH  17  19
ENDBRANCH  11  17
ENDBRANCH   1  14
TORSDOF 3
ENDMDL
