MODEL 1
REMARK VINA RESULT:      -7.5      0.000      0.000
REMARK  Name = 
REMARK  8 active torsions:
REMARK  status: ('A' for Active; 'I' for Inactive)
REMARK    1  A    between atoms: C_2  and  O_3
REMARK    2  A    between atoms: O_3  and  C_4
REMARK    3  A    between atoms: C_4  and  C_6
REMARK    4  A    between atoms: C_9  and  N_10
REMARK    5  A    between atoms: N_10  and  C_11
REMARK    6  A    between atoms: C_11  and  C_12
REMARK    7  A    between atoms: C_11  and  C_20
REMARK    8  A    between atoms: C_17  and  O_18
REMARK                            x       y       z     vdW  Elec       q    Type
REMARK                         _______ _______ _______ _____ _____    ______ ____
ROOT
ATOM      1  C   UNL     1      38.442  -1.746  16.811  0.00  0.00    +0.000 C 
ENDROOT
BRANCH   1   2
ATOM      2  C   UNL     1      37.225  -0.815  17.289  0.00  0.00    +0.000 A 
ATOM      3  C   UNL     1      36.652  -0.795  18.483  0.00  0.00    +0.000 A 
ATOM      4  C   UNL     1      37.050  -1.655  19.646  0.00  0.00    +0.000 C 
ATOM      5  N   UNL     1      35.671   0.122  18.439  0.00  0.00    +0.000 NA
ATOM      6  C   UNL     1      35.635   0.681  17.201  0.00  0.00    +0.000 A 
ATOM      7  C   UNL     1      34.823   1.660  16.640  0.00  0.00    +0.000 A 
ATOM      8  C   UNL     1      35.059   1.995  15.327  0.00  0.00    +0.000 A 
ATOM      9  C   UNL     1      36.041   1.418  14.560  0.00  0.00    +0.000 A 
ATOM     10  C   UNL     1      36.845   0.450  15.114  0.00  0.00    +0.000 A 
ATOM     11  C   UNL     1      36.628   0.086  16.458  0.00  0.00    +0.000 A 
ENDBRANCH   1   2
BRANCH   1  12
ATOM     12  C   UNL     1      37.578  -3.031  16.493  0.00  0.00    +0.000 A 
ATOM     13  C   UNL     1      36.505  -2.978  15.687  0.00  0.00    +0.000 A 
ATOM     14  C   UNL     1      35.743  -4.105  15.426  0.00  0.00    +0.000 A 
ATOM     15  C   UNL     1      36.089  -5.297  15.998  0.00  0.00    +0.000 A 
ATOM     16  C   UNL     1      37.187  -5.344  16.821  0.00  0.00    +0.000 A 
ATOM     17  C   UNL     1      37.950  -4.210  17.083  0.00  0.00    +0.000 A 
BRANCH  17  18
ATOM     18  O   UNL     1      39.041  -4.337  17.920  0.00  0.00    +0.000 OA
ATOM     19  C   UNL     1      38.913  -4.829  19.241  0.00  0.00    +0.000 C 
ENDBRANCH  17  18
ENDBRANCH   1  12
BRANCH   1  20
ATOM     20  N   UNL     1      38.547  -1.189  15.363  0.00  0.00    +0.000 NA
BRANCH  20  24
ATOM     21  C   UNL     1      42.396  -1.132  13.728  0.00  0.00    +0.000 A 
ATOM     22  C   UNL     1      41.772  -2.296  14.116  0.00  0.00    +0.000 A 
ATOM     23  C   UNL     1      40.520  -2.257  14.647  0.00  0.00    +0.000 A 
ATOM     24  C   UNL     1      39.842  -1.067  14.811  0.00  0.00    +0.000 A 
ATOM     25  C   UNL     1      40.466   0.075  14.423  0.00  0.00    +0.000 A 
ATOM     26  C   UNL     1      41.735   0.046  13.885  0.00  0.00    +0.000 A 
BRANCH  21  27
ATOM     27  C   UNL     1      43.746  -1.216  13.159  0.00  0.00    +0.000 C 
ATOM     28  O   UNL     1      43.978  -1.824  12.094  0.00  0.00    +0.000 OA
BRANCH  27  29
ATOM     29  O   UNL     1      44.823  -0.615  13.795  0.00  0.00    +0.000 OA
BRANCH  29  31
ATOM     30  C   UNL     1      45.135  -0.273  16.122  0.00  0.00    +0.000 C 
ATOM     31  C   UNL     1      45.366  -1.173  14.956  0.00  0.00    +0.000 C 
ENDBRANCH  29  31
ENDBRANCH  27  29
ENDBRANCH  21  27
ENDBRANCH  20  24
ENDBRANCH   1  20
TORSDOF 8
ENDMDL
MODEL 2
REMARK VINA RESULT:      -7.5      1.805      2.633
REMARK  Name = 
REMARK  8 active torsions:
REMARK  status: ('A' for Active; 'I' for Inactive)
REMARK    1  A    between atoms: C_2  and  O_3
REMARK    2  A    between atoms: O_3  and  C_4
REMARK    3  A    between atoms: C_4  and  C_6
REMARK    4  A    between atoms: C_9  and  N_10
REMARK    5  A    between atoms: N_10  and  C_11
REMARK    6  A    between atoms: C_11  and  C_12
REMARK    7  A    between atoms: C_11  and  C_20
REMARK    8  A    between atoms: C_17  and  O_18
REMARK                            x       y       z     vdW  Elec       q    Type
REMARK                         _______ _______ _______ _____ _____    ______ ____
ROOT
ATOM      1  C   UNL     1      38.420  -1.875  16.666  0.00  0.00    +0.000 C 
ENDROOT
BRANCH   1   2
ATOM      2  C   UNL     1      37.236  -0.927  17.193  0.00  0.00    +0.000 A 
ATOM      3  C   UNL     1      36.697  -0.915  18.403  0.00  0.00    +0.000 A 
ATOM      4  C   UNL     1      37.110  -1.801  19.541  0.00  0.00    +0.000 C 
ATOM      5  N   UNL     1      35.735   0.023  18.401  0.00  0.00    +0.000 NA
ATOM      6  C   UNL     1      35.676   0.603  17.173  0.00  0.00    +0.000 A 
ATOM      7  C   UNL     1      34.869   1.606  16.650  0.00  0.00    +0.000 A 
ATOM      8  C   UNL     1      35.075   1.958  15.337  0.00  0.00    +0.000 A 
ATOM      9  C   UNL     1      36.024   1.374  14.534  0.00  0.00    +0.000 A 
ATOM     10  C   UNL     1      36.823   0.381  15.050  0.00  0.00    +0.000 A 
ATOM     11  C   UNL     1      36.635  -0.000  16.393  0.00  0.00    +0.000 A 
ENDBRANCH   1   2
BRANCH   1  12
ATOM     12  C   UNL     1      37.535  -3.163  16.432  0.00  0.00    +0.000 A 
ATOM     13  C   UNL     1      36.442  -3.135  15.652  0.00  0.00    +0.000 A 
ATOM     14  C   UNL     1      35.663  -4.265  15.464  0.00  0.00    +0.000 A 
ATOM     15  C   UNL     1      36.011  -5.432  16.083  0.00  0.00    +0.000 A 
ATOM     16  C   UNL     1      37.129  -5.454  16.879  0.00  0.00    +0.000 A 
ATOM     17  C   UNL     1      37.911  -4.317  17.067  0.00  0.00    +0.000 A 
BRANCH  17  18
ATOM     18  O   UNL     1      39.022  -4.417  17.881  0.00  0.00    +0.000 OA
ATOM     19  C   UNL     1      38.954  -5.009  19.164  0.00  0.00    +0.000 C 
ENDBRANCH  17  18
ENDBRANCH   1  12
BRANCH   1  20
ATOM     20  N   UNL     1      38.440  -1.353  15.202  0.00  0.00    +0.000 NA
BRANCH  20  24
ATOM     21  C   UNL     1      41.228  -2.828  12.454  0.00  0.00    +0.000 A 
ATOM     22  C   UNL     1      39.922  -2.556  12.112  0.00  0.00    +0.000 A 
ATOM     23  C   UNL     1      39.055  -2.081  13.048  0.00  0.00    +0.000 A 
ATOM     24  C   UNL     1      39.449  -1.859  14.351  0.00  0.00    +0.000 A 
ATOM     25  C   UNL     1      40.740  -2.129  14.676  0.00  0.00    +0.000 A 
ATOM     26  C   UNL     1      41.626  -2.611  13.736  0.00  0.00    +0.000 A 
BRANCH  21  27
ATOM     27  C   UNL     1      42.132  -3.338  11.417  0.00  0.00    +0.000 C 
ATOM     28  O   UNL     1      43.289  -2.893  11.272  0.00  0.00    +0.000 OA
BRANCH  27  29
ATOM     29  O   UNL     1      41.725  -4.344  10.553  0.00  0.00    +0.000 OA
BRANCH  29  31
ATOM     30  C   UNL     1      40.956  -3.195   8.625  0.00  0.00    +0.000 C 
ATOM     31  C   UNL     1      41.900  -4.211   9.173  0.00  0.00    +0.000 C 
ENDBRANCH  29  31
ENDBRANCH  27  29
ENDBRANCH  21  27
ENDBRANCH  20  24
ENDBRANCH   1  20
TORSDOF 8
ENDMDL
MODEL 3
REMARK VINA RESULT:      -7.1      3.147      7.173
REMARK  Name = 
REMARK  8 active torsions:
REMARK  status: ('A' for Active; 'I' for Inactive)
REMARK    1  A    between atoms: C_2  and  O_3
REMARK    2  A    between atoms: O_3  and  C_4
REMARK    3  A    between atoms: C_4  and  C_6
REMARK    4  A    between atoms: C_9  and  N_10
REMARK    5  A    between atoms: N_10  and  C_11
REMARK    6  A    between atoms: C_11  and  C_12
REMARK    7  A    between atoms: C_11  and  C_20
REMARK    8  A    between atoms: C_17  and  O_18
REMARK                            x       y       z     vdW  Elec       q    Type
REMARK                         _______ _______ _______ _____ _____    ______ ____
ROOT
ATOM      1  C   UNL     1      36.257  -1.779  15.131  0.00  0.00    +0.000 C 
ENDROOT
BRANCH   1   2
ATOM      2  C   UNL     1      36.307  -0.507  16.111  0.00  0.00    +0.000 A 
ATOM      3  C   UNL     1      36.451  -0.516  17.428  0.00  0.00    +0.000 A 
ATOM      4  C   UNL     1      36.607  -1.747  18.271  0.00  0.00    +0.000 C 
ATOM      5  N   UNL     1      36.426   0.762  17.839  0.00  0.00    +0.000 NA
ATOM      6  C   UNL     1      36.267   1.577  16.763  0.00  0.00    +0.000 A 
ATOM      7  C   UNL     1      36.176   2.959  16.641  0.00  0.00    +0.000 A 
ATOM      8  C   UNL     1      36.009   3.468  15.374  0.00  0.00    +0.000 A 
ATOM      9  C   UNL     1      35.928   2.688  14.246  0.00  0.00    +0.000 A 
ATOM     10  C   UNL     1      36.017   1.321  14.366  0.00  0.00    +0.000 A 
ATOM     11  C   UNL     1      36.190   0.771  15.651  0.00  0.00    +0.000 A 
ENDBRANCH   1   2
BRANCH   1  12
ATOM     12  C   UNL     1      37.820  -1.952  14.973  0.00  0.00    +0.000 A 
ATOM     13  C   UNL     1      38.570  -2.504  15.941  0.00  0.00    +0.000 A 
ATOM     14  C   UNL     1      39.942  -2.638  15.801  0.00  0.00    +0.000 A 
ATOM     15  C   UNL     1      40.547  -2.200  14.656  0.00  0.00    +0.000 A 
ATOM     16  C   UNL     1      39.774  -1.637  13.671  0.00  0.00    +0.000 A 
ATOM     17  C   UNL     1      38.396  -1.503  13.814  0.00  0.00    +0.000 A 
BRANCH  17  18
ATOM     18  O   UNL     1      37.686  -0.927  12.779  0.00  0.00    +0.000 OA
ATOM     19  C   UNL     1      38.303  -0.064  11.842  0.00  0.00    +0.000 C 
ENDBRANCH  17  18
ENDBRANCH   1  12
BRANCH   1  20
ATOM     20  N   UNL     1      36.028  -2.854  16.231  0.00  0.00    +0.000 NA
BRANCH  20  24
ATOM     21  C   UNL     1      34.068  -6.428  15.293  0.00  0.00    +0.000 A 
ATOM     22  C   UNL     1      35.276  -6.395  15.955  0.00  0.00    +0.000 A 
ATOM     23  C   UNL     1      35.872  -5.204  16.231  0.00  0.00    +0.000 A 
ATOM     24  C   UNL     1      35.296  -4.006  15.864  0.00  0.00    +0.000 A 
ATOM     25  C   UNL     1      34.104  -4.050  15.213  0.00  0.00    +0.000 A 
ATOM     26  C   UNL     1      33.492  -5.252  14.928  0.00  0.00    +0.000 A 
BRANCH  21  27
ATOM     27  C   UNL     1      33.457  -7.733  15.015  0.00  0.00    +0.000 C 
ATOM     28  O   UNL     1      32.528  -8.189  15.712  0.00  0.00    +0.000 OA
BRANCH  27  29
ATOM     29  O   UNL     1      33.897  -8.511  13.954  0.00  0.00    +0.000 OA
BRANCH  29  31
ATOM     30  C   UNL     1      32.777  -8.925  11.904  0.00  0.00    +0.000 C 
ATOM     31  C   UNL     1      33.751  -8.067  12.637  0.00  0.00    +0.000 C 
ENDBRANCH  29  31
ENDBRANCH  27  29
ENDBRANCH  21  27
ENDBRANCH  20  24
ENDBRANCH   1  20
TORSDOF 8
ENDMDL
MODEL 4
REMARK VINA RESULT:      -7.1      1.879      4.328
REMARK  Name = 
REMARK  8 active torsions:
REMARK  status: ('A' for Active; 'I' for Inactive)
REMARK    1  A    between atoms: C_2  and  O_3
REMARK    2  A    between atoms: O_3  and  C_4
REMARK    3  A    between atoms: C_4  and  C_6
REMARK    4  A    between atoms: C_9  and  N_10
REMARK    5  A    between atoms: N_10  and  C_11
REMARK    6  A    between atoms: C_11  and  C_12
REMARK    7  A    between atoms: C_11  and  C_20
REMARK    8  A    between atoms: C_17  and  O_18
REMARK                            x       y       z     vdW  Elec       q    Type
REMARK                         _______ _______ _______ _____ _____    ______ ____
ROOT
ATOM      1  C   UNL     1      37.387  -2.083  15.622  0.00  0.00    +0.000 C 
ENDROOT
BRANCH   1   2
ATOM      2  C   UNL     1      36.970  -3.595  15.968  0.00  0.00    +0.000 A 
ATOM      3  C   UNL     1      37.704  -4.506  16.588  0.00  0.00    +0.000 A 
ATOM      4  C   UNL     1      39.096  -4.288  17.106  0.00  0.00    +0.000 C 
ATOM      5  N   UNL     1      36.971  -5.630  16.655  0.00  0.00    +0.000 NA
ATOM      6  C   UNL     1      35.764  -5.413  16.069  0.00  0.00    +0.000 A 
ATOM      7  C   UNL     1      34.659  -6.233  15.872  0.00  0.00    +0.000 A 
ATOM      8  C   UNL     1      33.577  -5.685  15.223  0.00  0.00    +0.000 A 
ATOM      9  C   UNL     1      33.540  -4.389  14.770  0.00  0.00    +0.000 A 
ATOM     10  C   UNL     1      34.632  -3.577  14.964  0.00  0.00    +0.000 A 
ATOM     11  C   UNL     1      35.755  -4.111  15.626  0.00  0.00    +0.000 A 
ENDBRANCH   1   2
BRANCH   1  12
ATOM     12  C   UNL     1      36.849  -1.433  16.958  0.00  0.00    +0.000 A 
ATOM     13  C   UNL     1      37.288  -1.832  18.163  0.00  0.00    +0.000 A 
ATOM     14  C   UNL     1      36.800  -1.267  19.330  0.00  0.00    +0.000 A 
ATOM     15  C   UNL     1      35.854  -0.284  19.258  0.00  0.00    +0.000 A 
ATOM     16  C   UNL     1      35.410   0.119  18.023  0.00  0.00    +0.000 A 
ATOM     17  C   UNL     1      35.900  -0.450  16.851  0.00  0.00    +0.000 A 
BRANCH  17  18
ATOM     18  O   UNL     1      35.406   0.009  15.646  0.00  0.00    +0.000 OA
ATOM     19  C   UNL     1      35.602   1.345  15.221  0.00  0.00    +0.000 C 
ENDBRANCH  17  18
ENDBRANCH   1  12
BRANCH   1  20
ATOM     20  N   UNL     1      38.883  -2.205  16.024  0.00  0.00    +0.000 NA
BRANCH  20  24
ATOM     21  C   UNL     1      41.799  -0.136  13.855  0.00  0.00    +0.000 A 
ATOM     22  C   UNL     1      41.946  -1.454  14.223  0.00  0.00    +0.000 A 
ATOM     23  C   UNL     1      40.966  -2.078  14.933  0.00  0.00    +0.000 A 
ATOM     24  C   UNL     1      39.811  -1.421  15.302  0.00  0.00    +0.000 A 
ATOM     25  C   UNL     1      39.678  -0.121  14.932  0.00  0.00    +0.000 A 
ATOM     26  C   UNL     1      40.664   0.520  14.213  0.00  0.00    +0.000 A 
BRANCH  21  27
ATOM     27  C   UNL     1      42.878   0.501  13.089  0.00  0.00    +0.000 C 
ATOM     28  O   UNL     1      42.792   0.689  11.858  0.00  0.00    +0.000 OA
BRANCH  27  29
ATOM     29  O   UNL     1      44.041   0.922  13.716  0.00  0.00    +0.000 OA
BRANCH  29  31
ATOM     30  C   UNL     1      45.489  -0.029  15.337  0.00  0.00    +0.000 C 
ATOM     31  C   UNL     1      45.110   0.041  13.897  0.00  0.00    +0.000 C 
ENDBRANCH  29  31
ENDBRANCH  27  29
ENDBRANCH  21  27
ENDBRANCH  20  24
ENDBRANCH   1  20
TORSDOF 8
ENDMDL
MODEL 5
REMARK VINA RESULT:      -6.7      2.787      5.422
REMARK  Name = 
REMARK  8 active torsions:
REMARK  status: ('A' for Active; 'I' for Inactive)
REMARK    1  A    between atoms: C_2  and  O_3
REMARK    2  A    between atoms: O_3  and  C_4
REMARK    3  A    between atoms: C_4  and  C_6
REMARK    4  A    between atoms: C_9  and  N_10
REMARK    5  A    between atoms: N_10  and  C_11
REMARK    6  A    between atoms: C_11  and  C_12
REMARK    7  A    between atoms: C_11  and  C_20
REMARK    8  A    between atoms: C_17  and  O_18
REMARK                            x       y       z     vdW  Elec       q    Type
REMARK                         _______ _______ _______ _____ _____    ______ ____
ROOT
ATOM      1  C   UNL     1      36.959  -0.041  14.205  0.00  0.00    +0.000 C 
ENDROOT
BRANCH   1   2
ATOM      2  C   UNL     1      36.254   0.414  15.575  0.00  0.00    +0.000 A 
ATOM      3  C   UNL     1      35.394   1.408  15.742  0.00  0.00    +0.000 A 
ATOM      4  C   UNL     1      34.899   2.313  14.653  0.00  0.00    +0.000 C 
ATOM      5  N   UNL     1      35.071   1.439  17.045  0.00  0.00    +0.000 NA
ATOM      6  C   UNL     1      35.736   0.449  17.697  0.00  0.00    +0.000 A 
ATOM      7  C   UNL     1      35.758   0.058  19.031  0.00  0.00    +0.000 A 
ATOM      8  C   UNL     1      36.565  -1.007  19.359  0.00  0.00    +0.000 A 
ATOM      9  C   UNL     1      37.335  -1.686  18.448  0.00  0.00    +0.000 A 
ATOM     10  C   UNL     1      37.314  -1.299  17.129  0.00  0.00    +0.000 A 
ATOM     11  C   UNL     1      36.497  -0.212  16.762  0.00  0.00    +0.000 A 
ENDBRANCH   1   2
BRANCH   1  12
ATOM     12  C   UNL     1      37.808   1.274  13.990  0.00  0.00    +0.000 A 
ATOM     13  C   UNL     1      38.522   1.824  14.986  0.00  0.00    +0.000 A 
ATOM     14  C   UNL     1      39.251   2.986  14.793  0.00  0.00    +0.000 A 
ATOM     15  C   UNL     1      39.247   3.587  13.565  0.00  0.00    +0.000 A 
ATOM     16  C   UNL     1      38.515   3.019  12.552  0.00  0.00    +0.000 A 
ATOM     17  C   UNL     1      37.782   1.852  12.748  0.00  0.00    +0.000 A 
BRANCH  17  18
ATOM     18  O   UNL     1      37.071   1.341  11.680  0.00  0.00    +0.000 OA
ATOM     19  C   UNL     1      37.598   1.340  10.367  0.00  0.00    +0.000 C 
ENDBRANCH  17  18
ENDBRANCH   1  12
BRANCH   1  20
ATOM     20  N   UNL     1      38.071  -0.916  14.849  0.00  0.00    +0.000 NA
BRANCH  20  24
ATOM     21  C   UNL     1      40.951  -2.821  12.489  0.00  0.00    +0.000 A 
ATOM     22  C   UNL     1      41.183  -2.464  13.799  0.00  0.00    +0.000 A 
ATOM     23  C   UNL     1      40.211  -1.842  14.520  0.00  0.00    +0.000 A 
ATOM     24  C   UNL     1      38.979  -1.552  13.973  0.00  0.00    +0.000 A 
ATOM     25  C   UNL     1      38.761  -1.911  12.681  0.00  0.00    +0.000 A 
ATOM     26  C   UNL     1      39.739  -2.541  11.941  0.00  0.00    +0.000 A 
BRANCH  21  27
ATOM     27  C   UNL     1      42.024  -3.490  11.745  0.00  0.00    +0.000 C 
ATOM     28  O   UNL     1      43.211  -3.466  12.132  0.00  0.00    +0.000 OA
BRANCH  27  29
ATOM     29  O   UNL     1      41.752  -4.182  10.574  0.00  0.00    +0.000 OA
BRANCH  29  31
ATOM     30  C   UNL     1      41.060  -3.201   8.528  0.00  0.00    +0.000 C 
ATOM     31  C   UNL     1      42.204  -3.701   9.343  0.00  0.00    +0.000 C 
ENDBRANCH  29  31
ENDBRANCH  27  29
ENDBRANCH  21  27
ENDBRANCH  20  24
ENDBRANCH   1  20
TORSDOF 8
ENDMDL
MODEL 6
REMARK VINA RESULT:      -6.7     27.523     31.168
REMARK  Name = 
REMARK  8 active torsions:
REMARK  status: ('A' for Active; 'I' for Inactive)
REMARK    1  A    between atoms: C_2  and  O_3
REMARK    2  A    between atoms: O_3  and  C_4
REMARK    3  A    between atoms: C_4  and  C_6
REMARK    4  A    between atoms: C_9  and  N_10
REMARK    5  A    between atoms: N_10  and  C_11
REMARK    6  A    between atoms: C_11  and  C_12
REMARK    7  A    between atoms: C_11  and  C_20
REMARK    8  A    between atoms: C_17  and  O_18
REMARK                            x       y       z     vdW  Elec       q    Type
REMARK                         _______ _______ _______ _____ _____    ______ ____
ROOT
ATOM      1  C   UNL     1      26.261  17.429  35.692  0.00  0.00    +0.000 C 
ENDROOT
BRANCH   1   2
ATOM      2  C   UNL     1      27.729  17.716  35.107  0.00  0.00    +0.000 A 
ATOM      3  C   UNL     1      28.142  18.808  34.481  0.00  0.00    +0.000 A 
ATOM      4  C   UNL     1      27.297  20.016  34.202  0.00  0.00    +0.000 C 
ATOM      5  N   UNL     1      29.431  18.616  34.156  0.00  0.00    +0.000 NA
ATOM      6  C   UNL     1      29.825  17.388  34.587  0.00  0.00    +0.000 A 
ATOM      7  C   UNL     1      31.036  16.712  34.503  0.00  0.00    +0.000 A 
ATOM      8  C   UNL     1      31.091  15.452  35.052  0.00  0.00    +0.000 A 
ATOM      9  C   UNL     1      30.024  14.844  35.667  0.00  0.00    +0.000 A 
ATOM     10  C   UNL     1      28.826  15.513  35.751  0.00  0.00    +0.000 A 
ATOM     11  C   UNL     1      28.739  16.806  35.197  0.00  0.00    +0.000 A 
ENDBRANCH   1   2
BRANCH   1  12
ATOM     12  C   UNL     1      25.797  16.440  34.549  0.00  0.00    +0.000 A 
ATOM     13  C   UNL     1      26.097  15.131  34.584  0.00  0.00    +0.000 A 
ATOM     14  C   UNL     1      25.700  14.275  33.571  0.00  0.00    +0.000 A 
ATOM     15  C   UNL     1      24.989  14.767  32.513  0.00  0.00    +0.000 A 
ATOM     16  C   UNL     1      24.686  16.106  32.484  0.00  0.00    +0.000 A 
ATOM     17  C   UNL     1      25.086  16.966  33.502  0.00  0.00    +0.000 A 
BRANCH  17  18
ATOM     18  O   UNL     1      24.743  18.300  33.403  0.00  0.00    +0.000 OA
ATOM     19  C   UNL     1      24.105  18.821  32.252  0.00  0.00    +0.000 C 
ENDBRANCH  17  18
ENDBRANCH   1  12
BRANCH   1  20
ATOM     20  N   UNL     1      26.683  16.365  36.744  0.00  0.00    +0.000 NA
BRANCH  20  24
ATOM     21  C   UNL     1      23.800  15.705  39.701  0.00  0.00    +0.000 A 
ATOM     22  C   UNL     1      23.996  16.937  39.118  0.00  0.00    +0.000 A 
ATOM     23  C   UNL     1      24.952  17.097  38.162  0.00  0.00    +0.000 A 
ATOM     24  C   UNL     1      25.745  16.047  37.751  0.00  0.00    +0.000 A 
ATOM     25  C   UNL     1      25.542  14.836  38.333  0.00  0.00    +0.000 A 
ATOM     26  C   UNL     1      24.577  14.663  39.301  0.00  0.00    +0.000 A 
BRANCH  21  27
ATOM     27  C   UNL     1      22.759  15.573  40.727  0.00  0.00    +0.000 C 
ATOM     28  O   UNL     1      21.779  14.813  40.580  0.00  0.00    +0.000 OA
BRANCH  27  29
ATOM     29  O   UNL     1      22.831  16.296  41.908  0.00  0.00    +0.000 OA
BRANCH  29  31
ATOM     30  C   UNL     1      21.557  18.273  41.595  0.00  0.00    +0.000 C 
ATOM     31  C   UNL     1      21.724  17.012  42.373  0.00  0.00    +0.000 C 
ENDBRANCH  29  31
ENDBRANCH  27  29
ENDBRANCH  21  27
ENDBRANCH  20  24
ENDBRANCH   1  20
TORSDOF 8
ENDMDL
MODEL 7
REMARK VINA RESULT:      -6.7      1.691      2.732
REMARK  Name = 
REMARK  8 active torsions:
REMARK  status: ('A' for Active; 'I' for Inactive)
REMARK    1  A    between atoms: C_2  and  O_3
REMARK    2  A    between atoms: O_3  and  C_4
REMARK    3  A    between atoms: C_4  and  C_6
REMARK    4  A    between atoms: C_9  and  N_10
REMARK    5  A    between atoms: N_10  and  C_11
REMARK    6  A    between atoms: C_11  and  C_12
REMARK    7  A    between atoms: C_11  and  C_20
REMARK    8  A    between atoms: C_17  and  O_18
REMARK                            x       y       z     vdW  Elec       q    Type
REMARK                         _______ _______ _______ _____ _____    ______ ____
ROOT
ATOM      1  C   UNL     1      38.853  -1.703  15.251  0.00  0.00    +0.000 C 
ENDROOT
BRANCH   1   2
ATOM      2  C   UNL     1      37.738  -0.620  14.847  0.00  0.00    +0.000 A 
ATOM      3  C   UNL     1      37.528  -0.095  13.649  0.00  0.00    +0.000 A 
ATOM      4  C   UNL     1      38.305  -0.432  12.410  0.00  0.00    +0.000 C 
ATOM      5  N   UNL     1      36.509   0.773  13.768  0.00  0.00    +0.000 NA
ATOM      6  C   UNL     1      36.080   0.787  15.058  0.00  0.00    +0.000 A 
ATOM      7  C   UNL     1      35.074   1.499  15.701  0.00  0.00    +0.000 A 
ATOM      8  C   UNL     1      34.906   1.272  17.047  0.00  0.00    +0.000 A 
ATOM      9  C   UNL     1      35.672   0.391  17.770  0.00  0.00    +0.000 A 
ATOM     10  C   UNL     1      36.667  -0.314  17.135  0.00  0.00    +0.000 A 
ATOM     11  C   UNL     1      36.862  -0.103  15.756  0.00  0.00    +0.000 A 
ENDBRANCH   1   2
BRANCH   1  12
ATOM     12  C   UNL     1      37.872  -2.935  15.384  0.00  0.00    +0.000 A 
ATOM     13  C   UNL     1      36.902  -3.166  14.484  0.00  0.00    +0.000 A 
ATOM     14  C   UNL     1      36.037  -4.239  14.616  0.00  0.00    +0.000 A 
ATOM     15  C   UNL     1      36.170  -5.083  15.683  0.00  0.00    +0.000 A 
ATOM     16  C   UNL     1      37.164  -4.842  16.599  0.00  0.00    +0.000 A 
ATOM     17  C   UNL     1      38.032  -3.762  16.465  0.00  0.00    +0.000 A 
BRANCH  17  18
ATOM     18  O   UNL     1      39.007  -3.585  17.427  0.00  0.00    +0.000 OA
ATOM     19  C   UNL     1      38.687  -3.183  18.746  0.00  0.00    +0.000 C 
ENDBRANCH  17  18
ENDBRANCH   1  12
BRANCH   1  20
ATOM     20  N   UNL     1      39.367  -1.988  13.812  0.00  0.00    +0.000 NA
BRANCH  20  24
ATOM     21  C   UNL     1      43.527  -2.335  13.549  0.00  0.00    +0.000 A 
ATOM     22  C   UNL     1      42.910  -1.408  14.359  0.00  0.00    +0.000 A 
ATOM     23  C   UNL     1      41.551  -1.336  14.403  0.00  0.00    +0.000 A 
ATOM     24  C   UNL     1      40.758  -2.175  13.650  0.00  0.00    +0.000 A 
ATOM     25  C   UNL     1      41.378  -3.086  12.855  0.00  0.00    +0.000 A 
ATOM     26  C   UNL     1      42.753  -3.168  12.803  0.00  0.00    +0.000 A 
BRANCH  21  27
ATOM     27  C   UNL     1      44.994  -2.382  13.530  0.00  0.00    +0.000 C 
ATOM     28  O   UNL     1      45.656  -1.946  12.565  0.00  0.00    +0.000 OA
BRANCH  27  29
ATOM     29  O   UNL     1      45.701  -2.918  14.595  0.00  0.00    +0.000 OA
BRANCH  29  31
ATOM     30  C   UNL     1      46.780  -4.690  15.746  0.00  0.00    +0.000 C 
ATOM     31  C   UNL     1      46.483  -4.064  14.426  0.00  0.00    +0.000 C 
ENDBRANCH  29  31
ENDBRANCH  27  29
ENDBRANCH  21  27
ENDBRANCH  20  24
ENDBRANCH   1  20
TORSDOF 8
ENDMDL
MODEL 8
REMARK VINA RESULT:      -6.6      6.329      9.651
REMARK  Name = 
REMARK  8 active torsions:
REMARK  status: ('A' for Active; 'I' for Inactive)
REMARK    1  A    between atoms: C_2  and  O_3
REMARK    2  A    between atoms: O_3  and  C_4
REMARK    3  A    between atoms: C_4  and  C_6
REMARK    4  A    between atoms: C_9  and  N_10
REMARK    5  A    between atoms: N_10  and  C_11
REMARK    6  A    between atoms: C_11  and  C_12
REMARK    7  A    between atoms: C_11  and  C_20
REMARK    8  A    between atoms: C_17  and  O_18
REMARK                            x       y       z     vdW  Elec       q    Type
REMARK                         _______ _______ _______ _____ _____    ______ ____
ROOT
ATOM      1  C   UNL     1      38.633   5.676  17.064  0.00  0.00    +0.000 C 
ENDROOT
BRANCH   1   2
ATOM      2  C   UNL     1      40.201   6.026  17.061  0.00  0.00    +0.000 A 
ATOM      3  C   UNL     1      40.997   6.128  16.007  0.00  0.00    +0.000 A 
ATOM      4  C   UNL     1      40.570   5.941  14.581  0.00  0.00    +0.000 C 
ATOM      5  N   UNL     1      42.225   6.422  16.464  0.00  0.00    +0.000 NA
ATOM      6  C   UNL     1      42.192   6.505  17.820  0.00  0.00    +0.000 A 
ATOM      7  C   UNL     1      43.175   6.775  18.765  0.00  0.00    +0.000 A 
ATOM      8  C   UNL     1      42.793   6.776  20.086  0.00  0.00    +0.000 A 
ATOM      9  C   UNL     1      41.509   6.527  20.506  0.00  0.00    +0.000 A 
ATOM     10  C   UNL     1      40.536   6.260  19.572  0.00  0.00    +0.000 A 
ATOM     11  C   UNL     1      40.898   6.252  18.211  0.00  0.00    +0.000 A 
ENDBRANCH   1   2
BRANCH   1  12
ATOM     12  C   UNL     1      38.130   7.082  16.546  0.00  0.00    +0.000 A 
ATOM     13  C   UNL     1      38.050   7.363  15.235  0.00  0.00    +0.000 A 
ATOM     14  C   UNL     1      37.623   8.603  14.790  0.00  0.00    +0.000 A 
ATOM     15  C   UNL     1      37.274   9.561  15.700  0.00  0.00    +0.000 A 
ATOM     16  C   UNL     1      37.358   9.267  17.038  0.00  0.00    +0.000 A 
ATOM     17  C   UNL     1      37.788   8.020  17.484  0.00  0.00    +0.000 A 
BRANCH  17  18
ATOM     18  O   UNL     1      37.845   7.798  18.846  0.00  0.00    +0.000 OA
ATOM     19  C   UNL     1      37.226   8.674  19.769  0.00  0.00    +0.000 C 
ENDBRANCH  17  18
ENDBRANCH   1  12
BRANCH   1  20
ATOM     20  N   UNL     1      38.608   4.920  15.705  0.00  0.00    +0.000 NA
BRANCH  20  24
ATOM     21  C   UNL     1      36.583   1.264  15.852  0.00  0.00    +0.000 A 
ATOM     22  C   UNL     1      36.261   2.323  16.671  0.00  0.00    +0.000 A 
ATOM     23  C   UNL     1      36.956   3.490  16.584  0.00  0.00    +0.000 A 
ATOM     24  C   UNL     1      37.991   3.649  15.686  0.00  0.00    +0.000 A 
ATOM     25  C   UNL     1      38.298   2.597  14.883  0.00  0.00    +0.000 A 
ATOM     26  C   UNL     1      37.601   1.411  14.963  0.00  0.00    +0.000 A 
BRANCH  21  27
ATOM     27  C   UNL     1      35.809   0.023  15.976  0.00  0.00    +0.000 C 
ATOM     28  O   UNL     1      36.072  -0.990  15.295  0.00  0.00    +0.000 OA
BRANCH  27  29
ATOM     29  O   UNL     1      34.749  -0.067  16.865  0.00  0.00    +0.000 OA
BRANCH  29  31
ATOM     30  C   UNL     1      35.719  -0.534  18.980  0.00  0.00    +0.000 C 
ATOM     31  C   UNL     1      34.777  -0.987  17.916  0.00  0.00    +0.000 C 
ENDBRANCH  29  31
ENDBRANCH  27  29
ENDBRANCH  21  27
ENDBRANCH  20  24
ENDBRANCH   1  20
TORSDOF 8
ENDMDL
MODEL 9
REMARK VINA RESULT:      -6.5      5.415      7.996
REMARK  Name = 
REMARK  8 active torsions:
REMARK  status: ('A' for Active; 'I' for Inactive)
REMARK    1  A    between atoms: C_2  and  O_3
REMARK    2  A    between atoms: O_3  and  C_4
REMARK    3  A    between atoms: C_4  and  C_6
REMARK    4  A    between atoms: C_9  and  N_10
REMARK    5  A    between atoms: N_10  and  C_11
REMARK    6  A    between atoms: C_11  and  C_12
REMARK    7  A    between atoms: C_11  and  C_20
REMARK    8  A    between atoms: C_17  and  O_18
REMARK                            x       y       z     vdW  Elec       q    Type
REMARK                         _______ _______ _______ _____ _____    ______ ____
ROOT
ATOM      1  C   UNL     1      38.391   3.461  14.750  0.00  0.00    +0.000 C 
ENDROOT
BRANCH   1   2
ATOM      2  C   UNL     1      37.659   2.040  14.597  0.00  0.00    +0.000 A 
ATOM      3  C   UNL     1      37.739   1.203  13.573  0.00  0.00    +0.000 A 
ATOM      4  C   UNL     1      38.559   1.427  12.337  0.00  0.00    +0.000 C 
ATOM      5  N   UNL     1      36.959   0.148  13.860  0.00  0.00    +0.000 NA
ATOM      6  C   UNL     1      36.387   0.331  15.079  0.00  0.00    +0.000 A 
ATOM      7  C   UNL     1      35.510  -0.447  15.827  0.00  0.00    +0.000 A 
ATOM      8  C   UNL     1      35.116   0.049  17.048  0.00  0.00    +0.000 A 
ATOM      9  C   UNL     1      35.541   1.254  17.552  0.00  0.00    +0.000 A 
ATOM     10  C   UNL     1      36.409   2.023  16.813  0.00  0.00    +0.000 A 
ATOM     11  C   UNL     1      36.830   1.541  15.558  0.00  0.00    +0.000 A 
ENDBRANCH   1   2
BRANCH   1  12
ATOM     12  C   UNL     1      37.266   4.324  14.053  0.00  0.00    +0.000 A 
ATOM     13  C   UNL     1      36.043   4.458  14.593  0.00  0.00    +0.000 A 
ATOM     14  C   UNL     1      35.058   5.203  13.968  0.00  0.00    +0.000 A 
ATOM     15  C   UNL     1      35.332   5.819  12.779  0.00  0.00    +0.000 A 
ATOM     16  C   UNL     1      36.584   5.679  12.234  0.00  0.00    +0.000 A 
ATOM     17  C   UNL     1      37.573   4.928  12.862  0.00  0.00    +0.000 A 
BRANCH  17  18
ATOM     18  O   UNL     1      38.808   4.835  12.252  0.00  0.00    +0.000 OA
ATOM     19  C   UNL     1      39.015   5.266  10.920  0.00  0.00    +0.000 C 
ENDBRANCH  17  18
ENDBRANCH   1  12
BRANCH   1  20
ATOM     20  N   UNL     1      37.985   3.723  16.228  0.00  0.00    +0.000 NA
BRANCH  20  24
ATOM     21  C   UNL     1      40.574   6.347  18.203  0.00  0.00    +0.000 A 
ATOM     22  C   UNL     1      40.629   6.135  16.843  0.00  0.00    +0.000 A 
ATOM     23  C   UNL     1      39.764   5.266  16.252  0.00  0.00    +0.000 A 
ATOM     24  C   UNL     1      38.818   4.579  16.983  0.00  0.00    +0.000 A 
ATOM     25  C   UNL     1      38.773   4.797  18.323  0.00  0.00    +0.000 A 
ATOM     26  C   UNL     1      39.644   5.675  18.932  0.00  0.00    +0.000 A 
BRANCH  21  27
ATOM     27  C   UNL     1      41.523   7.293  18.802  0.00  0.00    +0.000 C 
ATOM     28  O   UNL     1      41.155   8.389  19.273  0.00  0.00    +0.000 OA
BRANCH  27  29
ATOM     29  O   UNL     1      42.876   6.995  18.868  0.00  0.00    +0.000 OA
BRANCH  29  31
ATOM     30  C   UNL     1      42.846   6.093  21.062  0.00  0.00    +0.000 C 
ATOM     31  C   UNL     1      43.545   6.987  20.094  0.00  0.00    +0.000 C 
ENDBRANCH  29  31
ENDBRANCH  27  29
ENDBRANCH  21  27
ENDBRANCH  20  24
ENDBRANCH   1  20
TORSDOF 8
ENDMDL
MODEL 10
REMARK VINA RESULT:      -6.5      5.564      7.163
REMARK  Name = 
REMARK  8 active torsions:
REMARK  status: ('A' for Active; 'I' for Inactive)
REMARK    1  A    between atoms: C_2  and  O_3
REMARK    2  A    between atoms: O_3  and  C_4
REMARK    3  A    between atoms: C_4  and  C_6
REMARK    4  A    between atoms: C_9  and  N_10
REMARK    5  A    between atoms: N_10  and  C_11
REMARK    6  A    between atoms: C_11  and  C_12
REMARK    7  A    between atoms: C_11  and  C_20
REMARK    8  A    between atoms: C_17  and  O_18
REMARK                            x       y       z     vdW  Elec       q    Type
REMARK                         _______ _______ _______ _____ _____    ______ ____
ROOT
ATOM      1  C   UNL     1      37.783   3.093  15.786  0.00  0.00    +0.000 C 
ENDROOT
BRANCH   1   2
ATOM      2  C   UNL     1      36.353   3.648  15.311  0.00  0.00    +0.000 A 
ATOM      3  C   UNL     1      35.168   3.093  15.523  0.00  0.00    +0.000 A 
ATOM      4  C   UNL     1      34.934   1.816  16.274  0.00  0.00    +0.000 C 
ATOM      5  N   UNL     1      34.250   3.885  14.944  0.00  0.00    +0.000 NA
ATOM      6  C   UNL     1      34.872   4.946  14.365  0.00  0.00    +0.000 A 
ATOM      7  C   UNL     1      34.391   6.035  13.648  0.00  0.00    +0.000 A 
ATOM      8  C   UNL     1      35.317   6.943  13.190  0.00  0.00    +0.000 A 
ATOM      9  C   UNL     1      36.668   6.825  13.404  0.00  0.00    +0.000 A 
ATOM     10  C   UNL     1      37.144   5.748  14.114  0.00  0.00    +0.000 A 
ATOM     11  C   UNL     1      36.220   4.801  14.597  0.00  0.00    +0.000 A 
ENDBRANCH   1   2
BRANCH   1  12
ATOM     12  C   UNL     1      38.092   2.245  14.489  0.00  0.00    +0.000 A 
ATOM     13  C   UNL     1      38.305   2.829  13.298  0.00  0.00    +0.000 A 
ATOM     14  C   UNL     1      38.559   2.078  12.163  0.00  0.00    +0.000 A 
ATOM     15  C   UNL     1      38.597   0.715  12.252  0.00  0.00    +0.000 A 
ATOM     16  C   UNL     1      38.379   0.125  13.473  0.00  0.00    +0.000 A 
ATOM     17  C   UNL     1      38.122   0.881  14.612  0.00  0.00    +0.000 A 
BRANCH  17  18
ATOM     18  O   UNL     1      37.915   0.215  15.805  0.00  0.00    +0.000 OA
ATOM     19  C   UNL     1      37.463  -1.125  15.839  0.00  0.00    +0.000 C 
ENDBRANCH  17  18
ENDBRANCH   1  12
BRANCH   1  20
ATOM     20  N   UNL     1      38.606   4.361  15.421  0.00  0.00    +0.000 NA
BRANCH  20  24
ATOM     21  C   UNL     1      40.402   6.179  18.731  0.00  0.00    +0.000 A 
ATOM     22  C   UNL     1      39.257   5.420  18.832  0.00  0.00    +0.000 A 
ATOM     23  C   UNL     1      38.712   4.854  17.721  0.00  0.00    +0.000 A 
ATOM     24  C   UNL     1      39.279   5.019  16.475  0.00  0.00    +0.000 A 
ATOM     25  C   UNL     1      40.409   5.768  16.388  0.00  0.00    +0.000 A 
ATOM     26  C   UNL     1      40.969   6.346  17.507  0.00  0.00    +0.000 A 
BRANCH  21  27
ATOM     27  C   UNL     1      40.959   6.772  19.953  0.00  0.00    +0.000 C 
ATOM     28  O   UNL     1      40.606   7.898  20.361  0.00  0.00    +0.000 OA
BRANCH  27  29
ATOM     29  O   UNL     1      41.906   6.092  20.704  0.00  0.00    +0.000 OA
BRANCH  29  31
ATOM     30  C   UNL     1      43.688   7.151  21.858  0.00  0.00    +0.000 C 
ATOM     31  C   UNL     1      43.258   6.435  20.623  0.00  0.00    +0.000 C 
ENDBRANCH  29  31
ENDBRANCH  27  29
ENDBRANCH  21  27
ENDBRANCH  20  24
ENDBRANCH   1  20
TORSDOF 8
ENDMDL
