MODEL 1
REMARK VINA RESULT:      -7.9      0.000      0.000
REMARK  Name = 
REMARK  0 active torsions:
REMARK  status: ('A' for Active; 'I' for Inactive)
REMARK                            x       y       z     vdW  Elec       q    Type
REMARK                         _______ _______ _______ _____ _____    ______ ____
ROOT
ATOM      1  C   UNL     1      28.112  25.294  24.110  0.00  0.00    +0.000 C 
ATOM      2  C   UNL     1      27.679  23.938  23.688  0.00  0.00    +0.000 C 
ATOM      3  C   UNL     1      26.601  23.308  24.428  0.00  0.00    +0.000 C 
ATOM      4  C   UNL     1      26.958  23.364  25.923  0.00  0.00    +0.000 C 
ATOM      5  C   UNL     1      28.207  22.308  25.985  0.00  0.00    +0.000 C 
ATOM      6  C   UNL     1      28.546  22.500  27.482  0.00  0.00    +0.000 A 
ATOM      7  C   UNL     1      27.499  22.472  28.354  0.00  0.00    +0.000 A 
ATOM      8  C   UNL     1      27.708  22.631  29.742  0.00  0.00    +0.000 A 
ATOM      9  C   UNL     1      28.972  22.814  30.206  0.00  0.00    +0.000 A 
ATOM     10  O   UNL     1      29.265  22.979  31.567  0.00  0.00    +0.000 OA
ATOM     11  C   UNL     1      30.017  22.842  29.341  0.00  0.00    +0.000 A 
ATOM     12  C   UNL     1      29.804  22.682  27.945  0.00  0.00    +0.000 A 
ATOM     13  C   UNL     1      30.964  22.713  27.029  0.00  0.00    +0.000 C 
ATOM     14  C   UNL     1      30.555  22.469  25.601  0.00  0.00    +0.000 C 
ATOM     15  C   UNL     1      29.305  23.482  25.401  0.00  0.00    +0.000 C 
ATOM     16  C   UNL     1      29.008  22.961  23.815  0.00  0.00    +0.000 C 
ATOM     17  C   UNL     1      29.922  24.119  23.095  0.00  0.00    +0.000 C 
ATOM     18  C   UNL     1      29.063  24.223  21.883  0.00  0.00    +0.000 C 
ATOM     19  O   UNL     1      29.430  24.558  20.779  0.00  0.00    +0.000 OA
ATOM     20  C   UNL     1      27.653  23.855  22.197  0.00  0.00    +0.000 C 
ENDROOT
TORSDOF 0
ENDMDL
MODEL 2
REMARK VINA RESULT:      -7.6      1.849      2.584
REMARK  Name = 
REMARK  0 active torsions:
REMARK  status: ('A' for Active; 'I' for Inactive)
REMARK                            x       y       z     vdW  Elec       q    Type
REMARK                         _______ _______ _______ _____ _____    ______ ____
ROOT
ATOM      1  C   UNL     1      28.723  26.021  24.066  0.00  0.00    +0.000 C 
ATOM      2  C   UNL     1      27.510  25.493  23.393  0.00  0.00    +0.000 C 
ATOM      3  C   UNL     1      26.219  26.002  23.821  0.00  0.00    +0.000 C 
ATOM      4  C   UNL     1      26.141  25.862  25.351  0.00  0.00    +0.000 C 
ATOM      5  C   UNL     1      26.047  24.236  25.512  0.00  0.00    +0.000 C 
ATOM      6  C   UNL     1      26.063  24.196  27.058  0.00  0.00    +0.000 A 
ATOM      7  C   UNL     1      25.229  25.061  27.701  0.00  0.00    +0.000 A 
ATOM      8  C   UNL     1      25.167  25.094  29.112  0.00  0.00    +0.000 A 
ATOM      9  C   UNL     1      25.953  24.249  29.831  0.00  0.00    +0.000 A 
ATOM     10  O   UNL     1      25.951  24.218  31.232  0.00  0.00    +0.000 OA
ATOM     11  C   UNL     1      26.785  23.386  29.195  0.00  0.00    +0.000 A 
ATOM     12  C   UNL     1      26.845  23.355  27.775  0.00  0.00    +0.000 A 
ATOM     13  C   UNL     1      27.758  22.400  27.111  0.00  0.00    +0.000 C 
ATOM     14  C   UNL     1      27.644  22.469  25.611  0.00  0.00    +0.000 C 
ATOM     15  C   UNL     1      27.736  24.059  25.310  0.00  0.00    +0.000 C 
ATOM     16  C   UNL     1      27.509  23.858  23.642  0.00  0.00    +0.000 C 
ATOM     17  C   UNL     1      29.106  23.805  23.271  0.00  0.00    +0.000 C 
ATOM     18  C   UNL     1      28.949  24.457  21.941  0.00  0.00    +0.000 C 
ATOM     19  O   UNL     1      29.672  24.297  20.982  0.00  0.00    +0.000 OA
ATOM     20  C   UNL     1      27.761  25.356  21.927  0.00  0.00    +0.000 C 
ENDROOT
TORSDOF 0
ENDMDL
MODEL 3
REMARK VINA RESULT:      -7.5     18.246     20.508
REMARK  Name = 
REMARK  0 active torsions:
REMARK  status: ('A' for Active; 'I' for Inactive)
REMARK                            x       y       z     vdW  Elec       q    Type
REMARK                         _______ _______ _______ _____ _____    ______ ____
ROOT
ATOM      1  C   UNL     1      18.911  11.166  36.658  0.00  0.00    +0.000 C 
ATOM      2  C   UNL     1      18.265   9.830  36.640  0.00  0.00    +0.000 C 
ATOM      3  C   UNL     1      18.308   9.070  35.405  0.00  0.00    +0.000 C 
ATOM      4  C   UNL     1      17.794   9.977  34.274  0.00  0.00    +0.000 C 
ATOM      5  C   UNL     1      16.208  10.092  34.662  0.00  0.00    +0.000 C 
ATOM      6  C   UNL     1      15.808  11.078  33.540  0.00  0.00    +0.000 A 
ATOM      7  C   UNL     1      16.251  10.788  32.284  0.00  0.00    +0.000 A 
ATOM      8  C   UNL     1      15.931  11.624  31.192  0.00  0.00    +0.000 A 
ATOM      9  C   UNL     1      15.170  12.731  31.403  0.00  0.00    +0.000 A 
ATOM     10  O   UNL     1      14.808  13.611  30.375  0.00  0.00    +0.000 OA
ATOM     11  C   UNL     1      14.727  13.023  32.652  0.00  0.00    +0.000 A 
ATOM     12  C   UNL     1      15.050  12.180  33.749  0.00  0.00    +0.000 A 
ATOM     13  C   UNL     1      14.548  12.524  35.097  0.00  0.00    +0.000 C 
ATOM     14  C   UNL     1      14.939  11.490  36.119  0.00  0.00    +0.000 C 
ATOM     15  C   UNL     1      16.524  11.287  35.845  0.00  0.00    +0.000 C 
ATOM     16  C   UNL     1      16.674  10.073  37.020  0.00  0.00    +0.000 C 
ATOM     17  C   UNL     1      17.123  11.083  38.233  0.00  0.00    +0.000 C 
ATOM     18  C   UNL     1      18.008  10.091  38.903  0.00  0.00    +0.000 C 
ATOM     19  O   UNL     1      18.272  10.058  40.085  0.00  0.00    +0.000 OA
ATOM     20  C   UNL     1      18.550   9.112  37.919  0.00  0.00    +0.000 C 
ENDROOT
TORSDOF 0
ENDMDL
MODEL 4
REMARK VINA RESULT:      -7.4     20.737     22.994
REMARK  Name = 
REMARK  0 active torsions:
REMARK  status: ('A' for Active; 'I' for Inactive)
REMARK                            x       y       z     vdW  Elec       q    Type
REMARK                         _______ _______ _______ _____ _____    ______ ____
ROOT
ATOM      1  C   UNL     1      37.082   5.255  36.118  0.00  0.00    +0.000 C 
ATOM      2  C   UNL     1      35.939   5.591  37.004  0.00  0.00    +0.000 C 
ATOM      3  C   UNL     1      35.488   4.582  37.945  0.00  0.00    +0.000 C 
ATOM      4  C   UNL     1      35.250   3.279  37.161  0.00  0.00    +0.000 C 
ATOM      5  C   UNL     1      33.930   3.680  36.282  0.00  0.00    +0.000 C 
ATOM      6  C   UNL     1      33.828   2.363  35.478  0.00  0.00    +0.000 A 
ATOM      7  C   UNL     1      33.930   1.204  36.188  0.00  0.00    +0.000 A 
ATOM      8  C   UNL     1      33.842  -0.050  35.544  0.00  0.00    +0.000 A 
ATOM      9  C   UNL     1      33.653  -0.095  34.199  0.00  0.00    +0.000 A 
ATOM     10  O   UNL     1      33.555  -1.296  33.485  0.00  0.00    +0.000 OA
ATOM     11  C   UNL     1      33.551   1.057  33.488  0.00  0.00    +0.000 A 
ATOM     12  C   UNL     1      33.640   2.318  34.138  0.00  0.00    +0.000 A 
ATOM     13  C   UNL     1      33.520   3.554  33.337  0.00  0.00    +0.000 C 
ATOM     14  C   UNL     1      33.579   4.787  34.199  0.00  0.00    +0.000 C 
ATOM     15  C   UNL     1      34.878   4.519  35.131  0.00  0.00    +0.000 C 
ATOM     16  C   UNL     1      34.666   5.952  36.012  0.00  0.00    +0.000 C 
ATOM     17  C   UNL     1      35.661   6.861  35.075  0.00  0.00    +0.000 C 
ATOM     18  C   UNL     1      36.132   7.726  36.192  0.00  0.00    +0.000 C 
ATOM     19  O   UNL     1      36.519   8.869  36.091  0.00  0.00    +0.000 OA
ATOM     20  C   UNL     1      36.071   6.997  37.490  0.00  0.00    +0.000 C 
ENDROOT
TORSDOF 0
ENDMDL
MODEL 5
REMARK VINA RESULT:      -7.3      1.627      6.504
REMARK  Name = 
REMARK  0 active torsions:
REMARK  status: ('A' for Active; 'I' for Inactive)
REMARK                            x       y       z     vdW  Elec       q    Type
REMARK                         _______ _______ _______ _____ _____    ______ ____
ROOT
ATOM      1  C   UNL     1      28.394  24.291  28.442  0.00  0.00    +0.000 C 
ATOM      2  C   UNL     1      27.603  23.054  28.224  0.00  0.00    +0.000 C 
ATOM      3  C   UNL     1      28.148  22.048  27.331  0.00  0.00    +0.000 C 
ATOM      4  C   UNL     1      28.515  22.741  26.008  0.00  0.00    +0.000 C 
ATOM      5  C   UNL     1      27.031  23.095  25.417  0.00  0.00    +0.000 C 
ATOM      6  C   UNL     1      27.503  23.854  24.155  0.00  0.00    +0.000 A 
ATOM      7  C   UNL     1      28.480  23.261  23.414  0.00  0.00    +0.000 A 
ATOM      8  C   UNL     1      28.972  23.873  22.241  0.00  0.00    +0.000 A 
ATOM      9  C   UNL     1      28.459  25.070  21.851  0.00  0.00    +0.000 A 
ATOM     10  O   UNL     1      28.892  25.743  20.700  0.00  0.00    +0.000 OA
ATOM     11  C   UNL     1      27.486  25.665  22.586  0.00  0.00    +0.000 A 
ATOM     12  C   UNL     1      26.993  25.046  23.767  0.00  0.00    +0.000 A 
ATOM     13  C   UNL     1      25.928  25.717  24.543  0.00  0.00    +0.000 C 
ATOM     14  C   UNL     1      25.492  24.890  25.723  0.00  0.00    +0.000 C 
ATOM     15  C   UNL     1      26.897  24.476  26.418  0.00  0.00    +0.000 C 
ATOM     16  C   UNL     1      26.145  23.531  27.608  0.00  0.00    +0.000 C 
ATOM     17  C   UNL     1      26.067  24.726  28.731  0.00  0.00    +0.000 C 
ATOM     18  C   UNL     1      26.234  23.815  29.897  0.00  0.00    +0.000 C 
ATOM     19  O   UNL     1      25.811  24.008  31.015  0.00  0.00    +0.000 OA
ATOM     20  C   UNL     1      27.007  22.600  29.516  0.00  0.00    +0.000 C 
ENDROOT
TORSDOF 0
ENDMDL
MODEL 6
REMARK VINA RESULT:      -6.7     16.778     19.041
REMARK  Name = 
REMARK  0 active torsions:
REMARK  status: ('A' for Active; 'I' for Inactive)
REMARK                            x       y       z     vdW  Elec       q    Type
REMARK                         _______ _______ _______ _____ _____    ______ ____
ROOT
ATOM      1  C   UNL     1      24.356  11.476  36.378  0.00  0.00    +0.000 C 
ATOM      2  C   UNL     1      24.398  10.218  37.166  0.00  0.00    +0.000 C 
ATOM      3  C   UNL     1      23.649   9.079  36.667  0.00  0.00    +0.000 C 
ATOM      4  C   UNL     1      22.209   9.544  36.393  0.00  0.00    +0.000 C 
ATOM      5  C   UNL     1      21.665   9.793  37.916  0.00  0.00    +0.000 C 
ATOM      6  C   UNL     1      20.267  10.334  37.534  0.00  0.00    +0.000 A 
ATOM      7  C   UNL     1      19.572   9.628  36.598  0.00  0.00    +0.000 A 
ATOM      8  C   UNL     1      18.285  10.039  36.190  0.00  0.00    +0.000 A 
ATOM      9  C   UNL     1      17.737  11.154  36.741  0.00  0.00    +0.000 A 
ATOM     10  O   UNL     1      16.466  11.628  36.391  0.00  0.00    +0.000 OA
ATOM     11  C   UNL     1      18.425  11.860  37.673  0.00  0.00    +0.000 A 
ATOM     12  C   UNL     1      19.721  11.444  38.083  0.00  0.00    +0.000 A 
ATOM     13  C   UNL     1      20.443  12.233  39.104  0.00  0.00    +0.000 C 
ATOM     14  C   UNL     1      21.770  11.612  39.454  0.00  0.00    +0.000 C 
ATOM     15  C   UNL     1      22.431  11.320  38.003  0.00  0.00    +0.000 C 
ATOM     16  C   UNL     1      23.807  10.584  38.666  0.00  0.00    +0.000 C 
ATOM     17  C   UNL     1      24.719  11.948  38.688  0.00  0.00    +0.000 C 
ATOM     18  C   UNL     1      26.007  11.243  38.436  0.00  0.00    +0.000 C 
ATOM     19  O   UNL     1      27.103  11.618  38.790  0.00  0.00    +0.000 OA
ATOM     20  C   UNL     1      25.782   9.983  37.674  0.00  0.00    +0.000 C 
ENDROOT
TORSDOF 0
ENDMDL
MODEL 7
REMARK VINA RESULT:      -6.7      1.688      6.562
REMARK  Name = 
REMARK  0 active torsions:
REMARK  status: ('A' for Active; 'I' for Inactive)
REMARK                            x       y       z     vdW  Elec       q    Type
REMARK                         _______ _______ _______ _____ _____    ______ ____
ROOT
ATOM      1  C   UNL     1      30.424  24.325  26.657  0.00  0.00    +0.000 C 
ATOM      2  C   UNL     1      30.015  22.987  26.161  0.00  0.00    +0.000 C 
ATOM      3  C   UNL     1      30.558  22.538  24.893  0.00  0.00    +0.000 C 
ATOM      4  C   UNL     1      30.307  23.643  23.853  0.00  0.00    +0.000 C 
ATOM      5  C   UNL     1      28.682  23.555  23.689  0.00  0.00    +0.000 C 
ATOM      6  C   UNL     1      28.523  24.743  22.711  0.00  0.00    +0.000 A 
ATOM      7  C   UNL     1      29.380  24.782  21.652  0.00  0.00    +0.000 A 
ATOM      8  C   UNL     1      29.310  25.823  20.701  0.00  0.00    +0.000 A 
ATOM      9  C   UNL     1      28.372  26.796  20.849  0.00  0.00    +0.000 A 
ATOM     10  O   UNL     1      28.235  27.862  19.950  0.00  0.00    +0.000 OA
ATOM     11  C   UNL     1      27.516  26.761  21.902  0.00  0.00    +0.000 A 
ATOM     12  C   UNL     1      27.590  25.712  22.858  0.00  0.00    +0.000 A 
ATOM     13  C   UNL     1      26.640  25.700  23.992  0.00  0.00    +0.000 C 
ATOM     14  C   UNL     1      26.828  24.488  24.865  0.00  0.00    +0.000 C 
ATOM     15  C   UNL     1      28.429  24.464  25.117  0.00  0.00    +0.000 C 
ATOM     16  C   UNL     1      28.368  23.026  26.013  0.00  0.00    +0.000 C 
ATOM     17  C   UNL     1      28.258  23.758  27.477  0.00  0.00    +0.000 C 
ATOM     18  C   UNL     1      29.016  22.702  28.204  0.00  0.00    +0.000 C 
ATOM     19  O   UNL     1      28.891  22.416  29.374  0.00  0.00    +0.000 OA
ATOM     20  C   UNL     1      29.976  22.016  27.295  0.00  0.00    +0.000 C 
ENDROOT
TORSDOF 0
ENDMDL
MODEL 8
REMARK VINA RESULT:      -6.6      2.446      5.710
REMARK  Name = 
REMARK  0 active torsions:
REMARK  status: ('A' for Active; 'I' for Inactive)
REMARK                            x       y       z     vdW  Elec       q    Type
REMARK                         _______ _______ _______ _____ _____    ______ ____
ROOT
ATOM      1  C   UNL     1      31.907  25.595  26.883  0.00  0.00    +0.000 C 
ATOM      2  C   UNL     1      32.645  24.425  26.345  0.00  0.00    +0.000 C 
ATOM      3  C   UNL     1      32.587  24.183  24.915  0.00  0.00    +0.000 C 
ATOM      4  C   UNL     1      31.107  24.176  24.497  0.00  0.00    +0.000 C 
ATOM      5  C   UNL     1      30.591  22.790  25.197  0.00  0.00    +0.000 C 
ATOM      6  C   UNL     1      29.101  22.919  24.802  0.00  0.00    +0.000 A 
ATOM      7  C   UNL     1      28.838  23.244  23.505  0.00  0.00    +0.000 A 
ATOM      8  C   UNL     1      27.510  23.378  23.046  0.00  0.00    +0.000 A 
ATOM      9  C   UNL     1      26.484  23.178  23.916  0.00  0.00    +0.000 A 
ATOM     10  O   UNL     1      25.138  23.291  23.541  0.00  0.00    +0.000 OA
ATOM     11  C   UNL     1      26.741  22.854  25.208  0.00  0.00    +0.000 A 
ATOM     12  C   UNL     1      28.079  22.720  25.667  0.00  0.00    +0.000 A 
ATOM     13  C   UNL     1      28.326  22.361  27.080  0.00  0.00    +0.000 C 
ATOM     14  C   UNL     1      29.796  22.207  27.368  0.00  0.00    +0.000 C 
ATOM     15  C   UNL     1      30.438  23.548  26.723  0.00  0.00    +0.000 C 
ATOM     16  C   UNL     1      32.026  23.091  27.102  0.00  0.00    +0.000 C 
ATOM     17  C   UNL     1      32.080  23.885  28.537  0.00  0.00    +0.000 C 
ATOM     18  C   UNL     1      33.532  24.208  28.448  0.00  0.00    +0.000 C 
ATOM     19  O   UNL     1      34.280  24.376  29.385  0.00  0.00    +0.000 OA
ATOM     20  C   UNL     1      33.969  24.303  27.027  0.00  0.00    +0.000 C 
ENDROOT
TORSDOF 0
ENDMDL
MODEL 9
REMARK VINA RESULT:      -6.6      3.084      4.070
REMARK  Name = 
REMARK  0 active torsions:
REMARK  status: ('A' for Active; 'I' for Inactive)
REMARK                            x       y       z     vdW  Elec       q    Type
REMARK                         _______ _______ _______ _____ _____    ______ ____
ROOT
ATOM      1  C   UNL     1      28.723  25.118  24.946  0.00  0.00    +0.000 C 
ATOM      2  C   UNL     1      27.894  23.979  24.478  0.00  0.00    +0.000 C 
ATOM      3  C   UNL     1      26.524  24.251  24.085  0.00  0.00    +0.000 C 
ATOM      4  C   UNL     1      25.850  25.027  25.230  0.00  0.00    +0.000 C 
ATOM      5  C   UNL     1      25.754  23.866  26.380  0.00  0.00    +0.000 C 
ATOM      6  C   UNL     1      25.157  24.753  27.498  0.00  0.00    +0.000 A 
ATOM      7  C   UNL     1      24.107  25.551  27.151  0.00  0.00    +0.000 A 
ATOM      8  C   UNL     1      23.490  26.390  28.103  0.00  0.00    +0.000 A 
ATOM      9  C   UNL     1      23.954  26.398  29.381  0.00  0.00    +0.000 A 
ATOM     10  O   UNL     1      23.398  27.202  30.386  0.00  0.00    +0.000 OA
ATOM     11  C   UNL     1      24.998  25.606  29.731  0.00  0.00    +0.000 A 
ATOM     12  C   UNL     1      25.618  24.761  28.770  0.00  0.00    +0.000 A 
ATOM     13  C   UNL     1      26.751  23.906  29.183  0.00  0.00    +0.000 C 
ATOM     14  C   UNL     1      27.239  23.040  28.052  0.00  0.00    +0.000 C 
ATOM     15  C   UNL     1      27.389  24.091  26.827  0.00  0.00    +0.000 C 
ATOM     16  C   UNL     1      27.849  22.890  25.722  0.00  0.00    +0.000 C 
ATOM     17  C   UNL     1      29.464  23.083  25.943  0.00  0.00    +0.000 C 
ATOM     18  C   UNL     1      29.825  22.745  24.538  0.00  0.00    +0.000 C 
ATOM     19  O   UNL     1      30.874  22.263  24.171  0.00  0.00    +0.000 OA
ATOM     20  C   UNL     1      28.711  23.082  23.607  0.00  0.00    +0.000 C 
ENDROOT
TORSDOF 0
ENDMDL
MODEL 10
REMARK VINA RESULT:      -6.5     21.110     22.269
REMARK  Name = 
REMARK  0 active torsions:
REMARK  status: ('A' for Active; 'I' for Inactive)
REMARK                            x       y       z     vdW  Elec       q    Type
REMARK                         _______ _______ _______ _____ _____    ______ ____
ROOT
ATOM      1  C   UNL     1      23.036   3.191  15.925  0.00  0.00    +0.000 C 
ATOM      2  C   UNL     1      23.133   2.674  17.314  0.00  0.00    +0.000 C 
ATOM      3  C   UNL     1      23.241   3.640  18.392  0.00  0.00    +0.000 C 
ATOM      4  C   UNL     1      24.390   4.604  18.049  0.00  0.00    +0.000 C 
ATOM      5  C   UNL     1      25.685   3.618  18.214  0.00  0.00    +0.000 C 
ATOM      6  C   UNL     1      26.760   4.637  17.769  0.00  0.00    +0.000 A 
ATOM      7  C   UNL     1      26.691   5.880  18.324  0.00  0.00    +0.000 A 
ATOM      8  C   UNL     1      27.632   6.877  17.987  0.00  0.00    +0.000 A 
ATOM      9  C   UNL     1      28.617   6.587  17.096  0.00  0.00    +0.000 A 
ATOM     10  O   UNL     1      29.589   7.518  16.708  0.00  0.00    +0.000 OA
ATOM     11  C   UNL     1      28.689   5.350  16.540  0.00  0.00    +0.000 A 
ATOM     12  C   UNL     1      27.741   4.349  16.882  0.00  0.00    +0.000 A 
ATOM     13  C   UNL     1      27.849   3.010  16.263  0.00  0.00    +0.000 C 
ATOM     14  C   UNL     1      26.799   2.066  16.787  0.00  0.00    +0.000 C 
ATOM     15  C   UNL     1      25.435   2.933  16.666  0.00  0.00    +0.000 C 
ATOM     16  C   UNL     1      24.482   1.718  17.365  0.00  0.00    +0.000 C 
ATOM     17  C   UNL     1      24.040   1.028  15.943  0.00  0.00    +0.000 C 
ATOM     18  C   UNL     1      22.691   0.611  16.418  0.00  0.00    +0.000 C 
ATOM     19  O   UNL     1      22.053  -0.332  16.006  0.00  0.00    +0.000 OA
ATOM     20  C   UNL     1      22.202   1.520  17.493  0.00  0.00    +0.000 C 
ENDROOT
TORSDOF 0
ENDMDL
