MODEL 1
REMARK VINA RESULT:      -5.5      0.000      0.000
REMARK  Name = 
REMARK  4 active torsions:
REMARK  status: ('A' for Active; 'I' for Inactive)
REMARK    1  A    between atoms: C_2  and  N_3
REMARK    2  A    between atoms: N_3  and  C_4
REMARK    3  A    between atoms: C_6  and  C_8
REMARK    4  A    between atoms: C_12  and  C_13
REMARK                            x       y       z     vdW  Elec       q    Type
REMARK                         _______ _______ _______ _____ _____    ______ ____
ROOT
ATOM      1  C   UNL     1      28.828  24.388  22.886  0.00  0.00    +0.000 A 
ATOM      2  C   UNL     1      27.580  23.735  22.881  0.00  0.00    +0.000 A 
ATOM      3  N   UNL     1      26.610  23.661  21.824  0.00  0.00    +0.000 NA
ATOM      4  S   UNL     1      27.471  23.040  24.415  0.00  0.00    +0.000 S 
ATOM      5  C   UNL     1      28.947  23.546  25.065  0.00  0.00    +0.000 A 
ATOM      6  C   UNL     1      29.511  24.266  24.043  0.00  0.00    +0.000 A 
ATOM      7  C   UNL     1      30.862  24.912  24.338  0.00  0.00    +0.000 C 
ENDROOT
BRANCH   5   8
ATOM      8  C   UNL     1      29.516  23.284  26.408  0.00  0.00    +0.000 A 
ATOM      9  C   UNL     1      30.452  22.287  26.540  0.00  0.00    +0.000 A 
ATOM     10  C   UNL     1      31.028  21.982  27.756  0.00  0.00    +0.000 A 
ATOM     11  C   UNL     1      30.676  22.678  28.889  0.00  0.00    +0.000 A 
ATOM     12  C   UNL     1      29.738  23.677  28.758  0.00  0.00    +0.000 A 
ATOM     13  C   UNL     1      29.153  23.988  27.526  0.00  0.00    +0.000 A 
ENDBRANCH   5   8
BRANCH   1  15
ATOM     14  N   UNL     1      28.987  26.479  21.360  0.00  0.00    +0.000 N 
ATOM     15  C   UNL     1      29.192  25.138  21.670  0.00  0.00    +0.000 C 
ATOM     16  O   UNL     1      29.800  24.483  20.717  0.00  0.00    +0.000 OA
BRANCH  14  18
ATOM     17  C   UNL     1      29.420  28.031  23.184  0.00  0.00    +0.000 C 
ATOM     18  C   UNL     1      28.422  27.559  22.121  0.00  0.00    +0.000 C 
ENDBRANCH  14  18
BRANCH  14  19
ATOM     19  C   UNL     1      29.409  26.967  19.987  0.00  0.00    +0.000 C 
ATOM     20  C   UNL     1      28.580  28.160  19.619  0.00  0.00    +0.000 C 
ENDBRANCH  14  19
ENDBRANCH   1  15
TORSDOF 4
ENDMDL
MODEL 2
REMARK VINA RESULT:      -5.4     22.951     26.552
REMARK  Name = 
REMARK  4 active torsions:
REMARK  status: ('A' for Active; 'I' for Inactive)
REMARK    1  A    between atoms: C_2  and  N_3
REMARK    2  A    between atoms: N_3  and  C_4
REMARK    3  A    between atoms: C_6  and  C_8
REMARK    4  A    between atoms: C_12  and  C_13
REMARK                            x       y       z     vdW  Elec       q    Type
REMARK                         _______ _______ _______ _____ _____    ______ ____
ROOT
ATOM      1  C   UNL     1      33.702   1.236  35.450  0.00  0.00    +0.000 A 
ATOM      2  C   UNL     1      33.524   1.174  34.054  0.00  0.00    +0.000 A 
ATOM      3  N   UNL     1      33.148   0.046  33.246  0.00  0.00    +0.000 NA
ATOM      4  S   UNL     1      33.849   2.743  33.525  0.00  0.00    +0.000 S 
ATOM      5  C   UNL     1      34.203   3.477  35.005  0.00  0.00    +0.000 A 
ATOM      6  C   UNL     1      34.056   2.455  35.907  0.00  0.00    +0.000 A 
ATOM      7  C   UNL     1      34.360   2.792  37.364  0.00  0.00    +0.000 C 
ENDROOT
BRANCH   5   8
ATOM      8  C   UNL     1      34.581   4.882  35.285  0.00  0.00    +0.000 A 
ATOM      9  C   UNL     1      35.916   5.211  35.303  0.00  0.00    +0.000 A 
ATOM     10  C   UNL     1      36.349   6.496  35.555  0.00  0.00    +0.000 A 
ATOM     11  C   UNL     1      35.442   7.502  35.800  0.00  0.00    +0.000 A 
ATOM     12  C   UNL     1      34.106   7.175  35.783  0.00  0.00    +0.000 A 
ATOM     13  C   UNL     1      33.665   5.871  35.527  0.00  0.00    +0.000 A 
ENDBRANCH   5   8
BRANCH   1  15
ATOM     14  N   UNL     1      34.480  -0.928  36.647  0.00  0.00    +0.000 N 
ATOM     15  C   UNL     1      33.525  -0.020  36.201  0.00  0.00    +0.000 C 
ATOM     16  O   UNL     1      32.306  -0.369  36.514  0.00  0.00    +0.000 OA
BRANCH  14  18
ATOM     17  C   UNL     1      36.495  -0.228  37.818  0.00  0.00    +0.000 C 
ATOM     18  C   UNL     1      35.916  -0.916  36.578  0.00  0.00    +0.000 C 
ENDBRANCH  14  18
BRANCH  14  19
ATOM     19  C   UNL     1      33.998  -2.187  37.343  0.00  0.00    +0.000 C 
ATOM     20  C   UNL     1      34.643  -3.377  36.698  0.00  0.00    +0.000 C 
ENDBRANCH  14  19
ENDBRANCH   1  15
TORSDOF 4
ENDMDL
MODEL 3
REMARK VINA RESULT:      -5.4      1.971      2.785
REMARK  Name = 
REMARK  4 active torsions:
REMARK  status: ('A' for Active; 'I' for Inactive)
REMARK    1  A    between atoms: C_2  and  N_3
REMARK    2  A    between atoms: N_3  and  C_4
REMARK    3  A    between atoms: C_6  and  C_8
REMARK    4  A    between atoms: C_12  and  C_13
REMARK                            x       y       z     vdW  Elec       q    Type
REMARK                         _______ _______ _______ _____ _____    ______ ____
ROOT
ATOM      1  C   UNL     1      28.657  23.223  25.038  0.00  0.00    +0.000 A 
ATOM      2  C   UNL     1      27.502  22.863  25.759  0.00  0.00    +0.000 A 
ATOM      3  N   UNL     1      26.140  22.803  25.302  0.00  0.00    +0.000 NA
ATOM      4  S   UNL     1      28.075  22.503  27.305  0.00  0.00    +0.000 S 
ATOM      5  C   UNL     1      29.724  22.793  27.075  0.00  0.00    +0.000 A 
ATOM      6  C   UNL     1      29.796  23.174  25.759  0.00  0.00    +0.000 A 
ATOM      7  C   UNL     1      31.180  23.559  25.244  0.00  0.00    +0.000 C 
ENDROOT
BRANCH   5   8
ATOM      8  C   UNL     1      30.839  22.670  28.043  0.00  0.00    +0.000 A 
ATOM      9  C   UNL     1      31.197  23.777  28.774  0.00  0.00    +0.000 A 
ATOM     10  C   UNL     1      32.223  23.744  29.695  0.00  0.00    +0.000 A 
ATOM     11  C   UNL     1      32.929  22.583  29.911  0.00  0.00    +0.000 A 
ATOM     12  C   UNL     1      32.572  21.473  29.179  0.00  0.00    +0.000 A 
ATOM     13  C   UNL     1      31.531  21.505  28.245  0.00  0.00    +0.000 A 
ENDBRANCH   5   8
BRANCH   1  15
ATOM     14  N   UNL     1      28.257  24.909  23.109  0.00  0.00    +0.000 N 
ATOM     15  C   UNL     1      28.465  23.638  23.636  0.00  0.00    +0.000 C 
ATOM     16  O   UNL     1      28.487  22.706  22.722  0.00  0.00    +0.000 OA
BRANCH  14  18
ATOM     17  C   UNL     1      26.794  26.517  24.202  0.00  0.00    +0.000 C 
ATOM     18  C   UNL     1      28.218  26.205  23.728  0.00  0.00    +0.000 C 
ENDBRANCH  14  18
BRANCH  14  19
ATOM     19  C   UNL     1      28.018  25.031  21.615  0.00  0.00    +0.000 C 
ATOM     20  C   UNL     1      29.247  25.599  20.971  0.00  0.00    +0.000 C 
ENDBRANCH  14  19
ENDBRANCH   1  15
TORSDOF 4
ENDMDL
MODEL 4
REMARK VINA RESULT:      -5.3      4.730      7.865
REMARK  Name = 
REMARK  4 active torsions:
REMARK  status: ('A' for Active; 'I' for Inactive)
REMARK    1  A    between atoms: C_2  and  N_3
REMARK    2  A    between atoms: N_3  and  C_4
REMARK    3  A    between atoms: C_6  and  C_8
REMARK    4  A    between atoms: C_12  and  C_13
REMARK                            x       y       z     vdW  Elec       q    Type
REMARK                         _______ _______ _______ _____ _____    ______ ____
ROOT
ATOM      1  C   UNL     1      27.299  23.257  29.147  0.00  0.00    +0.000 A 
ATOM      2  C   UNL     1      26.210  24.071  29.517  0.00  0.00    +0.000 A 
ATOM      3  N   UNL     1      25.737  24.393  30.836  0.00  0.00    +0.000 NA
ATOM      4  S   UNL     1      25.571  24.600  28.048  0.00  0.00    +0.000 S 
ATOM      5  C   UNL     1      26.630  23.829  26.980  0.00  0.00    +0.000 A 
ATOM      6  C   UNL     1      27.485  23.156  27.814  0.00  0.00    +0.000 A 
ATOM      7  C   UNL     1      28.555  22.304  27.139  0.00  0.00    +0.000 C 
ENDROOT
BRANCH   5   8
ATOM      8  C   UNL     1      26.651  23.860  25.499  0.00  0.00    +0.000 A 
ATOM      9  C   UNL     1      25.723  23.111  24.815  0.00  0.00    +0.000 A 
ATOM     10  C   UNL     1      25.677  23.086  23.436  0.00  0.00    +0.000 A 
ATOM     11  C   UNL     1      26.572  23.823  22.695  0.00  0.00    +0.000 A 
ATOM     12  C   UNL     1      27.501  24.574  23.378  0.00  0.00    +0.000 A 
ATOM     13  C   UNL     1      27.549  24.600  24.777  0.00  0.00    +0.000 A 
ENDBRANCH   5   8
BRANCH   1  15
ATOM     14  N   UNL     1      29.272  22.941  30.799  0.00  0.00    +0.000 N 
ATOM     15  C   UNL     1      28.044  22.604  30.239  0.00  0.00    +0.000 C 
ATOM     16  O   UNL     1      27.504  21.551  30.792  0.00  0.00    +0.000 OA
BRANCH  14  18
ATOM     17  C   UNL     1      29.608  25.325  31.150  0.00  0.00    +0.000 C 
ATOM     18  C   UNL     1      30.170  24.034  30.545  0.00  0.00    +0.000 C 
ENDBRANCH  14  18
BRANCH  14  19
ATOM     19  C   UNL     1      29.837  22.036  31.878  0.00  0.00    +0.000 C 
ATOM     20  C   UNL     1      31.241  21.659  31.512  0.00  0.00    +0.000 C 
ENDBRANCH  14  19
ENDBRANCH   1  15
TORSDOF 4
ENDMDL
MODEL 5
REMARK VINA RESULT:      -5.3     24.070     26.481
REMARK  Name = 
REMARK  4 active torsions:
REMARK  status: ('A' for Active; 'I' for Inactive)
REMARK    1  A    between atoms: C_2  and  N_3
REMARK    2  A    between atoms: N_3  and  C_4
REMARK    3  A    between atoms: C_6  and  C_8
REMARK    4  A    between atoms: C_12  and  C_13
REMARK                            x       y       z     vdW  Elec       q    Type
REMARK                         _______ _______ _______ _____ _____    ______ ____
ROOT
ATOM      1  C   UNL     1      34.045   3.207  35.962  0.00  0.00    +0.000 A 
ATOM      2  C   UNL     1      33.923   3.804  34.693  0.00  0.00    +0.000 A 
ATOM      3  N   UNL     1      34.072   5.188  34.333  0.00  0.00    +0.000 NA
ATOM      4  S   UNL     1      33.561   2.517  33.663  0.00  0.00    +0.000 S 
ATOM      5  C   UNL     1      33.558   1.249  34.781  0.00  0.00    +0.000 A 
ATOM      6  C   UNL     1      33.847   1.873  35.967  0.00  0.00    +0.000 A 
ATOM      7  C   UNL     1      33.872   0.985  37.207  0.00  0.00    +0.000 C 
ENDROOT
BRANCH   5   8
ATOM      8  C   UNL     1      33.308  -0.194  34.555  0.00  0.00    +0.000 A 
ATOM      9  C   UNL     1      32.270  -0.792  35.230  0.00  0.00    +0.000 A 
ATOM     10  C   UNL     1      31.973  -2.131  35.075  0.00  0.00    +0.000 A 
ATOM     11  C   UNL     1      32.719  -2.917  34.228  0.00  0.00    +0.000 A 
ATOM     12  C   UNL     1      33.758  -2.320  33.552  0.00  0.00    +0.000 A 
ATOM     13  C   UNL     1      34.061  -0.963  33.708  0.00  0.00    +0.000 A 
ENDBRANCH   5   8
BRANCH   1  15
ATOM     14  N   UNL     1      35.535   4.428  37.698  0.00  0.00    +0.000 N 
ATOM     15  C   UNL     1      34.322   4.107  37.097  0.00  0.00    +0.000 C 
ATOM     16  O   UNL     1      33.305   4.714  37.648  0.00  0.00    +0.000 OA
BRANCH  14  18
ATOM     17  C   UNL     1      37.598   5.186  36.654  0.00  0.00    +0.000 C 
ATOM     18  C   UNL     1      36.885   4.045  37.388  0.00  0.00    +0.000 C 
ENDBRANCH  14  18
BRANCH  14  19
ATOM     19  C   UNL     1      35.512   5.341  38.910  0.00  0.00    +0.000 C 
ATOM     20  C   UNL     1      35.688   4.512  40.147  0.00  0.00    +0.000 C 
ENDBRANCH  14  19
ENDBRANCH   1  15
TORSDOF 4
ENDMDL
MODEL 6
REMARK VINA RESULT:      -5.3     21.890     24.283
REMARK  Name = 
REMARK  4 active torsions:
REMARK  status: ('A' for Active; 'I' for Inactive)
REMARK    1  A    between atoms: C_2  and  N_3
REMARK    2  A    between atoms: N_3  and  C_4
REMARK    3  A    between atoms: C_6  and  C_8
REMARK    4  A    between atoms: C_12  and  C_13
REMARK                            x       y       z     vdW  Elec       q    Type
REMARK                         _______ _______ _______ _____ _____    ______ ____
ROOT
ATOM      1  C   UNL     1      18.016  10.476  38.185  0.00  0.00    +0.000 A 
ATOM      2  C   UNL     1      19.370  10.103  38.292  0.00  0.00    +0.000 A 
ATOM      3  N   UNL     1      20.452  10.382  37.388  0.00  0.00    +0.000 NA
ATOM      4  S   UNL     1      19.449   9.246  39.743  0.00  0.00    +0.000 S 
ATOM      5  C   UNL     1      17.831   9.340  40.221  0.00  0.00    +0.000 A 
ATOM      6  C   UNL     1      17.245  10.059  39.211  0.00  0.00    +0.000 A 
ATOM      7  C   UNL     1      15.740  10.280  39.326  0.00  0.00    +0.000 C 
ENDROOT
BRANCH   5   8
ATOM      8  C   UNL     1      17.181   8.789  41.433  0.00  0.00    +0.000 A 
ATOM      9  C   UNL     1      17.026   9.611  42.524  0.00  0.00    +0.000 A 
ATOM     10  C   UNL     1      16.431   9.174  43.690  0.00  0.00    +0.000 A 
ATOM     11  C   UNL     1      15.970   7.882  43.796  0.00  0.00    +0.000 A 
ATOM     12  C   UNL     1      16.124   7.058  42.704  0.00  0.00    +0.000 A 
ATOM     13  C   UNL     1      16.727   7.500  41.521  0.00  0.00    +0.000 A 
ENDBRANCH   5   8
BRANCH   1  15
ATOM     14  N   UNL     1      17.143  10.736  35.757  0.00  0.00    +0.000 N 
ATOM     15  C   UNL     1      17.623  11.216  36.972  0.00  0.00    +0.000 C 
ATOM     16  O   UNL     1      17.724  12.518  37.001  0.00  0.00    +0.000 OA
BRANCH  14  18
ATOM     17  C   UNL     1      18.110   8.578  35.184  0.00  0.00    +0.000 C 
ATOM     18  C   UNL     1      16.827   9.407  35.313  0.00  0.00    +0.000 C 
ENDBRANCH  14  18
BRANCH  14  19
ATOM     19  C   UNL     1      16.883  11.738  34.647  0.00  0.00    +0.000 C 
ATOM     20  C   UNL     1      15.724  11.262  33.824  0.00  0.00    +0.000 C 
ENDBRANCH  14  19
ENDBRANCH   1  15
TORSDOF 4
ENDMDL
MODEL 7
REMARK VINA RESULT:      -5.3     34.939     36.781
REMARK  Name = 
REMARK  4 active torsions:
REMARK  status: ('A' for Active; 'I' for Inactive)
REMARK    1  A    between atoms: C_2  and  N_3
REMARK    2  A    between atoms: N_3  and  C_4
REMARK    3  A    between atoms: C_6  and  C_8
REMARK    4  A    between atoms: C_12  and  C_13
REMARK                            x       y       z     vdW  Elec       q    Type
REMARK                         _______ _______ _______ _____ _____    ______ ____
ROOT
ATOM      1  C   UNL     1      15.748 -10.321  27.003  0.00  0.00    +0.000 A 
ATOM      2  C   UNL     1      16.291 -10.743  28.232  0.00  0.00    +0.000 A 
ATOM      3  N   UNL     1      15.898 -11.857  29.052  0.00  0.00    +0.000 NA
ATOM      4  S   UNL     1      17.529  -9.639  28.539  0.00  0.00    +0.000 S 
ATOM      5  C   UNL     1      17.387  -8.661  27.168  0.00  0.00    +0.000 A 
ATOM      6  C   UNL     1      16.348  -9.232  26.480  0.00  0.00    +0.000 A 
ATOM      7  C   UNL     1      15.932  -8.536  25.187  0.00  0.00    +0.000 C 
ENDROOT
BRANCH   5   8
ATOM      8  C   UNL     1      18.183  -7.472  26.782  0.00  0.00    +0.000 A 
ATOM      9  C   UNL     1      19.333  -7.662  26.054  0.00  0.00    +0.000 A 
ATOM     10  C   UNL     1      20.129  -6.607  25.657  0.00  0.00    +0.000 A 
ATOM     11  C   UNL     1      19.788  -5.315  25.983  0.00  0.00    +0.000 A 
ATOM     12  C   UNL     1      18.636  -5.123  26.711  0.00  0.00    +0.000 A 
ATOM     13  C   UNL     1      17.828  -6.192  27.115  0.00  0.00    +0.000 A 
ENDBRANCH   5   8
BRANCH   1  15
ATOM     14  N   UNL     1      13.235 -10.833  26.623  0.00  0.00    +0.000 N 
ATOM     15  C   UNL     1      14.596 -11.084  26.487  0.00  0.00    +0.000 C 
ATOM     16  O   UNL     1      14.848 -12.160  25.791  0.00  0.00    +0.000 OA
BRANCH  14  18
ATOM     17  C   UNL     1      12.415  -8.568  26.278  0.00  0.00    +0.000 C 
ATOM     18  C   UNL     1      12.520  -9.751  27.245  0.00  0.00    +0.000 C 
ENDBRANCH  14  18
BRANCH  14  19
ATOM     19  C   UNL     1      12.261 -11.839  26.038  0.00  0.00    +0.000 C 
ATOM     20  C   UNL     1      11.335 -12.306  27.121  0.00  0.00    +0.000 C 
ENDBRANCH  14  19
ENDBRANCH   1  15
TORSDOF 4
ENDMDL
MODEL 8
REMARK VINA RESULT:      -5.3     22.441     24.122
REMARK  Name = 
REMARK  4 active torsions:
REMARK  status: ('A' for Active; 'I' for Inactive)
REMARK    1  A    between atoms: C_2  and  N_3
REMARK    2  A    between atoms: N_3  and  C_4
REMARK    3  A    between atoms: C_6  and  C_8
REMARK    4  A    between atoms: C_12  and  C_13
REMARK                            x       y       z     vdW  Elec       q    Type
REMARK                         _______ _______ _______ _____ _____    ______ ____
ROOT
ATOM      1  C   UNL     1      24.288   1.618  17.415  0.00  0.00    +0.000 A 
ATOM      2  C   UNL     1      23.066   2.089  17.934  0.00  0.00    +0.000 A 
ATOM      3  N   UNL     1      21.835   1.371  18.123  0.00  0.00    +0.000 NA
ATOM      4  S   UNL     1      23.367   3.710  18.296  0.00  0.00    +0.000 S 
ATOM      5  C   UNL     1      24.984   3.816  17.815  0.00  0.00    +0.000 A 
ATOM      6  C   UNL     1      25.264   2.549  17.370  0.00  0.00    +0.000 A 
ATOM      7  C   UNL     1      26.666   2.325  16.811  0.00  0.00    +0.000 C 
ENDROOT
BRANCH   5   8
ATOM      8  C   UNL     1      25.896   4.982  17.857  0.00  0.00    +0.000 A 
ATOM      9  C   UNL     1      26.786   5.080  18.900  0.00  0.00    +0.000 A 
ATOM     10  C   UNL     1      27.669   6.135  19.011  0.00  0.00    +0.000 A 
ATOM     11  C   UNL     1      27.683   7.135  18.066  0.00  0.00    +0.000 A 
ATOM     12  C   UNL     1      26.792   7.038  17.021  0.00  0.00    +0.000 A 
ATOM     13  C   UNL     1      25.897   5.969  16.907  0.00  0.00    +0.000 A 
ENDBRANCH   5   8
BRANCH   1  15
ATOM     14  N   UNL     1      23.886  -0.339  15.763  0.00  0.00    +0.000 N 
ATOM     15  C   UNL     1      24.323   0.216  16.962  0.00  0.00    +0.000 C 
ATOM     16  O   UNL     1      24.833  -0.669  17.776  0.00  0.00    +0.000 OA
BRANCH  14  18
ATOM     17  C   UNL     1      24.427   0.943  13.767  0.00  0.00    +0.000 C 
ATOM     18  C   UNL     1      23.325   0.258  14.582  0.00  0.00    +0.000 C 
ENDBRANCH  14  18
BRANCH  14  19
ATOM     19  C   UNL     1      23.985  -1.844  15.596  0.00  0.00    +0.000 C 
ATOM     20  C   UNL     1      22.696  -2.355  15.025  0.00  0.00    +0.000 C 
ENDBRANCH  14  19
ENDBRANCH   1  15
TORSDOF 4
ENDMDL
MODEL 9
REMARK VINA RESULT:      -5.2     20.973     24.170
REMARK  Name = 
REMARK  4 active torsions:
REMARK  status: ('A' for Active; 'I' for Inactive)
REMARK    1  A    between atoms: C_2  and  N_3
REMARK    2  A    between atoms: N_3  and  C_4
REMARK    3  A    between atoms: C_6  and  C_8
REMARK    4  A    between atoms: C_12  and  C_13
REMARK                            x       y       z     vdW  Elec       q    Type
REMARK                         _______ _______ _______ _____ _____    ______ ____
ROOT
ATOM      1  C   UNL     1      19.395   9.390  39.684  0.00  0.00    +0.000 A 
ATOM      2  C   UNL     1      18.452   9.880  38.760  0.00  0.00    +0.000 A 
ATOM      3  N   UNL     1      17.022   9.950  38.888  0.00  0.00    +0.000 NA
ATOM      4  S   UNL     1      19.383  10.381  37.445  0.00  0.00    +0.000 S 
ATOM      5  C   UNL     1      20.924   9.993  38.020  0.00  0.00    +0.000 A 
ATOM      6  C   UNL     1      20.674   9.467  39.261  0.00  0.00    +0.000 A 
ATOM      7  C   UNL     1      21.888   8.965  40.038  0.00  0.00    +0.000 C 
ENDROOT
BRANCH   5   8
ATOM      8  C   UNL     1      22.240  10.172  37.362  0.00  0.00    +0.000 A 
ATOM      9  C   UNL     1      22.956  11.314  37.630  0.00  0.00    +0.000 A 
ATOM     10  C   UNL     1      24.188  11.554  37.057  0.00  0.00    +0.000 A 
ATOM     11  C   UNL     1      24.743  10.644  36.187  0.00  0.00    +0.000 A 
ATOM     12  C   UNL     1      24.026   9.500  35.918  0.00  0.00    +0.000 A 
ATOM     13  C   UNL     1      22.777   9.254  36.498  0.00  0.00    +0.000 A 
ENDBRANCH   5   8
BRANCH   1  15
ATOM     14  N   UNL     1      18.351   7.567  41.203  0.00  0.00    +0.000 N 
ATOM     15  C   UNL     1      18.867   8.832  40.943  0.00  0.00    +0.000 C 
ATOM     16  O   UNL     1      18.866   9.608  41.993  0.00  0.00    +0.000 OA
BRANCH  14  18
ATOM     17  C   UNL     1      19.535   5.617  40.354  0.00  0.00    +0.000 C 
ATOM     18  C   UNL     1      18.218   6.400  40.374  0.00  0.00    +0.000 C 
ENDBRANCH  14  18
BRANCH  14  19
ATOM     19  C   UNL     1      17.808   7.289  42.593  0.00  0.00    +0.000 C 
ATOM     20  C   UNL     1      16.310   7.313  42.544  0.00  0.00    +0.000 C 
ENDBRANCH  14  19
ENDBRANCH   1  15
TORSDOF 4
ENDMDL
MODEL 10
REMARK VINA RESULT:      -5.2     34.822     37.050
REMARK  Name = 
REMARK  4 active torsions:
REMARK  status: ('A' for Active; 'I' for Inactive)
REMARK    1  A    between atoms: C_2  and  N_3
REMARK    2  A    between atoms: N_3  and  C_4
REMARK    3  A    between atoms: C_6  and  C_8
REMARK    4  A    between atoms: C_12  and  C_13
REMARK                            x       y       z     vdW  Elec       q    Type
REMARK                         _______ _______ _______ _____ _____    ______ ____
ROOT
ATOM      1  C   UNL     1      17.009 -10.664  28.979  0.00  0.00    +0.000 A 
ATOM      2  C   UNL     1      15.991 -10.913  28.038  0.00  0.00    +0.000 A 
ATOM      3  N   UNL     1      14.973 -11.928  28.064  0.00  0.00    +0.000 NA
ATOM      4  S   UNL     1      16.227  -9.736  26.852  0.00  0.00    +0.000 S 
ATOM      5  C   UNL     1      17.568  -8.939  27.501  0.00  0.00    +0.000 A 
ATOM      6  C   UNL     1      17.811  -9.627  28.663  0.00  0.00    +0.000 A 
ATOM      7  C   UNL     1      19.018  -9.170  29.477  0.00  0.00    +0.000 C 
ENDROOT
BRANCH   5   8
ATOM      8  C   UNL     1      18.315  -7.778  26.965  0.00  0.00    +0.000 A 
ATOM      9  C   UNL     1      17.875  -6.514  27.280  0.00  0.00    +0.000 A 
ATOM     10  C   UNL     1      18.515  -5.381  26.820  0.00  0.00    +0.000 A 
ATOM     11  C   UNL     1      19.629  -5.486  26.020  0.00  0.00    +0.000 A 
ATOM     12  C   UNL     1      20.071  -6.751  25.703  0.00  0.00    +0.000 A 
ATOM     13  C   UNL     1      19.423  -7.901  26.169  0.00  0.00    +0.000 A 
ENDBRANCH   5   8
BRANCH   1  15
ATOM     14  N   UNL     1      16.615 -11.409  31.431  0.00  0.00    +0.000 N 
ATOM     15  C   UNL     1      17.087 -11.578  30.133  0.00  0.00    +0.000 C 
ATOM     16  O   UNL     1      17.677 -12.729  29.953  0.00  0.00    +0.000 OA
BRANCH  14  18
ATOM     17  C   UNL     1      14.392 -10.735  32.156  0.00  0.00    +0.000 C 
ATOM     18  C   UNL     1      15.869 -10.344  32.045  0.00  0.00    +0.000 C 
ENDBRANCH  14  18
BRANCH  14  19
ATOM     19  C   UNL     1      16.902 -12.502  32.443  0.00  0.00    +0.000 C 
ATOM     20  C   UNL     1      17.814 -11.958  33.502  0.00  0.00    +0.000 C 
ENDBRANCH  14  19
ENDBRANCH   1  15
TORSDOF 4
ENDMDL
