MODEL 1
REMARK VINA RESULT:      -8.1      0.000      0.000
REMARK  Name = 
REMARK  8 active torsions:
REMARK  status: ('A' for Active; 'I' for Inactive)
REMARK    1  A    between atoms: C_7  and  S_8
REMARK    2  A    between atoms: S_8  and  C_9
REMARK    3  A    between atoms: C_9  and  C_10
REMARK    4  A    between atoms: C_10  and  O_12
REMARK    5  A    between atoms: O_12  and  C_13
REMARK    6  A    between atoms: C_13  and  C_15
REMARK    7  A    between atoms: N_17  and  C_18
REMARK    8  A    between atoms: C_23  and  C_24
REMARK                            x       y       z     vdW  Elec       q    Type
REMARK                         _______ _______ _______ _____ _____    ______ ____
ROOT
ATOM      1  C   UNL     1      36.185  -0.235  16.507  0.00  0.00    +0.000 C 
ATOM      2  O   UNL     1      35.266  -0.997  16.713  0.00  0.00    +0.000 OA
ATOM      3  N   UNL     1      37.438  -0.515  17.021  0.00  0.00    +0.000 NA
ENDROOT
BRANCH   3   4
ATOM      4  C   UNL     1      37.833  -1.627  17.802  0.00  0.00    +0.000 A 
ATOM      5  C   UNL     1      37.687  -1.707  19.169  0.00  0.00    +0.000 A 
ATOM      6  C   UNL     1      38.068  -2.787  19.938  0.00  0.00    +0.000 A 
ATOM      7  C   UNL     1      38.640  -3.879  19.320  0.00  0.00    +0.000 A 
ATOM      8  C   UNL     1      38.806  -3.847  17.954  0.00  0.00    +0.000 A 
ATOM      9  C   UNL     1      38.407  -2.737  17.224  0.00  0.00    +0.000 A 
BRANCH   9  10
ATOM     10  C   UNL     1      38.593  -2.728  15.774  0.00  0.00    +0.000 A 
ATOM     11  C   UNL     1      37.642  -3.221  14.918  0.00  0.00    +0.000 A 
ATOM     12  C   UNL     1      37.818  -3.211  13.544  0.00  0.00    +0.000 A 
ATOM     13  C   UNL     1      39.005  -2.683  13.026  0.00  0.00    +0.000 A 
ATOM     14  C   UNL     1      39.946  -2.195  13.895  0.00  0.00    +0.000 A 
ATOM     15  C   UNL     1      39.748  -2.215  15.242  0.00  0.00    +0.000 A 
ENDBRANCH   9  10
ENDBRANCH   3   4
BRANCH   1  16
ATOM     16  C   UNL     1      35.998   1.103  15.648  0.00  0.00    +0.000 C 
ATOM     17  C   UNL     1      36.953   0.564  14.389  0.00  0.00    +0.000 C 
BRANCH  16  18
ATOM     18  O   UNL     1      37.153   1.896  16.308  0.00  0.00    +0.000 OA
BRANCH  18  19
ATOM     19  C   UNL     1      37.165   3.186  15.791  0.00  0.00    +0.000 C 
ATOM     20  O   UNL     1      36.158   3.803  15.383  0.00  0.00    +0.000 OA
BRANCH  19  21
ATOM     21  C   UNL     1      38.490   3.854  15.733  0.00  0.00    +0.000 C 
BRANCH  21  22
ATOM     22  S   UNL     1      38.358   5.568  16.273  0.00  0.00    +0.000 S 
BRANCH  22  29
ATOM     23  C   UNL     1      41.328   6.247  15.597  0.00  0.00    +0.000 C 
ATOM     24  C   UNL     1      40.895   6.236  17.043  0.00  0.00    +0.000 A 
ATOM     25  C   UNL     1      41.881   6.510  17.976  0.00  0.00    +0.000 A 
ATOM     26  C   UNL     1      41.584   6.497  19.315  0.00  0.00    +0.000 A 
ATOM     27  C   UNL     1      40.299   6.210  19.777  0.00  0.00    +0.000 A 
ATOM     28  C   UNL     1      39.365   5.949  18.826  0.00  0.00    +0.000 A 
ATOM     29  C   UNL     1      39.621   5.952  17.449  0.00  0.00    +0.000 A 
ENDBRANCH  22  29
ENDBRANCH  21  22
ENDBRANCH  19  21
ENDBRANCH  18  19
ENDBRANCH  16  18
ENDBRANCH   1  16
TORSDOF 8
ENDMDL
MODEL 2
REMARK VINA RESULT:      -7.9      1.913      2.472
REMARK  Name = 
REMARK  8 active torsions:
REMARK  status: ('A' for Active; 'I' for Inactive)
REMARK    1  A    between atoms: C_7  and  S_8
REMARK    2  A    between atoms: S_8  and  C_9
REMARK    3  A    between atoms: C_9  and  C_10
REMARK    4  A    between atoms: C_10  and  O_12
REMARK    5  A    between atoms: O_12  and  C_13
REMARK    6  A    between atoms: C_13  and  C_15
REMARK    7  A    between atoms: N_17  and  C_18
REMARK    8  A    between atoms: C_23  and  C_24
REMARK                            x       y       z     vdW  Elec       q    Type
REMARK                         _______ _______ _______ _____ _____    ______ ____
ROOT
ATOM      1  C   UNL     1      37.241   1.666  14.669  0.00  0.00    +0.000 C 
ATOM      2  O   UNL     1      36.249   1.650  13.974  0.00  0.00    +0.000 OA
ATOM      3  N   UNL     1      37.341   0.799  15.742  0.00  0.00    +0.000 NA
ENDROOT
BRANCH   3   4
ATOM      4  C   UNL     1      36.401  -0.164  16.178  0.00  0.00    +0.000 A 
ATOM      5  C   UNL     1      35.241   0.136  16.857  0.00  0.00    +0.000 A 
ATOM      6  C   UNL     1      34.317  -0.795  17.285  0.00  0.00    +0.000 A 
ATOM      7  C   UNL     1      34.546  -2.131  17.027  0.00  0.00    +0.000 A 
ATOM      8  C   UNL     1      35.692  -2.480  16.349  0.00  0.00    +0.000 A 
ATOM      9  C   UNL     1      36.591  -1.507  15.940  0.00  0.00    +0.000 A 
BRANCH   9  10
ATOM     10  C   UNL     1      37.799  -1.905  15.221  0.00  0.00    +0.000 A 
ATOM     11  C   UNL     1      37.808  -2.086  13.862  0.00  0.00    +0.000 A 
ATOM     12  C   UNL     1      38.954  -2.461  13.180  0.00  0.00    +0.000 A 
ATOM     13  C   UNL     1      40.130  -2.660  13.909  0.00  0.00    +0.000 A 
ATOM     14  C   UNL     1      40.106  -2.475  15.267  0.00  0.00    +0.000 A 
ATOM     15  C   UNL     1      38.966  -2.105  15.913  0.00  0.00    +0.000 A 
ENDBRANCH   9  10
ENDBRANCH   3   4
BRANCH   1  16
ATOM     16  C   UNL     1      38.457   2.668  14.387  0.00  0.00    +0.000 C 
ATOM     17  C   UNL     1      39.594   1.448  14.308  0.00  0.00    +0.000 C 
BRANCH  16  18
ATOM     18  O   UNL     1      38.766   2.988  15.870  0.00  0.00    +0.000 OA
BRANCH  18  19
ATOM     19  C   UNL     1      38.259   4.246  16.173  0.00  0.00    +0.000 C 
ATOM     20  O   UNL     1      37.884   5.089  15.331  0.00  0.00    +0.000 OA
BRANCH  19  21
ATOM     21  C   UNL     1      38.169   4.584  17.617  0.00  0.00    +0.000 C 
BRANCH  21  22
ATOM     22  S   UNL     1      38.602   6.311  17.891  0.00  0.00    +0.000 S 
BRANCH  22  29
ATOM     23  C   UNL     1      41.239   6.383  16.223  0.00  0.00    +0.000 C 
ATOM     24  C   UNL     1      41.326   6.472  17.727  0.00  0.00    +0.000 A 
ATOM     25  C   UNL     1      42.602   6.554  18.259  0.00  0.00    +0.000 A 
ATOM     26  C   UNL     1      42.779   6.613  19.618  0.00  0.00    +0.000 A 
ATOM     27  C   UNL     1      41.697   6.591  20.498  0.00  0.00    +0.000 A 
ATOM     28  C   UNL     1      40.465   6.510  19.932  0.00  0.00    +0.000 A 
ATOM     29  C   UNL     1      40.235   6.449  18.551  0.00  0.00    +0.000 A 
ENDBRANCH  22  29
ENDBRANCH  21  22
ENDBRANCH  19  21
ENDBRANCH  18  19
ENDBRANCH  16  18
ENDBRANCH   1  16
TORSDOF 8
ENDMDL
MODEL 3
REMARK VINA RESULT:      -7.9      2.130      3.016
REMARK  Name = 
REMARK  8 active torsions:
REMARK  status: ('A' for Active; 'I' for Inactive)
REMARK    1  A    between atoms: C_7  and  S_8
REMARK    2  A    between atoms: S_8  and  C_9
REMARK    3  A    between atoms: C_9  and  C_10
REMARK    4  A    between atoms: C_10  and  O_12
REMARK    5  A    between atoms: O_12  and  C_13
REMARK    6  A    between atoms: C_13  and  C_15
REMARK    7  A    between atoms: N_17  and  C_18
REMARK    8  A    between atoms: C_23  and  C_24
REMARK                            x       y       z     vdW  Elec       q    Type
REMARK                         _______ _______ _______ _____ _____    ______ ____
ROOT
ATOM      1  C   UNL     1      37.367   1.266  14.509  0.00  0.00    +0.000 C 
ATOM      2  O   UNL     1      36.475   1.088  13.709  0.00  0.00    +0.000 OA
ATOM      3  N   UNL     1      37.409   0.516  15.670  0.00  0.00    +0.000 NA
ENDROOT
BRANCH   3   4
ATOM      4  C   UNL     1      36.509  -0.491  16.092  0.00  0.00    +0.000 A 
ATOM      5  C   UNL     1      35.327  -0.249  16.754  0.00  0.00    +0.000 A 
ATOM      6  C   UNL     1      34.443  -1.223  17.168  0.00  0.00    +0.000 A 
ATOM      7  C   UNL     1      34.739  -2.546  16.913  0.00  0.00    +0.000 A 
ATOM      8  C   UNL     1      35.911  -2.839  16.252  0.00  0.00    +0.000 A 
ATOM      9  C   UNL     1      36.767  -1.824  15.857  0.00  0.00    +0.000 A 
BRANCH   9  10
ATOM     10  C   UNL     1      38.004  -2.162  15.154  0.00  0.00    +0.000 A 
ATOM     11  C   UNL     1      39.200  -2.291  15.812  0.00  0.00    +0.000 A 
ATOM     12  C   UNL     1      40.371  -2.612  15.147  0.00  0.00    +0.000 A 
ATOM     13  C   UNL     1      40.321  -2.807  13.763  0.00  0.00    +0.000 A 
ATOM     14  C   UNL     1      39.119  -2.675  13.119  0.00  0.00    +0.000 A 
ATOM     15  C   UNL     1      37.981  -2.358  13.797  0.00  0.00    +0.000 A 
ENDBRANCH   9  10
ENDBRANCH   3   4
BRANCH   1  16
ATOM     16  C   UNL     1      38.516   2.354  14.266  0.00  0.00    +0.000 C 
ATOM     17  C   UNL     1      39.749   1.229  14.310  0.00  0.00    +0.000 C 
BRANCH  16  18
ATOM     18  O   UNL     1      38.698   2.749  15.753  0.00  0.00    +0.000 OA
BRANCH  18  19
ATOM     19  C   UNL     1      38.199   4.032  15.940  0.00  0.00    +0.000 C 
ATOM     20  O   UNL     1      37.613   4.707  15.068  0.00  0.00    +0.000 OA
BRANCH  19  21
ATOM     21  C   UNL     1      38.392   4.617  17.292  0.00  0.00    +0.000 C 
BRANCH  21  22
ATOM     22  S   UNL     1      39.209   6.219  17.177  0.00  0.00    +0.000 S 
BRANCH  22  29
ATOM     23  C   UNL     1      40.528   6.375  20.000  0.00  0.00    +0.000 C 
ATOM     24  C   UNL     1      39.349   7.267  19.698  0.00  0.00    +0.000 A 
ATOM     25  C   UNL     1      38.922   8.084  20.731  0.00  0.00    +0.000 A 
ATOM     26  C   UNL     1      37.841   8.909  20.555  0.00  0.00    +0.000 A 
ATOM     27  C   UNL     1      37.144   8.953  19.348  0.00  0.00    +0.000 A 
ATOM     28  C   UNL     1      37.598   8.137  18.362  0.00  0.00    +0.000 A 
ATOM     29  C   UNL     1      38.698   7.278  18.495  0.00  0.00    +0.000 A 
ENDBRANCH  22  29
ENDBRANCH  21  22
ENDBRANCH  19  21
ENDBRANCH  18  19
ENDBRANCH  16  18
ENDBRANCH   1  16
TORSDOF 8
ENDMDL
MODEL 4
REMARK VINA RESULT:      -7.6      1.614      2.134
REMARK  Name = 
REMARK  8 active torsions:
REMARK  status: ('A' for Active; 'I' for Inactive)
REMARK    1  A    between atoms: C_7  and  S_8
REMARK    2  A    between atoms: S_8  and  C_9
REMARK    3  A    between atoms: C_9  and  C_10
REMARK    4  A    between atoms: C_10  and  O_12
REMARK    5  A    between atoms: O_12  and  C_13
REMARK    6  A    between atoms: C_13  and  C_15
REMARK    7  A    between atoms: N_17  and  C_18
REMARK    8  A    between atoms: C_23  and  C_24
REMARK                            x       y       z     vdW  Elec       q    Type
REMARK                         _______ _______ _______ _____ _____    ______ ____
ROOT
ATOM      1  C   UNL     1      36.440   1.011  15.926  0.00  0.00    +0.000 C 
ATOM      2  O   UNL     1      37.095   1.704  16.672  0.00  0.00    +0.000 OA
ATOM      3  N   UNL     1      36.370  -0.354  16.139  0.00  0.00    +0.000 NA
ENDROOT
BRANCH   3   4
ATOM      4  C   UNL     1      36.987  -1.111  17.162  0.00  0.00    +0.000 A 
ATOM      5  C   UNL     1      36.606  -1.084  18.485  0.00  0.00    +0.000 A 
ATOM      6  C   UNL     1      37.201  -1.819  19.490  0.00  0.00    +0.000 A 
ATOM      7  C   UNL     1      38.257  -2.649  19.175  0.00  0.00    +0.000 A 
ATOM      8  C   UNL     1      38.674  -2.710  17.864  0.00  0.00    +0.000 A 
ATOM      9  C   UNL     1      38.044  -1.951  16.891  0.00  0.00    +0.000 A 
BRANCH   9  10
ATOM     10  C   UNL     1      38.505  -2.036  15.506  0.00  0.00    +0.000 A 
ATOM     11  C   UNL     1      39.523  -1.250  15.030  0.00  0.00    +0.000 A 
ATOM     12  C   UNL     1      39.960  -1.331  13.719  0.00  0.00    +0.000 A 
ATOM     13  C   UNL     1      39.337  -2.244  12.863  0.00  0.00    +0.000 A 
ATOM     14  C   UNL     1      38.321  -3.023  13.352  0.00  0.00    +0.000 A 
ATOM     15  C   UNL     1      37.910  -2.924  14.646  0.00  0.00    +0.000 A 
ENDBRANCH   9  10
ENDBRANCH   3   4
BRANCH   1  16
ATOM     16  C   UNL     1      35.640   1.628  14.683  0.00  0.00    +0.000 C 
ATOM     17  C   UNL     1      36.590   0.859  13.545  0.00  0.00    +0.000 C 
BRANCH  16  18
ATOM     18  O   UNL     1      36.444   2.949  14.598  0.00  0.00    +0.000 OA
BRANCH  18  19
ATOM     19  C   UNL     1      35.560   4.018  14.680  0.00  0.00    +0.000 C 
ATOM     20  O   UNL     1      34.361   3.931  15.020  0.00  0.00    +0.000 OA
BRANCH  19  21
ATOM     21  C   UNL     1      36.113   5.351  14.330  0.00  0.00    +0.000 C 
BRANCH  21  22
ATOM     22  S   UNL     1      37.897   5.382  14.586  0.00  0.00    +0.000 S 
BRANCH  22  29
ATOM     23  C   UNL     1      37.789   8.201  15.921  0.00  0.00    +0.000 C 
ATOM     24  C   UNL     1      38.199   7.014  16.759  0.00  0.00    +0.000 A 
ATOM     25  C   UNL     1      38.527   7.283  18.077  0.00  0.00    +0.000 A 
ATOM     26  C   UNL     1      38.936   6.269  18.905  0.00  0.00    +0.000 A 
ATOM     27  C   UNL     1      39.035   4.953  18.456  0.00  0.00    +0.000 A 
ATOM     28  C   UNL     1      38.704   4.735  17.157  0.00  0.00    +0.000 A 
ATOM     29  C   UNL     1      38.280   5.738  16.274  0.00  0.00    +0.000 A 
ENDBRANCH  22  29
ENDBRANCH  21  22
ENDBRANCH  19  21
ENDBRANCH  18  19
ENDBRANCH  16  18
ENDBRANCH   1  16
TORSDOF 8
ENDMDL
MODEL 5
REMARK VINA RESULT:      -7.4      2.082      3.701
REMARK  Name = 
REMARK  8 active torsions:
REMARK  status: ('A' for Active; 'I' for Inactive)
REMARK    1  A    between atoms: C_7  and  S_8
REMARK    2  A    between atoms: S_8  and  C_9
REMARK    3  A    between atoms: C_9  and  C_10
REMARK    4  A    between atoms: C_10  and  O_12
REMARK    5  A    between atoms: O_12  and  C_13
REMARK    6  A    between atoms: C_13  and  C_15
REMARK    7  A    between atoms: N_17  and  C_18
REMARK    8  A    between atoms: C_23  and  C_24
REMARK                            x       y       z     vdW  Elec       q    Type
REMARK                         _______ _______ _______ _____ _____    ______ ____
ROOT
ATOM      1  C   UNL     1      37.892   1.081  14.148  0.00  0.00    +0.000 C 
ATOM      2  O   UNL     1      37.876   0.458  13.109  0.00  0.00    +0.000 OA
ATOM      3  N   UNL     1      38.432   0.508  15.284  0.00  0.00    +0.000 NA
ENDROOT
BRANCH   3   4
ATOM      4  C   UNL     1      39.005  -0.778  15.426  0.00  0.00    +0.000 A 
ATOM      5  C   UNL     1      40.155  -1.190  14.790  0.00  0.00    +0.000 A 
ATOM      6  C   UNL     1      40.722  -2.441  14.923  0.00  0.00    +0.000 A 
ATOM      7  C   UNL     1      40.115  -3.366  15.745  0.00  0.00    +0.000 A 
ATOM      8  C   UNL     1      38.962  -3.000  16.404  0.00  0.00    +0.000 A 
ATOM      9  C   UNL     1      38.431  -1.731  16.237  0.00  0.00    +0.000 A 
BRANCH   9  10
ATOM     10  C   UNL     1      37.207  -1.367  16.949  0.00  0.00    +0.000 A 
ATOM     11  C   UNL     1      35.990  -1.310  16.319  0.00  0.00    +0.000 A 
ATOM     12  C   UNL     1      34.831  -0.967  16.994  0.00  0.00    +0.000 A 
ATOM     13  C   UNL     1      34.915  -0.670  18.358  0.00  0.00    +0.000 A 
ATOM     14  C   UNL     1      36.138  -0.732  18.974  0.00  0.00    +0.000 A 
ATOM     15  C   UNL     1      37.263  -1.073  18.287  0.00  0.00    +0.000 A 
ENDBRANCH   9  10
ENDBRANCH   3   4
BRANCH   1  16
ATOM     16  C   UNL     1      37.301   2.565  14.253  0.00  0.00    +0.000 C 
ATOM     17  C   UNL     1      38.131   3.113  12.911  0.00  0.00    +0.000 C 
BRANCH  16  18
ATOM     18  O   UNL     1      38.362   3.104  15.244  0.00  0.00    +0.000 OA
BRANCH  18  19
ATOM     19  C   UNL     1      37.852   4.231  15.878  0.00  0.00    +0.000 C 
ATOM     20  O   UNL     1      36.976   4.985  15.404  0.00  0.00    +0.000 OA
BRANCH  19  21
ATOM     21  C   UNL     1      38.412   4.535  17.220  0.00  0.00    +0.000 C 
BRANCH  21  22
ATOM     22  S   UNL     1      39.314   6.095  17.190  0.00  0.00    +0.000 S 
BRANCH  22  29
ATOM     23  C   UNL     1      40.574   6.362  20.032  0.00  0.00    +0.000 C 
ATOM     24  C   UNL     1      39.374   7.210  19.685  0.00  0.00    +0.000 A 
ATOM     25  C   UNL     1      38.903   8.038  20.690  0.00  0.00    +0.000 A 
ATOM     26  C   UNL     1      37.801   8.825  20.472  0.00  0.00    +0.000 A 
ATOM     27  C   UNL     1      37.125   8.818  19.252  0.00  0.00    +0.000 A 
ATOM     28  C   UNL     1      37.623   7.991  18.296  0.00  0.00    +0.000 A 
ATOM     29  C   UNL     1      38.746   7.171  18.471  0.00  0.00    +0.000 A 
ENDBRANCH  22  29
ENDBRANCH  21  22
ENDBRANCH  19  21
ENDBRANCH  18  19
ENDBRANCH  16  18
ENDBRANCH   1  16
TORSDOF 8
ENDMDL
MODEL 6
REMARK VINA RESULT:      -7.3      1.641      2.250
REMARK  Name = 
REMARK  8 active torsions:
REMARK  status: ('A' for Active; 'I' for Inactive)
REMARK    1  A    between atoms: C_7  and  S_8
REMARK    2  A    between atoms: S_8  and  C_9
REMARK    3  A    between atoms: C_9  and  C_10
REMARK    4  A    between atoms: C_10  and  O_12
REMARK    5  A    between atoms: O_12  and  C_13
REMARK    6  A    between atoms: C_13  and  C_15
REMARK    7  A    between atoms: N_17  and  C_18
REMARK    8  A    between atoms: C_23  and  C_24
REMARK                            x       y       z     vdW  Elec       q    Type
REMARK                         _______ _______ _______ _____ _____    ______ ____
ROOT
ATOM      1  C   UNL     1      37.150   1.872  15.290  0.00  0.00    +0.000 C 
ATOM      2  O   UNL     1      37.868   2.394  16.114  0.00  0.00    +0.000 OA
ATOM      3  N   UNL     1      36.437   0.734  15.622  0.00  0.00    +0.000 NA
ENDROOT
BRANCH   3   4
ATOM      4  C   UNL     1      36.420   0.044  16.857  0.00  0.00    +0.000 A 
ATOM      5  C   UNL     1      35.767   0.488  17.986  0.00  0.00    +0.000 A 
ATOM      6  C   UNL     1      35.744  -0.178  19.194  0.00  0.00    +0.000 A 
ATOM      7  C   UNL     1      36.414  -1.378  19.309  0.00  0.00    +0.000 A 
ATOM      8  C   UNL     1      37.082  -1.863  18.207  0.00  0.00    +0.000 A 
ATOM      9  C   UNL     1      37.077  -1.156  17.015  0.00  0.00    +0.000 A 
BRANCH   9  10
ATOM     10  C   UNL     1      37.792  -1.695  15.859  0.00  0.00    +0.000 A 
ATOM     11  C   UNL     1      37.161  -2.440  14.897  0.00  0.00    +0.000 A 
ATOM     12  C   UNL     1      37.838  -2.949  13.802  0.00  0.00    +0.000 A 
ATOM     13  C   UNL     1      39.207  -2.690  13.684  0.00  0.00    +0.000 A 
ATOM     14  C   UNL     1      39.825  -1.944  14.654  0.00  0.00    +0.000 A 
ATOM     15  C   UNL     1      39.136  -1.455  15.721  0.00  0.00    +0.000 A 
ENDBRANCH   9  10
ENDBRANCH   3   4
BRANCH   1  16
ATOM     16  C   UNL     1      36.993   2.460  13.809  0.00  0.00    +0.000 C 
ATOM     17  C   UNL     1      36.813   0.956  13.108  0.00  0.00    +0.000 C 
BRANCH  16  18
ATOM     18  O   UNL     1      38.507   2.531  13.490  0.00  0.00    +0.000 OA
BRANCH  18  19
ATOM     19  C   UNL     1      38.856   3.856  13.259  0.00  0.00    +0.000 C 
ATOM     20  O   UNL     1      38.290   4.614  12.442  0.00  0.00    +0.000 OA
BRANCH  19  21
ATOM     21  C   UNL     1      39.991   4.382  14.059  0.00  0.00    +0.000 C 
BRANCH  21  22
ATOM     22  S   UNL     1      39.581   5.992  14.757  0.00  0.00    +0.000 S 
BRANCH  22  29
ATOM     23  C   UNL     1      42.296   6.692  16.127  0.00  0.00    +0.000 C 
ATOM     24  C   UNL     1      41.113   6.336  16.995  0.00  0.00    +0.000 A 
ATOM     25  C   UNL     1      41.341   6.325  18.360  0.00  0.00    +0.000 A 
ATOM     26  C   UNL     1      40.331   5.988  19.224  0.00  0.00    +0.000 A 
ATOM     27  C   UNL     1      39.058   5.650  18.765  0.00  0.00    +0.000 A 
ATOM     28  C   UNL     1      38.879   5.676  17.418  0.00  0.00    +0.000 A 
ATOM     29  C   UNL     1      39.881   6.014  16.498  0.00  0.00    +0.000 A 
ENDBRANCH  22  29
ENDBRANCH  21  22
ENDBRANCH  19  21
ENDBRANCH  18  19
ENDBRANCH  16  18
ENDBRANCH   1  16
TORSDOF 8
ENDMDL
MODEL 7
REMARK VINA RESULT:      -7.2      3.811      5.583
REMARK  Name = 
REMARK  8 active torsions:
REMARK  status: ('A' for Active; 'I' for Inactive)
REMARK    1  A    between atoms: C_7  and  S_8
REMARK    2  A    between atoms: S_8  and  C_9
REMARK    3  A    between atoms: C_9  and  C_10
REMARK    4  A    between atoms: C_10  and  O_12
REMARK    5  A    between atoms: O_12  and  C_13
REMARK    6  A    between atoms: C_13  and  C_15
REMARK    7  A    between atoms: N_17  and  C_18
REMARK    8  A    between atoms: C_23  and  C_24
REMARK                            x       y       z     vdW  Elec       q    Type
REMARK                         _______ _______ _______ _____ _____    ______ ____
ROOT
ATOM      1  C   UNL     1      37.779  -2.072  14.468  0.00  0.00    +0.000 C 
ATOM      2  O   UNL     1      37.143  -1.535  13.588  0.00  0.00    +0.000 OA
ATOM      3  N   UNL     1      37.161  -2.981  15.306  0.00  0.00    +0.000 NA
ENDROOT
BRANCH   3   4
ATOM      4  C   UNL     1      35.811  -3.405  15.290  0.00  0.00    +0.000 A 
ATOM      5  C   UNL     1      35.305  -4.351  14.427  0.00  0.00    +0.000 A 
ATOM      6  C   UNL     1      33.991  -4.773  14.404  0.00  0.00    +0.000 A 
ATOM      7  C   UNL     1      33.098  -4.224  15.301  0.00  0.00    +0.000 A 
ATOM      8  C   UNL     1      33.557  -3.274  16.185  0.00  0.00    +0.000 A 
ATOM      9  C   UNL     1      34.887  -2.883  16.168  0.00  0.00    +0.000 A 
BRANCH   9  10
ATOM     10  C   UNL     1      35.350  -1.874  17.119  0.00  0.00    +0.000 A 
ATOM     11  C   UNL     1      36.229  -2.176  18.127  0.00  0.00    +0.000 A 
ATOM     12  C   UNL     1      36.668  -1.220  19.027  0.00  0.00    +0.000 A 
ATOM     13  C   UNL     1      36.194   0.089  18.896  0.00  0.00    +0.000 A 
ATOM     14  C   UNL     1      35.315   0.376  17.884  0.00  0.00    +0.000 A 
ATOM     15  C   UNL     1      34.899  -0.583  17.011  0.00  0.00    +0.000 A 
ENDBRANCH   9  10
ENDBRANCH   3   4
BRANCH   1  16
ATOM     16  C   UNL     1      39.333  -1.762  14.698  0.00  0.00    +0.000 C 
ATOM     17  C   UNL     1      39.359  -2.441  16.223  0.00  0.00    +0.000 C 
BRANCH  16  18
ATOM     18  O   UNL     1      39.144  -0.323  15.240  0.00  0.00    +0.000 OA
BRANCH  18  19
ATOM     19  C   UNL     1      39.879   0.554  14.451  0.00  0.00    +0.000 C 
ATOM     20  O   UNL     1      41.112   0.484  14.260  0.00  0.00    +0.000 OA
BRANCH  19  21
ATOM     21  C   UNL     1      39.111   1.646  13.799  0.00  0.00    +0.000 C 
BRANCH  21  22
ATOM     22  S   UNL     1      37.517   1.868  14.609  0.00  0.00    +0.000 S 
BRANCH  22  29
ATOM     23  C   UNL     1      34.822   3.015  15.685  0.00  0.00    +0.000 C 
ATOM     24  C   UNL     1      35.554   3.771  14.602  0.00  0.00    +0.000 A 
ATOM     25  C   UNL     1      34.943   4.927  14.146  0.00  0.00    +0.000 A 
ATOM     26  C   UNL     1      35.524   5.664  13.147  0.00  0.00    +0.000 A 
ATOM     27  C   UNL     1      36.732   5.281  12.562  0.00  0.00    +0.000 A 
ATOM     28  C   UNL     1      37.295   4.142  13.042  0.00  0.00    +0.000 A 
ATOM     29  C   UNL     1      36.740   3.357  14.061  0.00  0.00    +0.000 A 
ENDBRANCH  22  29
ENDBRANCH  21  22
ENDBRANCH  19  21
ENDBRANCH  18  19
ENDBRANCH  16  18
ENDBRANCH   1  16
TORSDOF 8
ENDMDL
MODEL 8
REMARK VINA RESULT:      -7.1      2.526      3.047
REMARK  Name = 
REMARK  8 active torsions:
REMARK  status: ('A' for Active; 'I' for Inactive)
REMARK    1  A    between atoms: C_7  and  S_8
REMARK    2  A    between atoms: S_8  and  C_9
REMARK    3  A    between atoms: C_9  and  C_10
REMARK    4  A    between atoms: C_10  and  O_12
REMARK    5  A    between atoms: O_12  and  C_13
REMARK    6  A    between atoms: C_13  and  C_15
REMARK    7  A    between atoms: N_17  and  C_18
REMARK    8  A    between atoms: C_23  and  C_24
REMARK                            x       y       z     vdW  Elec       q    Type
REMARK                         _______ _______ _______ _____ _____    ______ ____
ROOT
ATOM      1  C   UNL     1      35.776   2.820  15.215  0.00  0.00    +0.000 C 
ATOM      2  O   UNL     1      34.718   2.629  14.658  0.00  0.00    +0.000 OA
ATOM      3  N   UNL     1      36.353   1.807  15.960  0.00  0.00    +0.000 NA
ENDROOT
BRANCH   3   4
ATOM      4  C   UNL     1      35.861   0.499  16.183  0.00  0.00    +0.000 A 
ATOM      5  C   UNL     1      34.856   0.188  17.071  0.00  0.00    +0.000 A 
ATOM      6  C   UNL     1      34.369  -1.083  17.295  0.00  0.00    +0.000 A 
ATOM      7  C   UNL     1      34.910  -2.139  16.592  0.00  0.00    +0.000 A 
ATOM      8  C   UNL     1      35.918  -1.879  15.691  0.00  0.00    +0.000 A 
ATOM      9  C   UNL     1      36.374  -0.583  15.502  0.00  0.00    +0.000 A 
BRANCH   9  10
ATOM     10  C   UNL     1      37.444  -0.333  14.538  0.00  0.00    +0.000 A 
ATOM     11  C   UNL     1      37.184  -0.043  13.224  0.00  0.00    +0.000 A 
ATOM     12  C   UNL     1      38.198   0.194  12.311  0.00  0.00    +0.000 A 
ATOM     13  C   UNL     1      39.523   0.133  12.754  0.00  0.00    +0.000 A 
ATOM     14  C   UNL     1      39.768  -0.157  14.071  0.00  0.00    +0.000 A 
ATOM     15  C   UNL     1      38.752  -0.387  14.948  0.00  0.00    +0.000 A 
ENDBRANCH   9  10
ENDBRANCH   3   4
BRANCH   1  16
ATOM     16  C   UNL     1      36.542   4.222  15.120  0.00  0.00    +0.000 C 
ATOM     17  C   UNL     1      35.284   4.985  14.330  0.00  0.00    +0.000 C 
BRANCH  16  18
ATOM     18  O   UNL     1      37.303   3.915  13.806  0.00  0.00    +0.000 OA
BRANCH  18  19
ATOM     19  C   UNL     1      38.667   3.891  14.073  0.00  0.00    +0.000 C 
ATOM     20  O   UNL     1      39.559   3.669  13.227  0.00  0.00    +0.000 OA
BRANCH  19  21
ATOM     21  C   UNL     1      39.062   4.154  15.481  0.00  0.00    +0.000 C 
BRANCH  21  22
ATOM     22  S   UNL     1      40.004   5.685  15.598  0.00  0.00    +0.000 S 
BRANCH  22  29
ATOM     23  C   UNL     1      42.766   6.561  16.757  0.00  0.00    +0.000 C 
ATOM     24  C   UNL     1      41.583   6.464  17.690  0.00  0.00    +0.000 A 
ATOM     25  C   UNL     1      41.831   6.755  19.021  0.00  0.00    +0.000 A 
ATOM     26  C   UNL     1      40.821   6.668  19.944  0.00  0.00    +0.000 A 
ATOM     27  C   UNL     1      39.528   6.289  19.581  0.00  0.00    +0.000 A 
ATOM     28  C   UNL     1      39.331   6.015  18.265  0.00  0.00    +0.000 A 
ATOM     29  C   UNL     1      40.331   6.091  17.287  0.00  0.00    +0.000 A 
ENDBRANCH  22  29
ENDBRANCH  21  22
ENDBRANCH  19  21
ENDBRANCH  18  19
ENDBRANCH  16  18
ENDBRANCH   1  16
TORSDOF 8
ENDMDL
MODEL 9
REMARK VINA RESULT:      -7.1      1.837      3.787
REMARK  Name = 
REMARK  8 active torsions:
REMARK  status: ('A' for Active; 'I' for Inactive)
REMARK    1  A    between atoms: C_7  and  S_8
REMARK    2  A    between atoms: S_8  and  C_9
REMARK    3  A    between atoms: C_9  and  C_10
REMARK    4  A    between atoms: C_10  and  O_12
REMARK    5  A    between atoms: O_12  and  C_13
REMARK    6  A    between atoms: C_13  and  C_15
REMARK    7  A    between atoms: N_17  and  C_18
REMARK    8  A    between atoms: C_23  and  C_24
REMARK                            x       y       z     vdW  Elec       q    Type
REMARK                         _______ _______ _______ _____ _____    ______ ____
ROOT
ATOM      1  C   UNL     1      37.645  -0.014  13.949  0.00  0.00    +0.000 C 
ATOM      2  O   UNL     1      36.705   0.011  13.186  0.00  0.00    +0.000 OA
ATOM      3  N   UNL     1      37.809  -1.090  14.802  0.00  0.00    +0.000 NA
ENDROOT
BRANCH   3   4
ATOM      4  C   UNL     1      36.992  -2.239  14.926  0.00  0.00    +0.000 A 
ATOM      5  C   UNL     1      37.000  -3.296  14.043  0.00  0.00    +0.000 A 
ATOM      6  C   UNL     1      36.209  -4.421  14.155  0.00  0.00    +0.000 A 
ATOM      7  C   UNL     1      35.338  -4.521  15.220  0.00  0.00    +0.000 A 
ATOM      8  C   UNL     1      35.295  -3.489  16.131  0.00  0.00    +0.000 A 
ATOM      9  C   UNL     1      36.110  -2.379  15.973  0.00  0.00    +0.000 A 
BRANCH   9  10
ATOM     10  C   UNL     1      36.046  -1.298  16.956  0.00  0.00    +0.000 A 
ATOM     11  C   UNL     1      35.347  -0.142  16.719  0.00  0.00    +0.000 A 
ATOM     12  C   UNL     1      35.286   0.881  17.650  0.00  0.00    +0.000 A 
ATOM     13  C   UNL     1      35.961   0.720  18.864  0.00  0.00    +0.000 A 
ATOM     14  C   UNL     1      36.655  -0.441  19.087  0.00  0.00    +0.000 A 
ATOM     15  C   UNL     1      36.699  -1.432  18.154  0.00  0.00    +0.000 A 
ENDBRANCH   9  10
ENDBRANCH   3   4
BRANCH   1  16
ATOM     16  C   UNL     1      38.719   1.171  14.006  0.00  0.00    +0.000 C 
ATOM     17  C   UNL     1      39.923   0.203  14.641  0.00  0.00    +0.000 C 
BRANCH  16  18
ATOM     18  O   UNL     1      38.300   1.719  15.393  0.00  0.00    +0.000 OA
BRANCH  18  19
ATOM     19  C   UNL     1      38.100   3.091  15.292  0.00  0.00    +0.000 C 
ATOM     20  O   UNL     1      36.995   3.663  15.396  0.00  0.00    +0.000 OA
BRANCH  19  21
ATOM     21  C   UNL     1      39.313   3.910  15.040  0.00  0.00    +0.000 C 
BRANCH  21  22
ATOM     22  S   UNL     1      39.105   5.570  15.710  0.00  0.00    +0.000 S 
BRANCH  22  29
ATOM     23  C   UNL     1      39.161   5.674  18.829  0.00  0.00    +0.000 C 
ATOM     24  C   UNL     1      40.412   6.035  18.066  0.00  0.00    +0.000 A 
ATOM     25  C   UNL     1      41.502   6.416  18.830  0.00  0.00    +0.000 A 
ATOM     26  C   UNL     1      42.674   6.786  18.221  0.00  0.00    +0.000 A 
ATOM     27  C   UNL     1      42.807   6.792  16.832  0.00  0.00    +0.000 A 
ATOM     28  C   UNL     1      41.713   6.410  16.123  0.00  0.00    +0.000 A 
ATOM     29  C   UNL     1      40.496   6.023  16.701  0.00  0.00    +0.000 A 
ENDBRANCH  22  29
ENDBRANCH  21  22
ENDBRANCH  19  21
ENDBRANCH  18  19
ENDBRANCH  16  18
ENDBRANCH   1  16
TORSDOF 8
ENDMDL
MODEL 10
REMARK VINA RESULT:      -7.1      1.989      3.369
REMARK  Name = 
REMARK  8 active torsions:
REMARK  status: ('A' for Active; 'I' for Inactive)
REMARK    1  A    between atoms: C_7  and  S_8
REMARK    2  A    between atoms: S_8  and  C_9
REMARK    3  A    between atoms: C_9  and  C_10
REMARK    4  A    between atoms: C_10  and  O_12
REMARK    5  A    between atoms: O_12  and  C_13
REMARK    6  A    between atoms: C_13  and  C_15
REMARK    7  A    between atoms: N_17  and  C_18
REMARK    8  A    between atoms: C_23  and  C_24
REMARK                            x       y       z     vdW  Elec       q    Type
REMARK                         _______ _______ _______ _____ _____    ______ ____
ROOT
ATOM      1  C   UNL     1      37.402   1.584  14.497  0.00  0.00    +0.000 C 
ATOM      2  O   UNL     1      37.255   1.140  13.379  0.00  0.00    +0.000 OA
ATOM      3  N   UNL     1      38.305   0.990  15.359  0.00  0.00    +0.000 NA
ENDROOT
BRANCH   3   4
ATOM      4  C   UNL     1      39.137  -0.129  15.117  0.00  0.00    +0.000 A 
ATOM      5  C   UNL     1      40.363  -0.065  14.493  0.00  0.00    +0.000 A 
ATOM      6  C   UNL     1      41.181  -1.150  14.254  0.00  0.00    +0.000 A 
ATOM      7  C   UNL     1      40.767  -2.401  14.658  0.00  0.00    +0.000 A 
ATOM      8  C   UNL     1      39.547  -2.516  15.287  0.00  0.00    +0.000 A 
ATOM      9  C   UNL     1      38.761  -1.396  15.504  0.00  0.00    +0.000 A 
BRANCH   9  10
ATOM     10  C   UNL     1      37.471  -1.545  16.176  0.00  0.00    +0.000 A 
ATOM     11  C   UNL     1      36.322  -1.834  15.486  0.00  0.00    +0.000 A 
ATOM     12  C   UNL     1      35.100  -1.976  16.122  0.00  0.00    +0.000 A 
ATOM     13  C   UNL     1      35.048  -1.817  17.510  0.00  0.00    +0.000 A 
ATOM     14  C   UNL     1      36.205  -1.529  18.187  0.00  0.00    +0.000 A 
ATOM     15  C   UNL     1      37.394  -1.394  17.537  0.00  0.00    +0.000 A 
ENDBRANCH   9  10
ENDBRANCH   3   4
BRANCH   1  16
ATOM     16  C   UNL     1      36.575   2.852  15.019  0.00  0.00    +0.000 C 
ATOM     17  C   UNL     1      35.097   2.214  14.573  0.00  0.00    +0.000 C 
BRANCH  16  18
ATOM     18  O   UNL     1      36.708   3.691  13.724  0.00  0.00    +0.000 OA
BRANCH  18  19
ATOM     19  C   UNL     1      37.063   4.990  14.066  0.00  0.00    +0.000 C 
ATOM     20  O   UNL     1      36.350   5.778  14.722  0.00  0.00    +0.000 OA
BRANCH  19  21
ATOM     21  C   UNL     1      38.399   5.446  13.602  0.00  0.00    +0.000 C 
BRANCH  21  22
ATOM     22  S   UNL     1      39.706   4.614  14.523  0.00  0.00    +0.000 S 
BRANCH  22  29
ATOM     23  C   UNL     1      41.784   6.597  15.742  0.00  0.00    +0.000 C 
ATOM     24  C   UNL     1      40.698   6.043  16.632  0.00  0.00    +0.000 A 
ATOM     25  C   UNL     1      40.728   6.449  17.955  0.00  0.00    +0.000 A 
ATOM     26  C   UNL     1      39.796   5.975  18.842  0.00  0.00    +0.000 A 
ATOM     27  C   UNL     1      38.800   5.081  18.449  0.00  0.00    +0.000 A 
ATOM     28  C   UNL     1      38.808   4.710  17.142  0.00  0.00    +0.000 A 
ATOM     29  C   UNL     1      39.739   5.168  16.200  0.00  0.00    +0.000 A 
ENDBRANCH  22  29
ENDBRANCH  21  22
ENDBRANCH  19  21
ENDBRANCH  18  19
ENDBRANCH  16  18
ENDBRANCH   1  16
TORSDOF 8
ENDMDL
