MODEL 1
REMARK VINA RESULT:      -6.8      0.000      0.000
REMARK  Name = 
REMARK  4 active torsions:
REMARK  status: ('A' for Active; 'I' for Inactive)
REMARK    1  A    between atoms: C_2  and  O_3
REMARK    2  A    between atoms: O_3  and  C_4
REMARK    3  A    between atoms: C_4  and  C_6
REMARK    4  A    between atoms: C_17  and  C_18
REMARK                            x       y       z     vdW  Elec       q    Type
REMARK                         _______ _______ _______ _____ _____    ______ ____
ROOT
ATOM      1  C   UNL     1      16.690  11.265  36.059  0.00  0.00    +0.000 C 
ATOM      2  C   UNL     1      16.823  10.595  34.984  0.00  0.00    +0.000 C 
ATOM      3  N   UNL     1      17.693   9.460  34.970  0.00  0.00    +0.000 NA
ATOM      4  O   UNL     1      16.183  10.878  33.790  0.00  0.00    +0.000 OA
ATOM      5  C   UNL     1      15.348  11.949  33.735  0.00  0.00    +0.000 A 
ATOM      6  C   UNL     1      14.725  12.203  32.495  0.00  0.00    +0.000 A 
ATOM      7  C   UNL     1      13.881  13.276  32.398  0.00  0.00    +0.000 A 
ATOM      8  O   UNL     1      13.225  13.586  31.189  0.00  0.00    +0.000 OA
ATOM      9  C   UNL     1      13.645  14.087  33.476  0.00  0.00    +0.000 A 
ATOM     10  C   UNL     1      14.287  13.799  34.697  0.00  0.00    +0.000 A 
ATOM     11  C   UNL     1      15.138  12.718  34.801  0.00  0.00    +0.000 A 
ATOM     12  C   UNL     1      15.742  12.496  36.208  0.00  0.00    +0.000 C 
ENDROOT
BRANCH  12  13
ATOM     13  C   UNL     1      14.437  11.595  36.732  0.00  0.00    +0.000 C 
ATOM     14  C   UNL     1      13.245  12.445  36.506  0.00  0.00    +0.000 C 
ATOM     15  C   UNL     1      14.720  11.146  38.100  0.00  0.00    +0.000 C 
ENDBRANCH  12  13
BRANCH   1  16
ATOM     16  C   UNL     1      17.402  10.909  37.251  0.00  0.00    +0.000 C 
ATOM     17  O   UNL     1      18.132  11.795  37.821  0.00  0.00    +0.000 OA
BRANCH  16  18
ATOM     18  O   UNL     1      17.399   9.692  37.890  0.00  0.00    +0.000 OA
BRANCH  18  20
ATOM     19  C   UNL     1      17.206   9.482  40.221  0.00  0.00    +0.000 C 
ATOM     20  C   UNL     1      18.134   9.324  39.008  0.00  0.00    +0.000 C 
ENDBRANCH  18  20
ENDBRANCH  16  18
ENDBRANCH   1  16
TORSDOF 4
ENDMDL
MODEL 2
REMARK VINA RESULT:      -6.2     20.074     21.916
REMARK  Name = 
REMARK  4 active torsions:
REMARK  status: ('A' for Active; 'I' for Inactive)
REMARK    1  A    between atoms: C_2  and  O_3
REMARK    2  A    between atoms: O_3  and  C_4
REMARK    3  A    between atoms: C_4  and  C_6
REMARK    4  A    between atoms: C_17  and  C_18
REMARK                            x       y       z     vdW  Elec       q    Type
REMARK                         _______ _______ _______ _____ _____    ______ ____
ROOT
ATOM      1  C   UNL     1      27.827  23.881  22.725  0.00  0.00    +0.000 C 
ATOM      2  C   UNL     1      29.079  23.820  22.499  0.00  0.00    +0.000 C 
ATOM      3  N   UNL     1      29.578  24.203  21.214  0.00  0.00    +0.000 NA
ATOM      4  O   UNL     1      30.029  23.398  23.413  0.00  0.00    +0.000 OA
ATOM      5  C   UNL     1      29.619  23.013  24.649  0.00  0.00    +0.000 A 
ATOM      6  C   UNL     1      30.622  22.582  25.544  0.00  0.00    +0.000 A 
ATOM      7  C   UNL     1      30.248  22.181  26.798  0.00  0.00    +0.000 A 
ATOM      8  O   UNL     1      31.199  21.741  27.740  0.00  0.00    +0.000 OA
ATOM      9  C   UNL     1      28.932  22.193  27.179  0.00  0.00    +0.000 A 
ATOM     10  C   UNL     1      27.961  22.630  26.256  0.00  0.00    +0.000 A 
ATOM     11  C   UNL     1      28.332  23.037  24.992  0.00  0.00    +0.000 A 
ATOM     12  C   UNL     1      27.170  23.529  24.096  0.00  0.00    +0.000 C 
ENDROOT
BRANCH  12  13
ATOM     13  C   UNL     1      27.248  25.089  24.686  0.00  0.00    +0.000 C 
ATOM     14  C   UNL     1      27.914  24.988  26.005  0.00  0.00    +0.000 C 
ATOM     15  C   UNL     1      25.896  25.658  24.634  0.00  0.00    +0.000 C 
ENDBRANCH  12  13
BRANCH   1  16
ATOM     16  C   UNL     1      26.908  24.319  21.716  0.00  0.00    +0.000 C 
ATOM     17  O   UNL     1      26.043  23.488  21.267  0.00  0.00    +0.000 OA
BRANCH  16  18
ATOM     18  O   UNL     1      26.831  25.568  21.146  0.00  0.00    +0.000 OA
BRANCH  18  20
ATOM     19  C   UNL     1      27.112  27.823  20.552  0.00  0.00    +0.000 C 
ATOM     20  C   UNL     1      27.441  26.735  21.584  0.00  0.00    +0.000 C 
ENDBRANCH  18  20
ENDBRANCH  16  18
ENDBRANCH   1  16
TORSDOF 4
ENDMDL
MODEL 3
REMARK VINA RESULT:      -6.0     20.816     22.587
REMARK  Name = 
REMARK  4 active torsions:
REMARK  status: ('A' for Active; 'I' for Inactive)
REMARK    1  A    between atoms: C_2  and  O_3
REMARK    2  A    between atoms: O_3  and  C_4
REMARK    3  A    between atoms: C_4  and  C_6
REMARK    4  A    between atoms: C_17  and  C_18
REMARK                            x       y       z     vdW  Elec       q    Type
REMARK                         _______ _______ _______ _____ _____    ______ ____
ROOT
ATOM      1  C   UNL     1      18.595  -6.986  25.981  0.00  0.00    +0.000 C 
ATOM      2  C   UNL     1      19.246  -5.891  25.976  0.00  0.00    +0.000 C 
ATOM      3  N   UNL     1      18.587  -4.682  26.366  0.00  0.00    +0.000 NA
ATOM      4  O   UNL     1      20.575  -5.761  25.610  0.00  0.00    +0.000 OA
ATOM      5  C   UNL     1      21.256  -6.871  25.222  0.00  0.00    +0.000 A 
ATOM      6  C   UNL     1      22.605  -6.689  24.851  0.00  0.00    +0.000 A 
ATOM      7  C   UNL     1      23.323  -7.782  24.449  0.00  0.00    +0.000 A 
ATOM      8  O   UNL     1      24.675  -7.670  24.066  0.00  0.00    +0.000 OA
ATOM      9  C   UNL     1      22.750  -9.025  24.405  0.00  0.00    +0.000 A 
ATOM     10  C   UNL     1      21.400  -9.165  24.784  0.00  0.00    +0.000 A 
ATOM     11  C   UNL     1      20.672  -8.067  25.191  0.00  0.00    +0.000 A 
ATOM     12  C   UNL     1      19.214  -8.371  25.616  0.00  0.00    +0.000 C 
ENDROOT
BRANCH  12  13
ATOM     13  C   UNL     1      19.648  -8.740  27.186  0.00  0.00    +0.000 C 
ATOM     14  C   UNL     1      20.747  -9.728  27.078  0.00  0.00    +0.000 C 
ATOM     15  C   UNL     1      18.432  -9.132  27.909  0.00  0.00    +0.000 C 
ENDBRANCH  12  13
BRANCH   1  16
ATOM     16  C   UNL     1      17.214  -7.029  26.363  0.00  0.00    +0.000 C 
ATOM     17  O   UNL     1      16.867  -6.508  27.481  0.00  0.00    +0.000 OA
BRANCH  16  18
ATOM     18  O   UNL     1      16.172  -7.579  25.655  0.00  0.00    +0.000 OA
BRANCH  18  20
ATOM     19  C   UNL     1      15.561  -9.846  25.639  0.00  0.00    +0.000 C 
ATOM     20  C   UNL     1      15.191  -8.439  26.128  0.00  0.00    +0.000 C 
ENDBRANCH  18  20
ENDBRANCH  16  18
ENDBRANCH   1  16
TORSDOF 4
ENDMDL
MODEL 4
REMARK VINA RESULT:      -5.8     19.360     20.968
REMARK  Name = 
REMARK  4 active torsions:
REMARK  status: ('A' for Active; 'I' for Inactive)
REMARK    1  A    between atoms: C_2  and  O_3
REMARK    2  A    between atoms: O_3  and  C_4
REMARK    3  A    between atoms: C_4  and  C_6
REMARK    4  A    between atoms: C_17  and  C_18
REMARK                            x       y       z     vdW  Elec       q    Type
REMARK                         _______ _______ _______ _____ _____    ______ ____
ROOT
ATOM      1  C   UNL     1      28.481  23.357  24.271  0.00  0.00    +0.000 C 
ATOM      2  C   UNL     1      29.450  22.835  24.912  0.00  0.00    +0.000 C 
ATOM      3  N   UNL     1      30.643  22.478  24.209  0.00  0.00    +0.000 NA
ATOM      4  O   UNL     1      29.449  22.570  26.271  0.00  0.00    +0.000 OA
ATOM      5  C   UNL     1      28.342  22.879  26.995  0.00  0.00    +0.000 A 
ATOM      6  C   UNL     1      28.384  22.583  28.374  0.00  0.00    +0.000 A 
ATOM      7  C   UNL     1      27.287  22.875  29.137  0.00  0.00    +0.000 A 
ATOM      8  O   UNL     1      27.263  22.605  30.521  0.00  0.00    +0.000 OA
ATOM      9  C   UNL     1      26.170  23.439  28.579  0.00  0.00    +0.000 A 
ATOM     10  C   UNL     1      26.168  23.719  27.198  0.00  0.00    +0.000 A 
ATOM     11  C   UNL     1      27.272  23.428  26.425  0.00  0.00    +0.000 A 
ATOM     12  C   UNL     1      27.147  23.824  24.933  0.00  0.00    +0.000 C 
ENDROOT
BRANCH  12  13
ATOM     13  C   UNL     1      27.673  25.385  25.205  0.00  0.00    +0.000 C 
ATOM     14  C   UNL     1      26.798  26.254  24.384  0.00  0.00    +0.000 C 
ATOM     15  C   UNL     1      29.119  25.423  24.955  0.00  0.00    +0.000 C 
ENDBRANCH  12  13
BRANCH   1  16
ATOM     16  C   UNL     1      28.560  23.587  22.859  0.00  0.00    +0.000 C 
ATOM     17  O   UNL     1      27.620  23.144  22.109  0.00  0.00    +0.000 OA
BRANCH  16  18
ATOM     18  O   UNL     1      29.553  24.250  22.177  0.00  0.00    +0.000 OA
BRANCH  18  20
ATOM     19  C   UNL     1      29.174  26.463  21.487  0.00  0.00    +0.000 C 
ATOM     20  C   UNL     1      29.421  25.018  21.029  0.00  0.00    +0.000 C 
ENDBRANCH  18  20
ENDBRANCH  16  18
ENDBRANCH   1  16
TORSDOF 4
ENDMDL
MODEL 5
REMARK VINA RESULT:      -5.7     19.456     21.168
REMARK  Name = 
REMARK  4 active torsions:
REMARK  status: ('A' for Active; 'I' for Inactive)
REMARK    1  A    between atoms: C_2  and  O_3
REMARK    2  A    between atoms: O_3  and  C_4
REMARK    3  A    between atoms: C_4  and  C_6
REMARK    4  A    between atoms: C_17  and  C_18
REMARK                            x       y       z     vdW  Elec       q    Type
REMARK                         _______ _______ _______ _____ _____    ______ ____
ROOT
ATOM      1  C   UNL     1      27.552  23.946  23.347  0.00  0.00    +0.000 C 
ATOM      2  C   UNL     1      26.386  23.472  23.537  0.00  0.00    +0.000 C 
ATOM      3  N   UNL     1      25.631  22.998  22.418  0.00  0.00    +0.000 NA
ATOM      4  O   UNL     1      25.762  23.375  24.769  0.00  0.00    +0.000 OA
ATOM      5  C   UNL     1      26.422  23.816  25.871  0.00  0.00    +0.000 A 
ATOM      6  C   UNL     1      25.743  23.705  27.103  0.00  0.00    +0.000 A 
ATOM      7  C   UNL     1      26.374  24.142  28.236  0.00  0.00    +0.000 A 
ATOM      8  O   UNL     1      25.752  24.060  29.499  0.00  0.00    +0.000 OA
ATOM      9  C   UNL     1      27.634  24.677  28.180  0.00  0.00    +0.000 A 
ATOM     10  C   UNL     1      28.278  24.770  26.930  0.00  0.00    +0.000 A 
ATOM     11  C   UNL     1      27.647  24.330  25.786  0.00  0.00    +0.000 A 
ATOM     12  C   UNL     1      28.485  24.455  24.489  0.00  0.00    +0.000 C 
ENDROOT
BRANCH  12  13
ATOM     13  C   UNL     1      29.234  22.980  24.717  0.00  0.00    +0.000 C 
ATOM     14  C   UNL     1      28.883  22.558  26.093  0.00  0.00    +0.000 C 
ATOM     15  C   UNL     1      30.654  23.140  24.382  0.00  0.00    +0.000 C 
ENDBRANCH  12  13
BRANCH   1  16
ATOM     16  C   UNL     1      28.121  24.021  22.033  0.00  0.00    +0.000 C 
ATOM     17  O   UNL     1      28.660  22.971  21.534  0.00  0.00    +0.000 OA
BRANCH  16  18
ATOM     18  O   UNL     1      28.161  25.117  21.204  0.00  0.00    +0.000 OA
BRANCH  18  20
ATOM     19  C   UNL     1      29.217  27.099  21.893  0.00  0.00    +0.000 C 
ATOM     20  C   UNL     1      29.258  25.917  20.914  0.00  0.00    +0.000 C 
ENDBRANCH  18  20
ENDBRANCH  16  18
ENDBRANCH   1  16
TORSDOF 4
ENDMDL
MODEL 6
REMARK VINA RESULT:      -5.7     20.304     21.956
REMARK  Name = 
REMARK  4 active torsions:
REMARK  status: ('A' for Active; 'I' for Inactive)
REMARK    1  A    between atoms: C_2  and  O_3
REMARK    2  A    between atoms: O_3  and  C_4
REMARK    3  A    between atoms: C_4  and  C_6
REMARK    4  A    between atoms: C_17  and  C_18
REMARK                            x       y       z     vdW  Elec       q    Type
REMARK                         _______ _______ _______ _____ _____    ______ ____
ROOT
ATOM      1  C   UNL     1      28.871  24.358  23.256  0.00  0.00    +0.000 C 
ATOM      2  C   UNL     1      27.832  23.621  23.264  0.00  0.00    +0.000 C 
ATOM      3  N   UNL     1      27.122  23.398  22.042  0.00  0.00    +0.000 NA
ATOM      4  O   UNL     1      27.310  23.001  24.386  0.00  0.00    +0.000 OA
ATOM      5  C   UNL     1      27.934  23.180  25.579  0.00  0.00    +0.000 A 
ATOM      6  C   UNL     1      27.361  22.535  26.697  0.00  0.00    +0.000 A 
ATOM      7  C   UNL     1      27.957  22.695  27.918  0.00  0.00    +0.000 A 
ATOM      8  O   UNL     1      27.437  22.079  29.074  0.00  0.00    +0.000 OA
ATOM      9  C   UNL     1      29.083  23.463  28.058  0.00  0.00    +0.000 A 
ATOM     10  C   UNL     1      29.624  24.090  26.917  0.00  0.00    +0.000 A 
ATOM     11  C   UNL     1      29.028  23.931  25.684  0.00  0.00    +0.000 A 
ATOM     12  C   UNL     1      29.750  24.642  24.513  0.00  0.00    +0.000 C 
ENDROOT
BRANCH  12  13
ATOM     13  C   UNL     1      30.784  23.358  24.245  0.00  0.00    +0.000 C 
ATOM     14  C   UNL     1      30.318  22.272  25.139  0.00  0.00    +0.000 C 
ATOM     15  C   UNL     1      32.159  23.847  24.406  0.00  0.00    +0.000 C 
ENDBRANCH  12  13
BRANCH   1  16
ATOM     16  C   UNL     1      29.338  24.973  22.048  0.00  0.00    +0.000 C 
ATOM     17  O   UNL     1      29.786  24.226  21.109  0.00  0.00    +0.000 OA
BRANCH  16  18
ATOM     18  O   UNL     1      29.366  26.316  21.755  0.00  0.00    +0.000 OA
BRANCH  18  20
ATOM     19  C   UNL     1      27.260  27.176  21.171  0.00  0.00    +0.000 C 
ATOM     20  C   UNL     1      28.447  27.283  22.138  0.00  0.00    +0.000 C 
ENDBRANCH  18  20
ENDBRANCH  16  18
ENDBRANCH   1  16
TORSDOF 4
ENDMDL
MODEL 7
REMARK VINA RESULT:      -5.6     18.152     19.090
REMARK  Name = 
REMARK  4 active torsions:
REMARK  status: ('A' for Active; 'I' for Inactive)
REMARK    1  A    between atoms: C_2  and  O_3
REMARK    2  A    between atoms: O_3  and  C_4
REMARK    3  A    between atoms: C_4  and  C_6
REMARK    4  A    between atoms: C_17  and  C_18
REMARK                            x       y       z     vdW  Elec       q    Type
REMARK                         _______ _______ _______ _____ _____    ______ ____
ROOT
ATOM      1  C   UNL     1      26.844  23.221  28.747  0.00  0.00    +0.000 C 
ATOM      2  C   UNL     1      26.337  24.033  27.907  0.00  0.00    +0.000 C 
ATOM      3  N   UNL     1      25.146  24.747  28.252  0.00  0.00    +0.000 NA
ATOM      4  O   UNL     1      26.850  24.291  26.647  0.00  0.00    +0.000 OA
ATOM      5  C   UNL     1      27.976  23.639  26.255  0.00  0.00    +0.000 A 
ATOM      6  C   UNL     1      28.457  23.928  24.960  0.00  0.00    +0.000 A 
ATOM      7  C   UNL     1      29.585  23.288  24.527  0.00  0.00    +0.000 A 
ATOM      8  O   UNL     1      30.119  23.531  23.245  0.00  0.00    +0.000 OA
ATOM      9  C   UNL     1      30.236  22.386  25.327  0.00  0.00    +0.000 A 
ATOM     10  C   UNL     1      29.723  22.125  26.613  0.00  0.00    +0.000 A 
ATOM     11  C   UNL     1      28.587  22.768  27.056  0.00  0.00    +0.000 A 
ATOM     12  C   UNL     1      28.159  22.418  28.502  0.00  0.00    +0.000 C 
ENDROOT
BRANCH  12  13
ATOM     13  C   UNL     1      29.151  23.578  29.179  0.00  0.00    +0.000 C 
ATOM     14  C   UNL     1      30.073  23.999  28.099  0.00  0.00    +0.000 C 
ATOM     15  C   UNL     1      29.731  23.014  30.404  0.00  0.00    +0.000 C 
ENDBRANCH  12  13
BRANCH   1  16
ATOM     16  C   UNL     1      26.240  23.004  30.029  0.00  0.00    +0.000 C 
ATOM     17  O   UNL     1      25.949  21.805  30.378  0.00  0.00    +0.000 OA
BRANCH  16  18
ATOM     18  O   UNL     1      25.923  23.953  30.972  0.00  0.00    +0.000 OA
BRANCH  18  20
ATOM     19  C   UNL     1      26.166  26.264  31.307  0.00  0.00    +0.000 C 
ATOM     20  C   UNL     1      26.775  24.878  31.559  0.00  0.00    +0.000 C 
ENDBRANCH  18  20
ENDBRANCH  16  18
ENDBRANCH   1  16
TORSDOF 4
ENDMDL
MODEL 8
REMARK VINA RESULT:      -5.6      2.525      4.583
REMARK  Name = 
REMARK  4 active torsions:
REMARK  status: ('A' for Active; 'I' for Inactive)
REMARK    1  A    between atoms: C_2  and  O_3
REMARK    2  A    between atoms: O_3  and  C_4
REMARK    3  A    between atoms: C_4  and  C_6
REMARK    4  A    between atoms: C_17  and  C_18
REMARK                            x       y       z     vdW  Elec       q    Type
REMARK                         _______ _______ _______ _____ _____    ______ ____
ROOT
ATOM      1  C   UNL     1      18.097   9.175  38.594  0.00  0.00    +0.000 C 
ATOM      2  C   UNL     1      17.102   9.846  39.021  0.00  0.00    +0.000 C 
ATOM      3  N   UNL     1      16.793   9.828  40.417  0.00  0.00    +0.000 NA
ATOM      4  O   UNL     1      16.264  10.611  38.227  0.00  0.00    +0.000 OA
ATOM      5  C   UNL     1      16.500  10.662  36.891  0.00  0.00    +0.000 A 
ATOM      6  C   UNL     1      15.615  11.448  36.122  0.00  0.00    +0.000 A 
ATOM      7  C   UNL     1      15.816  11.522  34.770  0.00  0.00    +0.000 A 
ATOM      8  O   UNL     1      14.970  12.289  33.944  0.00  0.00    +0.000 OA
ATOM      9  C   UNL     1      16.849  10.849  34.173  0.00  0.00    +0.000 A 
ATOM     10  C   UNL     1      17.711  10.076  34.977  0.00  0.00    +0.000 A 
ATOM     11  C   UNL     1      17.514   9.999  36.339  0.00  0.00    +0.000 A 
ATOM     12  C   UNL     1      18.557   9.147  37.103  0.00  0.00    +0.000 C 
ENDROOT
BRANCH  12  13
ATOM     13  C   UNL     1      19.620  10.424  37.268  0.00  0.00    +0.000 C 
ATOM     14  C   UNL     1      20.968   9.859  37.027  0.00  0.00    +0.000 C 
ATOM     15  C   UNL     1      19.358  11.064  38.563  0.00  0.00    +0.000 C 
ENDBRANCH  12  13
BRANCH   1  16
ATOM     16  C   UNL     1      18.908   8.397  39.485  0.00  0.00    +0.000 C 
ATOM     17  O   UNL     1      18.713   7.132  39.551  0.00  0.00    +0.000 OA
BRANCH  16  18
ATOM     18  O   UNL     1      19.911   8.851  40.308  0.00  0.00    +0.000 OA
BRANCH  18  20
ATOM     19  C   UNL     1      22.156   9.490  40.563  0.00  0.00    +0.000 C 
ATOM     20  C   UNL     1      21.178   8.310  40.473  0.00  0.00    +0.000 C 
ENDBRANCH  18  20
ENDBRANCH  16  18
ENDBRANCH   1  16
TORSDOF 4
ENDMDL
MODEL 9
REMARK VINA RESULT:      -5.6      2.441      4.431
REMARK  Name = 
REMARK  4 active torsions:
REMARK  status: ('A' for Active; 'I' for Inactive)
REMARK    1  A    between atoms: C_2  and  O_3
REMARK    2  A    between atoms: O_3  and  C_4
REMARK    3  A    between atoms: C_4  and  C_6
REMARK    4  A    between atoms: C_17  and  C_18
REMARK                            x       y       z     vdW  Elec       q    Type
REMARK                         _______ _______ _______ _____ _____    ______ ____
ROOT
ATOM      1  C   UNL     1      18.026   9.182  38.612  0.00  0.00    +0.000 C 
ATOM      2  C   UNL     1      17.025   9.844  39.039  0.00  0.00    +0.000 C 
ATOM      3  N   UNL     1      16.700   9.802  40.431  0.00  0.00    +0.000 NA
ATOM      4  O   UNL     1      16.195  10.622  38.249  0.00  0.00    +0.000 OA
ATOM      5  C   UNL     1      16.445  10.696  36.917  0.00  0.00    +0.000 A 
ATOM      6  C   UNL     1      15.568  11.494  36.151  0.00  0.00    +0.000 A 
ATOM      7  C   UNL     1      15.784  11.591  34.803  0.00  0.00    +0.000 A 
ATOM      8  O   UNL     1      14.945  12.371  33.981  0.00  0.00    +0.000 OA
ATOM      9  C   UNL     1      16.825  10.930  34.207  0.00  0.00    +0.000 A 
ATOM     10  C   UNL     1      17.678  10.144  35.006  0.00  0.00    +0.000 A 
ATOM     11  C   UNL     1      17.466  10.044  36.365  0.00  0.00    +0.000 A 
ATOM     12  C   UNL     1      18.502   9.181  37.126  0.00  0.00    +0.000 C 
ENDROOT
BRANCH  12  13
ATOM     13  C   UNL     1      19.561  10.456  37.325  0.00  0.00    +0.000 C 
ATOM     14  C   UNL     1      20.917   9.884  37.154  0.00  0.00    +0.000 C 
ATOM     15  C   UNL     1      19.241  11.113  38.598  0.00  0.00    +0.000 C 
ENDBRANCH  12  13
BRANCH   1  16
ATOM     16  C   UNL     1      18.828   8.391  39.498  0.00  0.00    +0.000 C 
ATOM     17  O   UNL     1      19.644   8.985  40.287  0.00  0.00    +0.000 OA
BRANCH  16  18
ATOM     18  O   UNL     1      18.832   7.021  39.618  0.00  0.00    +0.000 OA
BRANCH  18  20
ATOM     19  C   UNL     1      17.158   6.260  41.078  0.00  0.00    +0.000 C 
ATOM     20  C   UNL     1      18.663   6.274  40.775  0.00  0.00    +0.000 C 
ENDBRANCH  18  20
ENDBRANCH  16  18
ENDBRANCH   1  16
TORSDOF 4
ENDMDL
MODEL 10
REMARK VINA RESULT:      -5.5     21.747     23.407
REMARK  Name = 
REMARK  4 active torsions:
REMARK  status: ('A' for Active; 'I' for Inactive)
REMARK    1  A    between atoms: C_2  and  O_3
REMARK    2  A    between atoms: O_3  and  C_4
REMARK    3  A    between atoms: C_4  and  C_6
REMARK    4  A    between atoms: C_17  and  C_18
REMARK                            x       y       z     vdW  Elec       q    Type
REMARK                         _______ _______ _______ _____ _____    ______ ____
ROOT
ATOM      1  C   UNL     1      22.538  -8.188  24.864  0.00  0.00    +0.000 C 
ATOM      2  C   UNL     1      22.462  -6.934  24.652  0.00  0.00    +0.000 C 
ATOM      3  N   UNL     1      23.526  -6.277  23.956  0.00  0.00    +0.000 NA
ATOM      4  O   UNL     1      21.412  -6.125  25.051  0.00  0.00    +0.000 OA
ATOM      5  C   UNL     1      20.375  -6.688  25.724  0.00  0.00    +0.000 A 
ATOM      6  C   UNL     1      19.332  -5.823  26.118  0.00  0.00    +0.000 A 
ATOM      7  C   UNL     1      18.271  -6.351  26.802  0.00  0.00    +0.000 A 
ATOM      8  O   UNL     1      17.196  -5.543  27.224  0.00  0.00    +0.000 OA
ATOM      9  C   UNL     1      18.219  -7.687  27.101  0.00  0.00    +0.000 A 
ATOM     10  C   UNL     1      19.281  -8.517  26.690  0.00  0.00    +0.000 A 
ATOM     11  C   UNL     1      20.352  -7.991  25.999  0.00  0.00    +0.000 A 
ATOM     12  C   UNL     1      21.426  -9.021  25.574  0.00  0.00    +0.000 C 
ENDROOT
BRANCH  12  13
ATOM     13  C   UNL     1      20.630  -9.413  24.160  0.00  0.00    +0.000 C 
ATOM     14  C   UNL     1      19.217  -9.641  24.544  0.00  0.00    +0.000 C 
ATOM     15  C   UNL     1      21.361 -10.513  23.521  0.00  0.00    +0.000 C 
ENDBRANCH  12  13
BRANCH   1  16
ATOM     16  C   UNL     1      23.670  -8.951  24.426  0.00  0.00    +0.000 C 
ATOM     17  O   UNL     1      24.244  -9.736  25.260  0.00  0.00    +0.000 OA
BRANCH  16  18
ATOM     18  O   UNL     1      24.240  -8.950  23.175  0.00  0.00    +0.000 OA
BRANCH  18  20
ATOM     19  C   UNL     1      26.400  -8.084  22.860  0.00  0.00    +0.000 C 
ATOM     20  C   UNL     1      25.526  -9.345  22.833  0.00  0.00    +0.000 C 
ENDBRANCH  18  20
ENDBRANCH  16  18
ENDBRANCH   1  16
TORSDOF 4
ENDMDL
