MODEL 1
REMARK VINA RESULT:      -7.5      0.000      0.000
REMARK  Name = 
REMARK  9 active torsions:
REMARK  status: ('A' for Active; 'I' for Inactive)
REMARK    1  A    between atoms: C_2  and  C_3
REMARK    2  A    between atoms: C_7  and  C_8
REMARK    3  A    between atoms: C_10  and  N_11
REMARK    4  A    between atoms: C_12  and  C_14
REMARK    5  A    between atoms: C_14  and  O_15
REMARK    6  A    between atoms: O_15  and  C_16
REMARK    7  A    between atoms: C_16  and  C_18
REMARK    8  A    between atoms: C_18  and  C_19
REMARK    9  A    between atoms: C_18  and  C_25
REMARK                            x       y       z     vdW  Elec       q    Type
REMARK                         _______ _______ _______ _____ _____    ______ ____
ROOT
ATOM      1  O   UNL     1      39.510   2.213  14.997  0.00  0.00    +0.000 OA
ENDROOT
BRANCH   1   2
ATOM      2  C   UNL     1      38.865   3.378  14.646  0.00  0.00    +0.000 C 
ATOM      3  O   UNL     1      38.978   3.847  13.490  0.00  0.00    +0.000 OA
BRANCH   2   4
ATOM      4  C   UNL     1      38.037   4.083  15.629  0.00  0.00    +0.000 C 
BRANCH   4   5
ATOM      5  C   UNL     1      38.874   4.829  16.625  0.00  0.00    +0.000 A 
ATOM      6  C   UNL     1      40.005   5.502  16.219  0.00  0.00    +0.000 A 
ATOM      7  C   UNL     1      40.802   6.202  17.119  0.00  0.00    +0.000 A 
ATOM      8  C   UNL     1      40.480   6.242  18.459  0.00  0.00    +0.000 A 
ATOM      9  C   UNL     1      39.351   5.572  18.867  0.00  0.00    +0.000 A 
ATOM     10  C   UNL     1      38.567   4.880  17.968  0.00  0.00    +0.000 A 
ENDBRANCH   4   5
BRANCH   4  11
ATOM     11  C   UNL     1      37.122   5.071  15.035  0.00  0.00    +0.000 A 
ATOM     12  C   UNL     1      35.959   4.657  14.435  0.00  0.00    +0.000 A 
ATOM     13  C   UNL     1      35.081   5.555  13.867  0.00  0.00    +0.000 A 
ATOM     14  C   UNL     1      35.354   6.900  13.890  0.00  0.00    +0.000 A 
ATOM     15  C   UNL     1      36.513   7.323  14.488  0.00  0.00    +0.000 A 
ATOM     16  C   UNL     1      37.381   6.417  15.050  0.00  0.00    +0.000 A 
ENDBRANCH   4  11
ENDBRANCH   2   4
ENDBRANCH   1   2
BRANCH   1  17
ATOM     17  C   UNL     1      39.380   1.005  14.289  0.00  0.00    +0.000 C 
BRANCH  17  19
ATOM     18  N   UNL     1      37.959  -0.279  15.968  0.00  0.00    +0.000 NA
ATOM     19  C   UNL     1      38.111   0.337  14.701  0.00  0.00    +0.000 C 
ATOM     20  O   UNL     1      37.131   0.303  13.923  0.00  0.00    +0.000 OA
BRANCH  18  26
ATOM     21  C   UNL     1      36.550  -2.243  16.014  0.00  0.00    +0.000 A 
ATOM     22  C   UNL     1      35.369  -2.865  16.339  0.00  0.00    +0.000 A 
ATOM     23  C   UNL     1      34.350  -2.191  16.959  0.00  0.00    +0.000 A 
ATOM     24  C   UNL     1      34.543  -0.858  17.251  0.00  0.00    +0.000 A 
ATOM     25  C   UNL     1      35.710  -0.206  16.940  0.00  0.00    +0.000 A 
ATOM     26  C   UNL     1      36.709  -0.911  16.320  0.00  0.00    +0.000 A 
BRANCH  21  28
ATOM     27  C   UNL     1      37.238  -3.389  13.933  0.00  0.00    +0.000 C 
ATOM     28  C   UNL     1      37.653  -3.010  15.331  0.00  0.00    +0.000 C 
ENDBRANCH  21  28
BRANCH  25  29
ATOM     29  C   UNL     1      35.903   1.250  17.271  0.00  0.00    +0.000 C 
ATOM     30  C   UNL     1      34.856   1.997  16.449  0.00  0.00    +0.000 C 
ENDBRANCH  25  29
ENDBRANCH  18  26
ENDBRANCH  17  19
ENDBRANCH   1  17
TORSDOF 9
ENDMDL
MODEL 2
REMARK VINA RESULT:      -7.4      0.130      2.573
REMARK  Name = 
REMARK  9 active torsions:
REMARK  status: ('A' for Active; 'I' for Inactive)
REMARK    1  A    between atoms: C_2  and  C_3
REMARK    2  A    between atoms: C_7  and  C_8
REMARK    3  A    between atoms: C_10  and  N_11
REMARK    4  A    between atoms: C_12  and  C_14
REMARK    5  A    between atoms: C_14  and  O_15
REMARK    6  A    between atoms: O_15  and  C_16
REMARK    7  A    between atoms: C_16  and  C_18
REMARK    8  A    between atoms: C_18  and  C_19
REMARK    9  A    between atoms: C_18  and  C_25
REMARK                            x       y       z     vdW  Elec       q    Type
REMARK                         _______ _______ _______ _____ _____    ______ ____
ROOT
ATOM      1  O   UNL     1      39.452   2.109  14.984  0.00  0.00    +0.000 OA
ENDROOT
BRANCH   1   2
ATOM      2  C   UNL     1      38.915   3.332  14.652  0.00  0.00    +0.000 C 
ATOM      3  O   UNL     1      39.136   3.844  13.530  0.00  0.00    +0.000 OA
BRANCH   2   4
ATOM      4  C   UNL     1      38.074   4.050  15.615  0.00  0.00    +0.000 C 
BRANCH   4   5
ATOM      5  C   UNL     1      38.899   4.821  16.602  0.00  0.00    +0.000 A 
ATOM      6  C   UNL     1      38.551   4.841  17.935  0.00  0.00    +0.000 A 
ATOM      7  C   UNL     1      39.296   5.547  18.874  0.00  0.00    +0.000 A 
ATOM      8  C   UNL     1      40.416   6.254  18.495  0.00  0.00    +0.000 A 
ATOM      9  C   UNL     1      40.766   6.236  17.166  0.00  0.00    +0.000 A 
ATOM     10  C   UNL     1      40.023   5.534  16.241  0.00  0.00    +0.000 A 
ENDBRANCH   4   5
BRANCH   4  11
ATOM     11  C   UNL     1      37.157   5.020  14.995  0.00  0.00    +0.000 A 
ATOM     12  C   UNL     1      37.404   6.365  15.104  0.00  0.00    +0.000 A 
ATOM     13  C   UNL     1      36.565   7.301  14.537  0.00  0.00    +0.000 A 
ATOM     14  C   UNL     1      35.450   6.902  13.843  0.00  0.00    +0.000 A 
ATOM     15  C   UNL     1      35.195   5.559  13.729  0.00  0.00    +0.000 A 
ATOM     16  C   UNL     1      36.040   4.636  14.299  0.00  0.00    +0.000 A 
ENDBRANCH   4  11
ENDBRANCH   2   4
ENDBRANCH   1   2
BRANCH   1  17
ATOM     17  C   UNL     1      39.277   0.945  14.214  0.00  0.00    +0.000 C 
BRANCH  17  19
ATOM     18  N   UNL     1      37.870  -0.274  15.953  0.00  0.00    +0.000 NA
ATOM     19  C   UNL     1      38.024   0.259  14.649  0.00  0.00    +0.000 C 
ATOM     20  O   UNL     1      37.062   0.136  13.859  0.00  0.00    +0.000 OA
BRANCH  18  26
ATOM     21  C   UNL     1      35.650  -0.161  16.902  0.00  0.00    +0.000 A 
ATOM     22  C   UNL     1      34.469  -0.760  17.266  0.00  0.00    +0.000 A 
ATOM     23  C   UNL     1      34.253  -2.099  17.069  0.00  0.00    +0.000 A 
ATOM     24  C   UNL     1      35.263  -2.836  16.490  0.00  0.00    +0.000 A 
ATOM     25  C   UNL     1      36.455  -2.269  16.115  0.00  0.00    +0.000 A 
ATOM     26  C   UNL     1      36.637  -0.926  16.326  0.00  0.00    +0.000 A 
BRANCH  21  28
ATOM     27  C   UNL     1      34.854   2.114  16.344  0.00  0.00    +0.000 C 
ATOM     28  C   UNL     1      35.859   1.314  17.132  0.00  0.00    +0.000 C 
ENDBRANCH  21  28
BRANCH  25  29
ATOM     29  C   UNL     1      37.546  -3.090  15.480  0.00  0.00    +0.000 C 
ATOM     30  C   UNL     1      37.032  -3.444  14.088  0.00  0.00    +0.000 C 
ENDBRANCH  25  29
ENDBRANCH  18  26
ENDBRANCH  17  19
ENDBRANCH   1  17
TORSDOF 9
ENDMDL
MODEL 3
REMARK VINA RESULT:      -7.3     21.757     24.849
REMARK  Name = 
REMARK  9 active torsions:
REMARK  status: ('A' for Active; 'I' for Inactive)
REMARK    1  A    between atoms: C_2  and  C_3
REMARK    2  A    between atoms: C_7  and  C_8
REMARK    3  A    between atoms: C_10  and  N_11
REMARK    4  A    between atoms: C_12  and  C_14
REMARK    5  A    between atoms: C_14  and  O_15
REMARK    6  A    between atoms: O_15  and  C_16
REMARK    7  A    between atoms: C_16  and  C_18
REMARK    8  A    between atoms: C_18  and  C_19
REMARK    9  A    between atoms: C_18  and  C_25
REMARK                            x       y       z     vdW  Elec       q    Type
REMARK                         _______ _______ _______ _____ _____    ______ ____
ROOT
ATOM      1  O   UNL     1      15.764   1.430  26.687  0.00  0.00    +0.000 OA
ENDROOT
BRANCH   1   2
ATOM      2  C   UNL     1      15.039   0.649  27.560  0.00  0.00    +0.000 C 
ATOM      3  O   UNL     1      15.525   0.306  28.662  0.00  0.00    +0.000 OA
BRANCH   2   4
ATOM      4  C   UNL     1      13.686   0.213  27.204  0.00  0.00    +0.000 C 
BRANCH   4   5
ATOM      5  C   UNL     1      13.084  -0.651  28.272  0.00  0.00    +0.000 A 
ATOM      6  C   UNL     1      12.760  -1.963  28.007  0.00  0.00    +0.000 A 
ATOM      7  C   UNL     1      12.201  -2.788  28.976  0.00  0.00    +0.000 A 
ATOM      8  C   UNL     1      11.951  -2.313  30.245  0.00  0.00    +0.000 A 
ATOM      9  C   UNL     1      12.273  -1.003  30.513  0.00  0.00    +0.000 A 
ATOM     10  C   UNL     1      12.828  -0.191  29.546  0.00  0.00    +0.000 A 
ENDBRANCH   4   5
BRANCH   4  11
ATOM     11  C   UNL     1      12.743   1.321  26.987  0.00  0.00    +0.000 A 
ATOM     12  C   UNL     1      11.528   1.084  26.395  0.00  0.00    +0.000 A 
ATOM     13  C   UNL     1      10.621   2.099  26.175  0.00  0.00    +0.000 A 
ATOM     14  C   UNL     1      10.918   3.386  26.548  0.00  0.00    +0.000 A 
ATOM     15  C   UNL     1      12.130   3.633  27.142  0.00  0.00    +0.000 A 
ATOM     16  C   UNL     1      13.025   2.612  27.355  0.00  0.00    +0.000 A 
ENDBRANCH   4  11
ENDBRANCH   2   4
ENDBRANCH   1   2
BRANCH   1  17
ATOM     17  C   UNL     1      17.170   1.465  26.654  0.00  0.00    +0.000 C 
BRANCH  17  19
ATOM     18  N   UNL     1      19.026   0.177  25.479  0.00  0.00    +0.000 NA
ATOM     19  C   UNL     1      17.655   0.508  25.617  0.00  0.00    +0.000 C 
ATOM     20  O   UNL     1      16.849  -0.037  24.831  0.00  0.00    +0.000 OA
BRANCH  18  26
ATOM     21  C   UNL     1      19.380  -2.100  24.749  0.00  0.00    +0.000 A 
ATOM     22  C   UNL     1      19.775  -3.007  23.796  0.00  0.00    +0.000 A 
ATOM     23  C   UNL     1      20.231  -2.605  22.568  0.00  0.00    +0.000 A 
ATOM     24  C   UNL     1      20.283  -1.252  22.312  0.00  0.00    +0.000 A 
ATOM     25  C   UNL     1      19.897  -0.319  23.242  0.00  0.00    +0.000 A 
ATOM     26  C   UNL     1      19.446  -0.757  24.460  0.00  0.00    +0.000 A 
BRANCH  21  28
ATOM     27  C   UNL     1      19.907  -3.467  26.742  0.00  0.00    +0.000 C 
ATOM     28  C   UNL     1      18.884  -2.572  26.092  0.00  0.00    +0.000 C 
ENDBRANCH  21  28
BRANCH  25  29
ATOM     29  C   UNL     1      19.959   1.155  22.942  0.00  0.00    +0.000 C 
ATOM     30  C   UNL     1      19.863   1.267  21.423  0.00  0.00    +0.000 C 
ENDBRANCH  25  29
ENDBRANCH  18  26
ENDBRANCH  17  19
ENDBRANCH   1  17
TORSDOF 9
ENDMDL
MODEL 4
REMARK VINA RESULT:      -7.1      2.129      4.471
REMARK  Name = 
REMARK  9 active torsions:
REMARK  status: ('A' for Active; 'I' for Inactive)
REMARK    1  A    between atoms: C_2  and  C_3
REMARK    2  A    between atoms: C_7  and  C_8
REMARK    3  A    between atoms: C_10  and  N_11
REMARK    4  A    between atoms: C_12  and  C_14
REMARK    5  A    between atoms: C_14  and  O_15
REMARK    6  A    between atoms: O_15  and  C_16
REMARK    7  A    between atoms: C_16  and  C_18
REMARK    8  A    between atoms: C_18  and  C_19
REMARK    9  A    between atoms: C_18  and  C_25
REMARK                            x       y       z     vdW  Elec       q    Type
REMARK                         _______ _______ _______ _____ _____    ______ ____
ROOT
ATOM      1  O   UNL     1      38.773   4.775  16.652  0.00  0.00    +0.000 OA
ENDROOT
BRANCH   1   2
ATOM      2  C   UNL     1      38.831   4.714  18.027  0.00  0.00    +0.000 C 
ATOM      3  O   UNL     1      38.182   3.847  18.656  0.00  0.00    +0.000 OA
BRANCH   2   4
ATOM      4  C   UNL     1      39.659   5.669  18.769  0.00  0.00    +0.000 C 
BRANCH   4   5
ATOM      5  C   UNL     1      40.851   6.105  17.970  0.00  0.00    +0.000 A 
ATOM      6  C   UNL     1      40.787   6.158  16.595  0.00  0.00    +0.000 A 
ATOM      7  C   UNL     1      41.876   6.557  15.828  0.00  0.00    +0.000 A 
ATOM      8  C   UNL     1      43.064   6.917  16.426  0.00  0.00    +0.000 A 
ATOM      9  C   UNL     1      43.131   6.866  17.798  0.00  0.00    +0.000 A 
ATOM     10  C   UNL     1      42.047   6.469  18.553  0.00  0.00    +0.000 A 
ENDBRANCH   4   5
BRANCH   4  11
ATOM     11  C   UNL     1      38.947   6.898  19.155  0.00  0.00    +0.000 A 
ATOM     12  C   UNL     1      39.222   7.504  20.355  0.00  0.00    +0.000 A 
ATOM     13  C   UNL     1      38.572   8.655  20.748  0.00  0.00    +0.000 A 
ATOM     14  C   UNL     1      37.624   9.226  19.937  0.00  0.00    +0.000 A 
ATOM     15  C   UNL     1      37.343   8.628  18.735  0.00  0.00    +0.000 A 
ATOM     16  C   UNL     1      37.997   7.481  18.355  0.00  0.00    +0.000 A 
ENDBRANCH   4  11
ENDBRANCH   2   4
ENDBRANCH   1   2
BRANCH   1  17
ATOM     17  C   UNL     1      37.575   4.705  15.918  0.00  0.00    +0.000 C 
BRANCH  17  19
ATOM     18  N   UNL     1      37.808   2.168  15.868  0.00  0.00    +0.000 NA
ATOM     19  C   UNL     1      37.515   3.391  15.213  0.00  0.00    +0.000 C 
ATOM     20  O   UNL     1      37.198   3.334  14.004  0.00  0.00    +0.000 OA
BRANCH  18  26
ATOM     21  C   UNL     1      36.557   0.213  15.197  0.00  0.00    +0.000 A 
ATOM     22  C   UNL     1      36.463  -0.976  14.515  0.00  0.00    +0.000 A 
ATOM     23  C   UNL     1      37.512  -1.468  13.784  0.00  0.00    +0.000 A 
ATOM     24  C   UNL     1      38.676  -0.732  13.750  0.00  0.00    +0.000 A 
ATOM     25  C   UNL     1      38.803   0.459  14.421  0.00  0.00    +0.000 A 
ATOM     26  C   UNL     1      37.734   0.922  15.142  0.00  0.00    +0.000 A 
BRANCH  21  28
ATOM     27  C   UNL     1      35.318   0.035  17.331  0.00  0.00    +0.000 C 
ATOM     28  C   UNL     1      35.386   0.729  15.994  0.00  0.00    +0.000 C 
ENDBRANCH  21  28
BRANCH  25  29
ATOM     29  C   UNL     1      40.083   1.251  14.370  0.00  0.00    +0.000 C 
ATOM     30  C   UNL     1      41.175   0.241  14.034  0.00  0.00    +0.000 C 
ENDBRANCH  25  29
ENDBRANCH  18  26
ENDBRANCH  17  19
ENDBRANCH   1  17
TORSDOF 9
ENDMDL
MODEL 5
REMARK VINA RESULT:      -7.1      2.050      3.973
REMARK  Name = 
REMARK  9 active torsions:
REMARK  status: ('A' for Active; 'I' for Inactive)
REMARK    1  A    between atoms: C_2  and  C_3
REMARK    2  A    between atoms: C_7  and  C_8
REMARK    3  A    between atoms: C_10  and  N_11
REMARK    4  A    between atoms: C_12  and  C_14
REMARK    5  A    between atoms: C_14  and  O_15
REMARK    6  A    between atoms: O_15  and  C_16
REMARK    7  A    between atoms: C_16  and  C_18
REMARK    8  A    between atoms: C_18  and  C_19
REMARK    9  A    between atoms: C_18  and  C_25
REMARK                            x       y       z     vdW  Elec       q    Type
REMARK                         _______ _______ _______ _____ _____    ______ ____
ROOT
ATOM      1  O   UNL     1      36.554   2.274  15.622  0.00  0.00    +0.000 OA
ENDROOT
BRANCH   1   2
ATOM      2  C   UNL     1      36.573   3.525  15.046  0.00  0.00    +0.000 C 
ATOM      3  O   UNL     1      35.507   4.149  14.840  0.00  0.00    +0.000 OA
BRANCH   2   4
ATOM      4  C   UNL     1      37.849   4.139  14.667  0.00  0.00    +0.000 C 
BRANCH   4   5
ATOM      5  C   UNL     1      38.573   4.691  15.859  0.00  0.00    +0.000 A 
ATOM      6  C   UNL     1      39.700   5.465  15.693  0.00  0.00    +0.000 A 
ATOM      7  C   UNL     1      40.393   5.991  16.778  0.00  0.00    +0.000 A 
ATOM      8  C   UNL     1      39.968   5.749  18.067  0.00  0.00    +0.000 A 
ATOM      9  C   UNL     1      38.843   4.976  18.236  0.00  0.00    +0.000 A 
ATOM     10  C   UNL     1      38.162   4.459  17.155  0.00  0.00    +0.000 A 
ENDBRANCH   4   5
BRANCH   4  11
ATOM     11  C   UNL     1      38.783   3.211  14.009  0.00  0.00    +0.000 A 
ATOM     12  C   UNL     1      39.366   2.198  14.728  0.00  0.00    +0.000 A 
ATOM     13  C   UNL     1      40.246   1.312  14.143  0.00  0.00    +0.000 A 
ATOM     14  C   UNL     1      40.561   1.425  12.812  0.00  0.00    +0.000 A 
ATOM     15  C   UNL     1      39.982   2.434  12.085  0.00  0.00    +0.000 A 
ATOM     16  C   UNL     1      39.107   3.311  12.680  0.00  0.00    +0.000 A 
ENDBRANCH   4  11
ENDBRANCH   2   4
ENDBRANCH   1   2
BRANCH   1  17
ATOM     17  C   UNL     1      35.832   1.186  15.100  0.00  0.00    +0.000 C 
BRANCH  17  19
ATOM     18  N   UNL     1      37.524  -0.138  16.469  0.00  0.00    +0.000 NA
ATOM     19  C   UNL     1      36.295  -0.067  15.767  0.00  0.00    +0.000 C 
ATOM     20  O   UNL     1      35.596  -1.104  15.722  0.00  0.00    +0.000 OA
BRANCH  18  26
ATOM     21  C   UNL     1      37.594  -1.562  18.421  0.00  0.00    +0.000 A 
ATOM     22  C   UNL     1      37.967  -2.729  19.042  0.00  0.00    +0.000 A 
ATOM     23  C   UNL     1      38.660  -3.706  18.377  0.00  0.00    +0.000 A 
ATOM     24  C   UNL     1      38.976  -3.484  17.054  0.00  0.00    +0.000 A 
ATOM     25  C   UNL     1      38.619  -2.330  16.404  0.00  0.00    +0.000 A 
ATOM     26  C   UNL     1      37.926  -1.373  17.100  0.00  0.00    +0.000 A 
BRANCH  21  28
ATOM     27  C   UNL     1      35.366  -0.844  19.220  0.00  0.00    +0.000 C 
ATOM     28  C   UNL     1      36.833  -0.504  19.179  0.00  0.00    +0.000 C 
ENDBRANCH  21  28
BRANCH  25  29
ATOM     29  C   UNL     1      38.971  -2.107  14.957  0.00  0.00    +0.000 C 
ATOM     30  C   UNL     1      40.445  -2.483  14.833  0.00  0.00    +0.000 C 
ENDBRANCH  25  29
ENDBRANCH  18  26
ENDBRANCH  17  19
ENDBRANCH   1  17
TORSDOF 9
ENDMDL
MODEL 6
REMARK VINA RESULT:      -7.1      2.067      3.923
REMARK  Name = 
REMARK  9 active torsions:
REMARK  status: ('A' for Active; 'I' for Inactive)
REMARK    1  A    between atoms: C_2  and  C_3
REMARK    2  A    between atoms: C_7  and  C_8
REMARK    3  A    between atoms: C_10  and  N_11
REMARK    4  A    between atoms: C_12  and  C_14
REMARK    5  A    between atoms: C_14  and  O_15
REMARK    6  A    between atoms: O_15  and  C_16
REMARK    7  A    between atoms: C_16  and  C_18
REMARK    8  A    between atoms: C_18  and  C_19
REMARK    9  A    between atoms: C_18  and  C_25
REMARK                            x       y       z     vdW  Elec       q    Type
REMARK                         _______ _______ _______ _____ _____    ______ ____
ROOT
ATOM      1  O   UNL     1      38.409   3.790  16.357  0.00  0.00    +0.000 OA
ENDROOT
BRANCH   1   2
ATOM      2  C   UNL     1      38.706   4.645  17.395  0.00  0.00    +0.000 C 
ATOM      3  O   UNL     1      38.672   4.245  18.581  0.00  0.00    +0.000 OA
BRANCH   2   4
ATOM      4  C   UNL     1      39.068   6.038  17.117  0.00  0.00    +0.000 C 
BRANCH   4   5
ATOM      5  C   UNL     1      38.700   6.942  18.255  0.00  0.00    +0.000 A 
ATOM      6  C   UNL     1      39.349   6.839  19.465  0.00  0.00    +0.000 A 
ATOM      7  C   UNL     1      39.030   7.663  20.539  0.00  0.00    +0.000 A 
ATOM      8  C   UNL     1      38.043   8.618  20.423  0.00  0.00    +0.000 A 
ATOM      9  C   UNL     1      37.393   8.724  19.216  0.00  0.00    +0.000 A 
ATOM     10  C   UNL     1      37.716   7.903  18.156  0.00  0.00    +0.000 A 
ENDBRANCH   4   5
BRANCH   4  11
ATOM     11  C   UNL     1      40.505   6.241  16.874  0.00  0.00    +0.000 A 
ATOM     12  C   UNL     1      41.364   6.408  17.931  0.00  0.00    +0.000 A 
ATOM     13  C   UNL     1      42.715   6.602  17.740  0.00  0.00    +0.000 A 
ATOM     14  C   UNL     1      43.238   6.634  16.471  0.00  0.00    +0.000 A 
ATOM     15  C   UNL     1      42.387   6.467  15.408  0.00  0.00    +0.000 A 
ATOM     16  C   UNL     1      41.042   6.275  15.612  0.00  0.00    +0.000 A 
ENDBRANCH   4  11
ENDBRANCH   2   4
ENDBRANCH   1   2
BRANCH   1  17
ATOM     17  C   UNL     1      37.226   3.863  15.600  0.00  0.00    +0.000 C 
BRANCH  17  19
ATOM     18  N   UNL     1      37.262   1.356  16.053  0.00  0.00    +0.000 NA
ATOM     19  C   UNL     1      36.663   2.489  15.447  0.00  0.00    +0.000 C 
ATOM     20  O   UNL     1      35.629   2.300  14.769  0.00  0.00    +0.000 OA
BRANCH  18  26
ATOM     21  C   UNL     1      37.124  -0.724  14.830  0.00  0.00    +0.000 A 
ATOM     22  C   UNL     1      36.582  -1.972  14.642  0.00  0.00    +0.000 A 
ATOM     23  C   UNL     1      35.608  -2.463  15.473  0.00  0.00    +0.000 A 
ATOM     24  C   UNL     1      35.184  -1.664  16.512  0.00  0.00    +0.000 A 
ATOM     25  C   UNL     1      35.705  -0.412  16.727  0.00  0.00    +0.000 A 
ATOM     26  C   UNL     1      36.677   0.048  15.877  0.00  0.00    +0.000 A 
BRANCH  21  28
ATOM     27  C   UNL     1      37.741  -0.329  12.467  0.00  0.00    +0.000 C 
ATOM     28  C   UNL     1      38.193  -0.210  13.900  0.00  0.00    +0.000 C 
ENDBRANCH  21  28
BRANCH  25  29
ATOM     29  C   UNL     1      35.230   0.446  17.869  0.00  0.00    +0.000 C 
ATOM     30  C   UNL     1      35.902  -0.126  19.115  0.00  0.00    +0.000 C 
ENDBRANCH  25  29
ENDBRANCH  18  26
ENDBRANCH  17  19
ENDBRANCH   1  17
TORSDOF 9
ENDMDL
MODEL 7
REMARK VINA RESULT:      -7.0      2.168      4.394
REMARK  Name = 
REMARK  9 active torsions:
REMARK  status: ('A' for Active; 'I' for Inactive)
REMARK    1  A    between atoms: C_2  and  C_3
REMARK    2  A    between atoms: C_7  and  C_8
REMARK    3  A    between atoms: C_10  and  N_11
REMARK    4  A    between atoms: C_12  and  C_14
REMARK    5  A    between atoms: C_14  and  O_15
REMARK    6  A    between atoms: O_15  and  C_16
REMARK    7  A    between atoms: C_16  and  C_18
REMARK    8  A    between atoms: C_18  and  C_19
REMARK    9  A    between atoms: C_18  and  C_25
REMARK                            x       y       z     vdW  Elec       q    Type
REMARK                         _______ _______ _______ _____ _____    ______ ____
ROOT
ATOM      1  O   UNL     1      38.918   4.863  16.658  0.00  0.00    +0.000 OA
ENDROOT
BRANCH   1   2
ATOM      2  C   UNL     1      38.896   4.788  18.032  0.00  0.00    +0.000 C 
ATOM      3  O   UNL     1      38.199   3.924  18.613  0.00  0.00    +0.000 OA
BRANCH   2   4
ATOM      4  C   UNL     1      39.692   5.724  18.832  0.00  0.00    +0.000 C 
BRANCH   4   5
ATOM      5  C   UNL     1      40.919   6.174  18.096  0.00  0.00    +0.000 A 
ATOM      6  C   UNL     1      42.069   6.488  18.787  0.00  0.00    +0.000 A 
ATOM      7  C   UNL     1      43.222   6.910  18.133  0.00  0.00    +0.000 A 
ATOM      8  C   UNL     1      43.249   7.027  16.760  0.00  0.00    +0.000 A 
ATOM      9  C   UNL     1      42.103   6.714  16.068  0.00  0.00    +0.000 A 
ATOM     10  C   UNL     1      40.963   6.297  16.724  0.00  0.00    +0.000 A 
ENDBRANCH   4   5
BRANCH   4  11
ATOM     11  C   UNL     1      38.966   6.945  19.214  0.00  0.00    +0.000 A 
ATOM     12  C   UNL     1      39.246   7.567  20.404  0.00  0.00    +0.000 A 
ATOM     13  C   UNL     1      38.584   8.712  20.794  0.00  0.00    +0.000 A 
ATOM     14  C   UNL     1      37.618   9.261  19.989  0.00  0.00    +0.000 A 
ATOM     15  C   UNL     1      37.331   8.648  18.796  0.00  0.00    +0.000 A 
ATOM     16  C   UNL     1      37.999   7.507  18.420  0.00  0.00    +0.000 A 
ENDBRANCH   4  11
ENDBRANCH   2   4
ENDBRANCH   1   2
BRANCH   1  17
ATOM     17  C   UNL     1      37.761   4.900  15.859  0.00  0.00    +0.000 C 
BRANCH  17  19
ATOM     18  N   UNL     1      38.011   2.368  15.725  0.00  0.00    +0.000 NA
ATOM     19  C   UNL     1      37.630   3.600  15.137  0.00  0.00    +0.000 C 
ATOM     20  O   UNL     1      37.171   3.565  13.974  0.00  0.00    +0.000 OA
BRANCH  18  26
ATOM     21  C   UNL     1      38.944   0.677  14.272  0.00  0.00    +0.000 A 
ATOM     22  C   UNL     1      38.825  -0.492  13.560  0.00  0.00    +0.000 A 
ATOM     23  C   UNL     1      37.656  -1.207  13.545  0.00  0.00    +0.000 A 
ATOM     24  C   UNL     1      36.592  -0.718  14.271  0.00  0.00    +0.000 A 
ATOM     25  C   UNL     1      36.677   0.447  14.993  0.00  0.00    +0.000 A 
ATOM     26  C   UNL     1      37.862   1.137  14.985  0.00  0.00    +0.000 A 
BRANCH  21  28
ATOM     27  C   UNL     1      40.417   2.169  12.959  0.00  0.00    +0.000 C 
ATOM     28  C   UNL     1      40.242   1.444  14.268  0.00  0.00    +0.000 C 
ENDBRANCH  21  28
BRANCH  25  29
ATOM     29  C   UNL     1      35.504   0.964  15.782  0.00  0.00    +0.000 C 
ATOM     30  C   UNL     1      35.456   0.110  17.046  0.00  0.00    +0.000 C 
ENDBRANCH  25  29
ENDBRANCH  18  26
ENDBRANCH  17  19
ENDBRANCH   1  17
TORSDOF 9
ENDMDL
MODEL 8
REMARK VINA RESULT:      -7.0      2.229      7.826
REMARK  Name = 
REMARK  9 active torsions:
REMARK  status: ('A' for Active; 'I' for Inactive)
REMARK    1  A    between atoms: C_2  and  C_3
REMARK    2  A    between atoms: C_7  and  C_8
REMARK    3  A    between atoms: C_10  and  N_11
REMARK    4  A    between atoms: C_12  and  C_14
REMARK    5  A    between atoms: C_14  and  O_15
REMARK    6  A    between atoms: O_15  and  C_16
REMARK    7  A    between atoms: C_16  and  C_18
REMARK    8  A    between atoms: C_18  and  C_19
REMARK    9  A    between atoms: C_18  and  C_25
REMARK                            x       y       z     vdW  Elec       q    Type
REMARK                         _______ _______ _______ _____ _____    ______ ____
ROOT
ATOM      1  O   UNL     1      36.650   1.070  16.416  0.00  0.00    +0.000 OA
ENDROOT
BRANCH   1   2
ATOM      2  C   UNL     1      36.012  -0.147  16.331  0.00  0.00    +0.000 C 
ATOM      3  O   UNL     1      34.802  -0.256  16.633  0.00  0.00    +0.000 OA
BRANCH   2   4
ATOM      4  C   UNL     1      36.750  -1.332  15.883  0.00  0.00    +0.000 C 
BRANCH   4   5
ATOM      5  C   UNL     1      37.830  -0.975  14.905  0.00  0.00    +0.000 A 
ATOM      6  C   UNL     1      37.567  -0.957  13.553  0.00  0.00    +0.000 A 
ATOM      7  C   UNL     1      38.548  -0.630  12.623  0.00  0.00    +0.000 A 
ATOM      8  C   UNL     1      39.825  -0.311  13.030  0.00  0.00    +0.000 A 
ATOM      9  C   UNL     1      40.091  -0.328  14.379  0.00  0.00    +0.000 A 
ATOM     10  C   UNL     1      39.113  -0.653  15.295  0.00  0.00    +0.000 A 
ENDBRANCH   4   5
BRANCH   4  11
ATOM     11  C   UNL     1      37.407  -2.070  16.974  0.00  0.00    +0.000 A 
ATOM     12  C   UNL     1      37.416  -1.554  18.245  0.00  0.00    +0.000 A 
ATOM     13  C   UNL     1      38.023  -2.218  19.290  0.00  0.00    +0.000 A 
ATOM     14  C   UNL     1      38.640  -3.425  19.078  0.00  0.00    +0.000 A 
ATOM     15  C   UNL     1      38.635  -3.950  17.811  0.00  0.00    +0.000 A 
ATOM     16  C   UNL     1      38.027  -3.278  16.778  0.00  0.00    +0.000 A 
ENDBRANCH   4  11
ENDBRANCH   2   4
ENDBRANCH   1   2
BRANCH   1  17
ATOM     17  C   UNL     1      35.976   2.305  16.432  0.00  0.00    +0.000 C 
BRANCH  17  19
ATOM     18  N   UNL     1      38.308   3.328  16.372  0.00  0.00    +0.000 NA
ATOM     19  C   UNL     1      36.931   3.383  16.041  0.00  0.00    +0.000 C 
ATOM     20  O   UNL     1      36.533   4.380  15.399  0.00  0.00    +0.000 OA
BRANCH  18  26
ATOM     21  C   UNL     1      39.445   5.402  16.872  0.00  0.00    +0.000 A 
ATOM     22  C   UNL     1      40.282   6.429  16.510  0.00  0.00    +0.000 A 
ATOM     23  C   UNL     1      40.869   6.474  15.273  0.00  0.00    +0.000 A 
ATOM     24  C   UNL     1      40.595   5.450  14.392  0.00  0.00    +0.000 A 
ATOM     25  C   UNL     1      39.763   4.410  14.722  0.00  0.00    +0.000 A 
ATOM     26  C   UNL     1      39.192   4.396  15.969  0.00  0.00    +0.000 A 
BRANCH  21  28
ATOM     27  C   UNL     1      39.745   5.986  19.257  0.00  0.00    +0.000 C 
ATOM     28  C   UNL     1      38.812   5.380  18.240  0.00  0.00    +0.000 C 
ENDBRANCH  21  28
BRANCH  25  29
ATOM     29  C   UNL     1      39.477   3.298  13.747  0.00  0.00    +0.000 C 
ATOM     30  C   UNL     1      40.739   3.165  12.899  0.00  0.00    +0.000 C 
ENDBRANCH  25  29
ENDBRANCH  18  26
ENDBRANCH  17  19
ENDBRANCH   1  17
TORSDOF 9
ENDMDL
MODEL 9
REMARK VINA RESULT:      -6.9      2.239      8.431
REMARK  Name = 
REMARK  9 active torsions:
REMARK  status: ('A' for Active; 'I' for Inactive)
REMARK    1  A    between atoms: C_2  and  C_3
REMARK    2  A    between atoms: C_7  and  C_8
REMARK    3  A    between atoms: C_10  and  N_11
REMARK    4  A    between atoms: C_12  and  C_14
REMARK    5  A    between atoms: C_14  and  O_15
REMARK    6  A    between atoms: O_15  and  C_16
REMARK    7  A    between atoms: C_16  and  C_18
REMARK    8  A    between atoms: C_18  and  C_19
REMARK    9  A    between atoms: C_18  and  C_25
REMARK                            x       y       z     vdW  Elec       q    Type
REMARK                         _______ _______ _______ _____ _____    ______ ____
ROOT
ATOM      1  O   UNL     1      36.857  -0.512  16.310  0.00  0.00    +0.000 OA
ENDROOT
BRANCH   1   2
ATOM      2  C   UNL     1      36.403  -1.653  16.933  0.00  0.00    +0.000 C 
ATOM      3  O   UNL     1      35.501  -1.590  17.800  0.00  0.00    +0.000 OA
BRANCH   2   4
ATOM      4  C   UNL     1      36.974  -2.957  16.583  0.00  0.00    +0.000 C 
BRANCH   4   5
ATOM      5  C   UNL     1      35.937  -3.881  16.018  0.00  0.00    +0.000 A 
ATOM      6  C   UNL     1      34.867  -3.379  15.310  0.00  0.00    +0.000 A 
ATOM      7  C   UNL     1      33.890  -4.210  14.774  0.00  0.00    +0.000 A 
ATOM      8  C   UNL     1      33.963  -5.577  14.937  0.00  0.00    +0.000 A 
ATOM      9  C   UNL     1      35.030  -6.082  15.643  0.00  0.00    +0.000 A 
ATOM     10  C   UNL     1      35.995  -5.250  16.171  0.00  0.00    +0.000 A 
ENDBRANCH   4   5
BRANCH   4  11
ATOM     11  C   UNL     1      38.052  -2.884  15.585  0.00  0.00    +0.000 A 
ATOM     12  C   UNL     1      39.362  -2.822  15.991  0.00  0.00    +0.000 A 
ATOM     13  C   UNL     1      40.397  -2.751  15.083  0.00  0.00    +0.000 A 
ATOM     14  C   UNL     1      40.136  -2.741  13.735  0.00  0.00    +0.000 A 
ATOM     15  C   UNL     1      38.831  -2.803  13.319  0.00  0.00    +0.000 A 
ATOM     16  C   UNL     1      37.808  -2.873  14.235  0.00  0.00    +0.000 A 
ENDBRANCH   4  11
ENDBRANCH   2   4
ENDBRANCH   1   2
BRANCH   1  17
ATOM     17  C   UNL     1      36.027   0.372  15.597  0.00  0.00    +0.000 C 
BRANCH  17  19
ATOM     18  N   UNL     1      38.164   1.757  15.549  0.00  0.00    +0.000 NA
ATOM     19  C   UNL     1      36.853   1.499  15.075  0.00  0.00    +0.000 C 
ATOM     20  O   UNL     1      36.402   2.259  14.189  0.00  0.00    +0.000 OA
BRANCH  18  26
ATOM     21  C   UNL     1      38.838   4.076  15.645  0.00  0.00    +0.000 A 
ATOM     22  C   UNL     1      39.552   5.139  15.149  0.00  0.00    +0.000 A 
ATOM     23  C   UNL     1      40.347   5.015  14.040  0.00  0.00    +0.000 A 
ATOM     24  C   UNL     1      40.411   3.782  13.428  0.00  0.00    +0.000 A 
ATOM     25  C   UNL     1      39.710   2.699  13.897  0.00  0.00    +0.000 A 
ATOM     26  C   UNL     1      38.925   2.859  15.010  0.00  0.00    +0.000 A 
BRANCH  21  28
ATOM     27  C   UNL     1      38.753   4.894  17.978  0.00  0.00    +0.000 C 
ATOM     28  C   UNL     1      37.971   4.243  16.867  0.00  0.00    +0.000 C 
ENDBRANCH  21  28
BRANCH  25  29
ATOM     29  C   UNL     1      39.796   1.359  13.217  0.00  0.00    +0.000 C 
ATOM     30  C   UNL     1      41.143   0.776  13.632  0.00  0.00    +0.000 C 
ENDBRANCH  25  29
ENDBRANCH  18  26
ENDBRANCH  17  19
ENDBRANCH   1  17
TORSDOF 9
ENDMDL
MODEL 10
REMARK VINA RESULT:      -6.9      2.157      4.239
REMARK  Name = 
REMARK  9 active torsions:
REMARK  status: ('A' for Active; 'I' for Inactive)
REMARK    1  A    between atoms: C_2  and  C_3
REMARK    2  A    between atoms: C_7  and  C_8
REMARK    3  A    between atoms: C_10  and  N_11
REMARK    4  A    between atoms: C_12  and  C_14
REMARK    5  A    between atoms: C_14  and  O_15
REMARK    6  A    between atoms: O_15  and  C_16
REMARK    7  A    between atoms: C_16  and  C_18
REMARK    8  A    between atoms: C_18  and  C_19
REMARK    9  A    between atoms: C_18  and  C_25
REMARK                            x       y       z     vdW  Elec       q    Type
REMARK                         _______ _______ _______ _____ _____    ______ ____
ROOT
ATOM      1  O   UNL     1      36.089   2.141  16.711  0.00  0.00    +0.000 OA
ENDROOT
BRANCH   1   2
ATOM      2  C   UNL     1      36.571   3.281  16.108  0.00  0.00    +0.000 C 
ATOM      3  O   UNL     1      35.802   4.043  15.477  0.00  0.00    +0.000 OA
BRANCH   2   4
ATOM      4  C   UNL     1      37.995   3.615  16.201  0.00  0.00    +0.000 C 
BRANCH   4   5
ATOM      5  C   UNL     1      38.607   3.811  14.846  0.00  0.00    +0.000 A 
ATOM      6  C   UNL     1      39.898   4.274  14.724  0.00  0.00    +0.000 A 
ATOM      7  C   UNL     1      40.492   4.466  13.482  0.00  0.00    +0.000 A 
ATOM      8  C   UNL     1      39.799   4.195  12.322  0.00  0.00    +0.000 A 
ATOM      9  C   UNL     1      38.510   3.732  12.439  0.00  0.00    +0.000 A 
ATOM     10  C   UNL     1      37.928   3.545  13.675  0.00  0.00    +0.000 A 
ENDBRANCH   4   5
BRANCH   4  11
ATOM     11  C   UNL     1      38.268   4.846  16.960  0.00  0.00    +0.000 A 
ATOM     12  C   UNL     1      38.842   4.773  18.204  0.00  0.00    +0.000 A 
ATOM     13  C   UNL     1      39.110   5.905  18.943  0.00  0.00    +0.000 A 
ATOM     14  C   UNL     1      38.805   7.146  18.444  0.00  0.00    +0.000 A 
ATOM     15  C   UNL     1      38.232   7.230  17.200  0.00  0.00    +0.000 A 
ATOM     16  C   UNL     1      37.970   6.093  16.474  0.00  0.00    +0.000 A 
ENDBRANCH   4  11
ENDBRANCH   2   4
ENDBRANCH   1   2
BRANCH   1  17
ATOM     17  C   UNL     1      35.454   1.098  16.014  0.00  0.00    +0.000 C 
BRANCH  17  19
ATOM     18  N   UNL     1      37.668  -0.101  16.404  0.00  0.00    +0.000 NA
ATOM     19  C   UNL     1      36.468   0.059  15.667  0.00  0.00    +0.000 C 
ATOM     20  O   UNL     1      36.281  -0.711  14.699  0.00  0.00    +0.000 OA
BRANCH  18  26
ATOM     21  C   UNL     1      38.516  -2.351  16.638  0.00  0.00    +0.000 A 
ATOM     22  C   UNL     1      39.409  -3.339  16.299  0.00  0.00    +0.000 A 
ATOM     23  C   UNL     1      40.394  -3.127  15.370  0.00  0.00    +0.000 A 
ATOM     24  C   UNL     1      40.466  -1.884  14.779  0.00  0.00    +0.000 A 
ATOM     25  C   UNL     1      39.591  -0.876  15.096  0.00  0.00    +0.000 A 
ATOM     26  C   UNL     1      38.617  -1.122  16.030  0.00  0.00    +0.000 A 
BRANCH  21  28
ATOM     27  C   UNL     1      38.011  -2.492  19.056  0.00  0.00    +0.000 C 
ATOM     28  C   UNL     1      37.444  -2.613  17.665  0.00  0.00    +0.000 C 
ENDBRANCH  21  28
BRANCH  25  29
ATOM     29  C   UNL     1      39.684   0.475  14.438  0.00  0.00    +0.000 C 
ATOM     30  C   UNL     1      41.072   0.526  13.806  0.00  0.00    +0.000 C 
ENDBRANCH  25  29
ENDBRANCH  18  26
ENDBRANCH  17  19
ENDBRANCH   1  17
TORSDOF 9
ENDMDL
