MODEL 1
REMARK VINA RESULT:      -5.8      0.000      0.000
REMARK  Name = 
REMARK  4 active torsions:
REMARK  status: ('A' for Active; 'I' for Inactive)
REMARK    1  A    between atoms: C_2  and  N_3
REMARK    2  A    between atoms: C_2  and  N_12
REMARK    3  A    between atoms: N_3  and  N_4
REMARK    4  A    between atoms: N_12  and  C_13
REMARK                            x       y       z     vdW  Elec       q    Type
REMARK                         _______ _______ _______ _____ _____    ______ ____
ROOT
ATOM      1  S   UNL     1      19.493  11.138  38.412  0.00  0.00    +0.000 S 
ATOM      2  C   UNL     1      18.630   9.815  38.012  0.00  0.00    +0.000 C 
ENDROOT
BRANCH   2   3
ATOM      3  N   UNL     1      17.917   9.814  36.782  0.00  0.00    +0.000 NA
BRANCH   3   4
ATOM      4  N   UNL     1      16.661  10.448  36.706  0.00  0.00    +0.000 NA
ATOM      5  C   UNL     1      16.327  11.159  35.691  0.00  0.00    +0.000 C 
ATOM      6  C   UNL     1      17.361  11.243  34.639  0.00  0.00    +0.000 C 
ATOM      7  C   UNL     1      16.809  10.581  33.397  0.00  0.00    +0.000 C 
ATOM      8  C   UNL     1      15.298  10.676  33.351  0.00  0.00    +0.000 C 
ATOM      9  C   UNL     1      14.952  12.156  33.256  0.00  0.00    +0.000 C 
ATOM     10  C   UNL     1      14.743  12.748  34.634  0.00  0.00    +0.000 C 
ATOM     11  C   UNL     1      15.005  11.765  35.728  0.00  0.00    +0.000 C 
ENDBRANCH   3   4
ENDBRANCH   2   3
BRANCH   2  12
ATOM     12  N   UNL     1      18.604   8.692  38.892  0.00  0.00    +0.000 NA
BRANCH  12  13
ATOM     13  C   UNL     1      17.664   8.559  39.935  0.00  0.00    +0.000 A 
ATOM     14  C   UNL     1      17.738   7.447  40.739  0.00  0.00    +0.000 A 
ATOM     15  C   UNL     1      16.863   7.244  41.774  0.00  0.00    +0.000 A 
ATOM     16  C   UNL     1      15.877   8.140  42.053  0.00  0.00    +0.000 A 
ATOM     17  C   UNL     1      15.775   9.274  41.258  0.00  0.00    +0.000 A 
ATOM     18  C   UNL     1      16.669   9.472  40.208  0.00  0.00    +0.000 A 
ENDBRANCH  12  13
ENDBRANCH   2  12
TORSDOF 4
ENDMDL
MODEL 2
REMARK VINA RESULT:      -5.7     21.505     23.355
REMARK  Name = 
REMARK  4 active torsions:
REMARK  status: ('A' for Active; 'I' for Inactive)
REMARK    1  A    between atoms: C_2  and  N_3
REMARK    2  A    between atoms: C_2  and  N_12
REMARK    3  A    between atoms: N_3  and  N_4
REMARK    4  A    between atoms: N_12  and  C_13
REMARK                            x       y       z     vdW  Elec       q    Type
REMARK                         _______ _______ _______ _____ _____    ______ ____
ROOT
ATOM      1  S   UNL     1      33.219  -7.106  33.771  0.00  0.00    +0.000 S 
ATOM      2  C   UNL     1      33.672  -5.705  33.072  0.00  0.00    +0.000 C 
ENDROOT
BRANCH   2   3
ATOM      3  N   UNL     1      33.020  -4.505  33.467  0.00  0.00    +0.000 NA
BRANCH   3   4
ATOM      4  N   UNL     1      33.598  -3.261  33.143  0.00  0.00    +0.000 NA
ATOM      5  C   UNL     1      33.283  -2.189  33.775  0.00  0.00    +0.000 C 
ATOM      6  C   UNL     1      32.282  -2.383  34.844  0.00  0.00    +0.000 C 
ATOM      7  C   UNL     1      32.946  -2.053  36.161  0.00  0.00    +0.000 C 
ATOM      8  C   UNL     1      34.057  -1.041  35.977  0.00  0.00    +0.000 C 
ATOM      9  C   UNL     1      33.407   0.241  35.476  0.00  0.00    +0.000 C 
ATOM     10  C   UNL     1      33.397   0.282  33.962  0.00  0.00    +0.000 C 
ATOM     11  C   UNL     1      33.945  -0.965  33.350  0.00  0.00    +0.000 C 
ENDBRANCH   3   4
ENDBRANCH   2   3
BRANCH   2  12
ATOM     12  N   UNL     1      34.703  -5.705  32.087  0.00  0.00    +0.000 NA
BRANCH  12  13
ATOM     13  C   UNL     1      34.508  -6.185  30.775  0.00  0.00    +0.000 A 
ATOM     14  C   UNL     1      33.812  -5.396  29.890  0.00  0.00    +0.000 A 
ATOM     15  C   UNL     1      33.581  -5.790  28.598  0.00  0.00    +0.000 A 
ATOM     16  C   UNL     1      34.032  -6.986  28.131  0.00  0.00    +0.000 A 
ATOM     17  C   UNL     1      34.738  -7.808  29.001  0.00  0.00    +0.000 A 
ATOM     18  C   UNL     1      34.968  -7.399  30.313  0.00  0.00    +0.000 A 
ENDBRANCH  12  13
ENDBRANCH   2  12
TORSDOF 4
ENDMDL
MODEL 3
REMARK VINA RESULT:      -5.7     20.444     22.347
REMARK  Name = 
REMARK  4 active torsions:
REMARK  status: ('A' for Active; 'I' for Inactive)
REMARK    1  A    between atoms: C_2  and  N_3
REMARK    2  A    between atoms: C_2  and  N_12
REMARK    3  A    between atoms: N_3  and  N_4
REMARK    4  A    between atoms: N_12  and  C_13
REMARK                            x       y       z     vdW  Elec       q    Type
REMARK                         _______ _______ _______ _____ _____    ______ ____
ROOT
ATOM      1  S   UNL     1      29.037  25.132  21.382  0.00  0.00    +0.000 S 
ATOM      2  C   UNL     1      28.992  24.135  22.672  0.00  0.00    +0.000 C 
ENDROOT
BRANCH   2   3
ATOM      3  N   UNL     1      27.727  23.762  23.200  0.00  0.00    +0.000 NA
BRANCH   3   4
ATOM      4  N   UNL     1      27.001  24.682  23.984  0.00  0.00    +0.000 NA
ATOM      5  C   UNL     1      26.430  24.331  25.077  0.00  0.00    +0.000 C 
ATOM      6  C   UNL     1      26.602  22.905  25.424  0.00  0.00    +0.000 C 
ATOM      7  C   UNL     1      27.396  22.836  26.709  0.00  0.00    +0.000 C 
ATOM      8  C   UNL     1      27.174  24.072  27.556  0.00  0.00    +0.000 C 
ATOM      9  C   UNL     1      25.702  24.081  27.945  0.00  0.00    +0.000 C 
ATOM     10  C   UNL     1      24.888  24.873  26.943  0.00  0.00    +0.000 C 
ATOM     11  C   UNL     1      25.709  25.369  25.798  0.00  0.00    +0.000 C 
ENDBRANCH   3   4
ENDBRANCH   2   3
BRANCH   2  12
ATOM     12  N   UNL     1      30.210  23.659  23.242  0.00  0.00    +0.000 NA
BRANCH  12  13
ATOM     13  C   UNL     1      30.463  23.675  24.630  0.00  0.00    +0.000 A 
ATOM     14  C   UNL     1      30.446  24.886  25.280  0.00  0.00    +0.000 A 
ATOM     15  C   UNL     1      30.681  24.987  26.626  0.00  0.00    +0.000 A 
ATOM     16  C   UNL     1      30.943  23.887  27.383  0.00  0.00    +0.000 A 
ATOM     17  C   UNL     1      30.968  22.647  26.756  0.00  0.00    +0.000 A 
ATOM     18  C   UNL     1      30.728  22.555  25.386  0.00  0.00    +0.000 A 
ENDBRANCH  12  13
ENDBRANCH   2  12
TORSDOF 4
ENDMDL
MODEL 4
REMARK VINA RESULT:      -5.7     22.786     24.221
REMARK  Name = 
REMARK  4 active torsions:
REMARK  status: ('A' for Active; 'I' for Inactive)
REMARK    1  A    between atoms: C_2  and  N_3
REMARK    2  A    between atoms: C_2  and  N_12
REMARK    3  A    between atoms: N_3  and  N_4
REMARK    4  A    between atoms: N_12  and  C_13
REMARK                            x       y       z     vdW  Elec       q    Type
REMARK                         _______ _______ _______ _____ _____    ______ ____
ROOT
ATOM      1  S   UNL     1      26.922   5.698  12.241  0.00  0.00    +0.000 S 
ATOM      2  C   UNL     1      26.305   5.521  13.740  0.00  0.00    +0.000 C 
ENDROOT
BRANCH   2   3
ATOM      3  N   UNL     1      25.917   4.223  14.168  0.00  0.00    +0.000 NA
BRANCH   3   4
ATOM      4  N   UNL     1      24.667   4.041  14.792  0.00  0.00    +0.000 NA
ATOM      5  C   UNL     1      24.540   3.323  15.847  0.00  0.00    +0.000 C 
ATOM      6  C   UNL     1      25.801   2.721  16.329  0.00  0.00    +0.000 C 
ATOM      7  C   UNL     1      26.100   3.308  17.690  0.00  0.00    +0.000 C 
ATOM      8  C   UNL     1      24.827   3.717  18.402  0.00  0.00    +0.000 C 
ATOM      9  C   UNL     1      24.025   2.445  18.636  0.00  0.00    +0.000 C 
ATOM     10  C   UNL     1      23.063   2.200  17.493  0.00  0.00    +0.000 C 
ATOM     11  C   UNL     1      23.199   3.208  16.400  0.00  0.00    +0.000 C 
ENDBRANCH   3   4
ENDBRANCH   2   3
BRANCH   2  12
ATOM     12  N   UNL     1      26.166   6.660  14.588  0.00  0.00    +0.000 NA
BRANCH  12  13
ATOM     13  C   UNL     1      26.846   6.786  15.817  0.00  0.00    +0.000 A 
ATOM     14  C   UNL     1      26.100   6.849  16.970  0.00  0.00    +0.000 A 
ATOM     15  C   UNL     1      26.684   6.971  18.203  0.00  0.00    +0.000 A 
ATOM     16  C   UNL     1      28.036   7.036  18.343  0.00  0.00    +0.000 A 
ATOM     17  C   UNL     1      28.819   6.975  17.197  0.00  0.00    +0.000 A 
ATOM     18  C   UNL     1      28.216   6.852  15.947  0.00  0.00    +0.000 A 
ENDBRANCH  12  13
ENDBRANCH   2  12
TORSDOF 4
ENDMDL
MODEL 5
REMARK VINA RESULT:      -5.6     20.194     22.489
REMARK  Name = 
REMARK  4 active torsions:
REMARK  status: ('A' for Active; 'I' for Inactive)
REMARK    1  A    between atoms: C_2  and  N_3
REMARK    2  A    between atoms: C_2  and  N_12
REMARK    3  A    between atoms: N_3  and  N_4
REMARK    4  A    between atoms: N_12  and  C_13
REMARK                            x       y       z     vdW  Elec       q    Type
REMARK                         _______ _______ _______ _____ _____    ______ ____
ROOT
ATOM      1  S   UNL     1      25.736  24.474  26.281  0.00  0.00    +0.000 S 
ATOM      2  C   UNL     1      26.386  23.274  25.390  0.00  0.00    +0.000 C 
ENDROOT
BRANCH   2   3
ATOM      3  N   UNL     1      26.172  23.276  23.985  0.00  0.00    +0.000 NA
BRANCH   3   4
ATOM      4  N   UNL     1      27.279  23.252  23.113  0.00  0.00    +0.000 NA
ATOM      5  C   UNL     1      27.739  24.326  22.582  0.00  0.00    +0.000 C 
ATOM      6  C   UNL     1      27.013  25.555  22.965  0.00  0.00    +0.000 C 
ATOM      7  C   UNL     1      27.972  26.434  23.736  0.00  0.00    +0.000 C 
ATOM      8  C   UNL     1      29.404  26.186  23.312  0.00  0.00    +0.000 C 
ATOM      9  C   UNL     1      29.508  26.595  21.849  0.00  0.00    +0.000 C 
ATOM     10  C   UNL     1      29.251  25.410  20.942  0.00  0.00    +0.000 C 
ATOM     11  C   UNL     1      28.885  24.176  21.698  0.00  0.00    +0.000 C 
ENDBRANCH   3   4
ENDBRANCH   2   3
BRANCH   2  12
ATOM     12  N   UNL     1      27.150  22.251  26.028  0.00  0.00    +0.000 NA
BRANCH  12  13
ATOM     13  C   UNL     1      28.464  22.459  26.498  0.00  0.00    +0.000 A 
ATOM     14  C   UNL     1      29.475  22.572  25.574  0.00  0.00    +0.000 A 
ATOM     15  C   UNL     1      30.777  22.775  25.949  0.00  0.00    +0.000 A 
ATOM     16  C   UNL     1      31.129  22.874  27.260  0.00  0.00    +0.000 A 
ATOM     17  C   UNL     1      30.130  22.763  28.219  0.00  0.00    +0.000 A 
ATOM     18  C   UNL     1      28.809  22.556  27.828  0.00  0.00    +0.000 A 
ENDBRANCH  12  13
ENDBRANCH   2  12
TORSDOF 4
ENDMDL
MODEL 6
REMARK VINA RESULT:      -5.5     19.880     21.499
REMARK  Name = 
REMARK  4 active torsions:
REMARK  status: ('A' for Active; 'I' for Inactive)
REMARK    1  A    between atoms: C_2  and  N_3
REMARK    2  A    between atoms: C_2  and  N_12
REMARK    3  A    between atoms: N_3  and  N_4
REMARK    4  A    between atoms: N_12  and  C_13
REMARK                            x       y       z     vdW  Elec       q    Type
REMARK                         _______ _______ _______ _____ _____    ______ ____
ROOT
ATOM      1  S   UNL     1      25.639  24.856  29.246  0.00  0.00    +0.000 S 
ATOM      2  C   UNL     1      26.339  24.263  27.899  0.00  0.00    +0.000 C 
ENDROOT
BRANCH   2   3
ATOM      3  N   UNL     1      26.079  24.904  26.657  0.00  0.00    +0.000 NA
BRANCH   3   4
ATOM      4  N   UNL     1      25.812  24.123  25.515  0.00  0.00    +0.000 NA
ATOM      5  C   UNL     1      26.473  24.278  24.426  0.00  0.00    +0.000 C 
ATOM      6  C   UNL     1      27.512  25.326  24.487  0.00  0.00    +0.000 C 
ATOM      7  C   UNL     1      28.855  24.655  24.310  0.00  0.00    +0.000 C 
ATOM      8  C   UNL     1      28.730  23.390  23.486  0.00  0.00    +0.000 C 
ATOM      9  C   UNL     1      28.259  23.810  22.101  0.00  0.00    +0.000 C 
ATOM     10  C   UNL     1      26.748  23.771  22.013  0.00  0.00    +0.000 C 
ATOM     11  C   UNL     1      26.106  23.415  23.313  0.00  0.00    +0.000 C 
ENDBRANCH   3   4
ENDBRANCH   2   3
BRANCH   2  12
ATOM     12  N   UNL     1      27.192  23.122  27.987  0.00  0.00    +0.000 NA
BRANCH  12  13
ATOM     13  C   UNL     1      28.565  23.167  27.667  0.00  0.00    +0.000 A 
ATOM     14  C   UNL     1      29.109  22.105  26.984  0.00  0.00    +0.000 A 
ATOM     15  C   UNL     1      30.433  22.072  26.635  0.00  0.00    +0.000 A 
ATOM     16  C   UNL     1      31.274  23.095  26.951  0.00  0.00    +0.000 A 
ATOM     17  C   UNL     1      30.756  24.182  27.642  0.00  0.00    +0.000 A 
ATOM     18  C   UNL     1      29.408  24.207  27.993  0.00  0.00    +0.000 A 
ENDBRANCH  12  13
ENDBRANCH   2  12
TORSDOF 4
ENDMDL
MODEL 7
REMARK VINA RESULT:      -5.4     22.766     24.221
REMARK  Name = 
REMARK  4 active torsions:
REMARK  status: ('A' for Active; 'I' for Inactive)
REMARK    1  A    between atoms: C_2  and  N_3
REMARK    2  A    between atoms: C_2  and  N_12
REMARK    3  A    between atoms: N_3  and  N_4
REMARK    4  A    between atoms: N_12  and  C_13
REMARK                            x       y       z     vdW  Elec       q    Type
REMARK                         _______ _______ _______ _____ _____    ______ ____
ROOT
ATOM      1  S   UNL     1      24.804   3.604  12.143  0.00  0.00    +0.000 S 
ATOM      2  C   UNL     1      25.326   3.787  13.676  0.00  0.00    +0.000 C 
ENDROOT
BRANCH   2   3
ATOM      3  N   UNL     1      25.852   5.047  14.071  0.00  0.00    +0.000 NA
BRANCH   3   4
ATOM      4  N   UNL     1      27.107   5.107  14.710  0.00  0.00    +0.000 NA
ATOM      5  C   UNL     1      27.341   5.945  15.653  0.00  0.00    +0.000 C 
ATOM      6  C   UNL     1      26.196   6.817  15.992  0.00  0.00    +0.000 C 
ATOM      7  C   UNL     1      25.781   6.500  17.411  0.00  0.00    +0.000 C 
ATOM      8  C   UNL     1      26.954   5.995  18.225  0.00  0.00    +0.000 C 
ATOM      9  C   UNL     1      27.961   7.134  18.303  0.00  0.00    +0.000 C 
ATOM     10  C   UNL     1      28.967   7.038  17.174  0.00  0.00    +0.000 C 
ATOM     11  C   UNL     1      28.673   5.914  16.237  0.00  0.00    +0.000 C 
ENDBRANCH   3   4
ENDBRANCH   2   3
BRANCH   2  12
ATOM     12  N   UNL     1      25.248   2.692  14.587  0.00  0.00    +0.000 NA
BRANCH  12  13
ATOM     13  C   UNL     1      24.807   2.835  15.920  0.00  0.00    +0.000 A 
ATOM     14  C   UNL     1      23.476   3.099  16.140  0.00  0.00    +0.000 A 
ATOM     15  C   UNL     1      22.969   3.251  17.404  0.00  0.00    +0.000 A 
ATOM     16  C   UNL     1      23.765   3.147  18.503  0.00  0.00    +0.000 A 
ATOM     17  C   UNL     1      25.116   2.883  18.314  0.00  0.00    +0.000 A 
ATOM     18  C   UNL     1      25.622   2.730  17.025  0.00  0.00    +0.000 A 
ENDBRANCH  12  13
ENDBRANCH   2  12
TORSDOF 4
ENDMDL
MODEL 8
REMARK VINA RESULT:      -5.4     22.284     23.852
REMARK  Name = 
REMARK  4 active torsions:
REMARK  status: ('A' for Active; 'I' for Inactive)
REMARK    1  A    between atoms: C_2  and  N_3
REMARK    2  A    between atoms: C_2  and  N_12
REMARK    3  A    between atoms: N_3  and  N_4
REMARK    4  A    between atoms: N_12  and  C_13
REMARK                            x       y       z     vdW  Elec       q    Type
REMARK                         _______ _______ _______ _____ _____    ______ ____
ROOT
ATOM      1  S   UNL     1      28.547   2.142  14.040  0.00  0.00    +0.000 S 
ATOM      2  C   UNL     1      28.049   2.786  15.452  0.00  0.00    +0.000 C 
ENDROOT
BRANCH   2   3
ATOM      3  N   UNL     1      27.001   2.140  16.164  0.00  0.00    +0.000 NA
BRANCH   3   4
ATOM      4  N   UNL     1      25.662   2.382  15.800  0.00  0.00    +0.000 NA
ATOM      5  C   UNL     1      24.735   2.492  16.680  0.00  0.00    +0.000 C 
ATOM      6  C   UNL     1      25.200   2.344  18.075  0.00  0.00    +0.000 C 
ATOM      7  C   UNL     1      24.972   3.663  18.779  0.00  0.00    +0.000 C 
ATOM      8  C   UNL     1      23.811   4.418  18.166  0.00  0.00    +0.000 C 
ATOM      9  C   UNL     1      22.566   3.573  18.396  0.00  0.00    +0.000 C 
ATOM     10  C   UNL     1      22.319   2.650  17.220  0.00  0.00    +0.000 C 
ATOM     11  C   UNL     1      23.390   2.741  16.184  0.00  0.00    +0.000 C 
ENDBRANCH   3   4
ENDBRANCH   2   3
BRANCH   2  12
ATOM     12  N   UNL     1      28.665   3.974  15.946  0.00  0.00    +0.000 NA
BRANCH  12  13
ATOM     13  C   UNL     1      27.936   5.022  16.547  0.00  0.00    +0.000 A 
ATOM     14  C   UNL     1      28.233   5.359  17.846  0.00  0.00    +0.000 A 
ATOM     15  C   UNL     1      27.572   6.365  18.500  0.00  0.00    +0.000 A 
ATOM     16  C   UNL     1      26.586   7.078  17.889  0.00  0.00    +0.000 A 
ATOM     17  C   UNL     1      26.262   6.761  16.576  0.00  0.00    +0.000 A 
ATOM     18  C   UNL     1      26.940   5.736  15.920  0.00  0.00    +0.000 A 
ENDBRANCH  12  13
ENDBRANCH   2  12
TORSDOF 4
ENDMDL
MODEL 9
REMARK VINA RESULT:      -5.4     20.303     22.491
REMARK  Name = 
REMARK  4 active torsions:
REMARK  status: ('A' for Active; 'I' for Inactive)
REMARK    1  A    between atoms: C_2  and  N_3
REMARK    2  A    between atoms: C_2  and  N_12
REMARK    3  A    between atoms: N_3  and  N_4
REMARK    4  A    between atoms: N_12  and  C_13
REMARK                            x       y       z     vdW  Elec       q    Type
REMARK                         _______ _______ _______ _____ _____    ______ ____
ROOT
ATOM      1  S   UNL     1      24.863  26.295  26.127  0.00  0.00    +0.000 S 
ATOM      2  C   UNL     1      25.584  24.894  25.706  0.00  0.00    +0.000 C 
ENDROOT
BRANCH   2   3
ATOM      3  N   UNL     1      26.027  24.020  26.736  0.00  0.00    +0.000 NA
BRANCH   3   4
ATOM      4  N   UNL     1      27.187  24.341  27.469  0.00  0.00    +0.000 NA
ATOM      5  C   UNL     1      28.198  23.552  27.507  0.00  0.00    +0.000 C 
ATOM      6  C   UNL     1      28.030  22.308  26.727  0.00  0.00    +0.000 C 
ATOM      7  C   UNL     1      29.049  22.324  25.610  0.00  0.00    +0.000 C 
ATOM      8  C   UNL     1      30.273  23.127  25.997  0.00  0.00    +0.000 C 
ATOM      9  C   UNL     1      30.918  22.408  27.174  0.00  0.00    +0.000 C 
ATOM     10  C   UNL     1      30.397  22.956  28.487  0.00  0.00    +0.000 C 
ATOM     11  C   UNL     1      29.337  23.991  28.298  0.00  0.00    +0.000 C 
ENDBRANCH   3   4
ENDBRANCH   2   3
BRANCH   2  12
ATOM     12  N   UNL     1      25.756  24.573  24.327  0.00  0.00    +0.000 NA
BRANCH  12  13
ATOM     13  C   UNL     1      27.006  24.642  23.676  0.00  0.00    +0.000 A 
ATOM     14  C   UNL     1      27.232  23.803  22.611  0.00  0.00    +0.000 A 
ATOM     15  C   UNL     1      28.418  23.809  21.925  0.00  0.00    +0.000 A 
ATOM     16  C   UNL     1      29.430  24.651  22.269  0.00  0.00    +0.000 A 
ATOM     17  C   UNL     1      29.233  25.512  23.342  0.00  0.00    +0.000 A 
ATOM     18  C   UNL     1      28.024  25.498  24.033  0.00  0.00    +0.000 A 
ENDBRANCH  12  13
ENDBRANCH   2  12
TORSDOF 4
ENDMDL
MODEL 10
REMARK VINA RESULT:      -5.3     21.335     22.921
REMARK  Name = 
REMARK  4 active torsions:
REMARK  status: ('A' for Active; 'I' for Inactive)
REMARK    1  A    between atoms: C_2  and  N_3
REMARK    2  A    between atoms: C_2  and  N_12
REMARK    3  A    between atoms: N_3  and  N_4
REMARK    4  A    between atoms: N_12  and  C_13
REMARK                            x       y       z     vdW  Elec       q    Type
REMARK                         _______ _______ _______ _____ _____    ______ ____
ROOT
ATOM      1  S   UNL     1      34.162  -5.537  34.931  0.00  0.00    +0.000 S 
ATOM      2  C   UNL     1      33.178  -4.562  34.072  0.00  0.00    +0.000 C 
ENDROOT
BRANCH   2   3
ATOM      3  N   UNL     1      32.920  -4.883  32.711  0.00  0.00    +0.000 NA
BRANCH   3   4
ATOM      4  N   UNL     1      32.892  -6.234  32.309  0.00  0.00    +0.000 NA
ATOM      5  C   UNL     1      32.840  -6.565  31.071  0.00  0.00    +0.000 C 
ATOM      6  C   UNL     1      32.812  -5.422  30.134  0.00  0.00    +0.000 C 
ATOM      7  C   UNL     1      34.077  -5.474  29.307  0.00  0.00    +0.000 C 
ATOM      8  C   UNL     1      34.581  -6.895  29.166  0.00  0.00    +0.000 C 
ATOM      9  C   UNL     1      33.518  -7.666  28.397  0.00  0.00    +0.000 C 
ATOM     10  C   UNL     1      32.541  -8.326  29.349  0.00  0.00    +0.000 C 
ATOM     11  C   UNL     1      32.815  -7.990  30.778  0.00  0.00    +0.000 C 
ENDBRANCH   3   4
ENDBRANCH   2   3
BRANCH   2  12
ATOM     12  N   UNL     1      32.598  -3.416  34.692  0.00  0.00    +0.000 NA
BRANCH  12  13
ATOM     13  C   UNL     1      32.913  -2.096  34.306  0.00  0.00    +0.000 A 
ATOM     14  C   UNL     1      32.212  -1.064  34.884  0.00  0.00    +0.000 A 
ATOM     15  C   UNL     1      32.458   0.245  34.563  0.00  0.00    +0.000 A 
ATOM     16  C   UNL     1      33.413   0.584  33.655  0.00  0.00    +0.000 A 
ATOM     17  C   UNL     1      34.139  -0.435  33.052  0.00  0.00    +0.000 A 
ATOM     18  C   UNL     1      33.881  -1.764  33.384  0.00  0.00    +0.000 A 
ENDBRANCH  12  13
ENDBRANCH   2  12
TORSDOF 4
ENDMDL
