MODEL 1
REMARK VINA RESULT:      -6.1      0.000      0.000
REMARK  Name = 
REMARK  4 active torsions:
REMARK  status: ('A' for Active; 'I' for Inactive)
REMARK    1  A    between atoms: C_5  and  N_6
REMARK    2  A    between atoms: N_6  and  C_7
REMARK    3  A    between atoms: C_7  and  N_9
REMARK    4  A    between atoms: C_10  and  C_12
REMARK                            x       y       z     vdW  Elec       q    Type
REMARK                         _______ _______ _______ _____ _____    ______ ____
ROOT
ATOM      1  C   UNL     1      18.905  10.274  37.806  0.00  0.00    +0.000 C 
ATOM      2  S   UNL     1      18.397   9.082  38.802  0.00  0.00    +0.000 S 
ENDROOT
BRANCH   1   3
ATOM      3  N   UNL     1      18.217  10.360  36.545  0.00  0.00    +0.000 NA
ATOM      4  C   UNL     1      17.192  11.294  36.295  0.00  0.00    +0.000 C 
ATOM      5  O   UNL     1      16.876  12.079  37.226  0.00  0.00    +0.000 OA
BRANCH   4   6
ATOM      6  C   UNL     1      16.485  11.394  35.024  0.00  0.00    +0.000 A 
ATOM      7  C   UNL     1      15.315  12.069  34.756  0.00  0.00    +0.000 A 
ATOM      8  C   UNL     1      15.007  11.892  33.409  0.00  0.00    +0.000 A 
ATOM      9  N   UNL     1      15.984  11.124  32.900  0.00  0.00    +0.000 N 
ATOM     10  C   UNL     1      16.029  10.703  31.490  0.00  0.00    +0.000 C 
ATOM     11  N   UNL     1      16.842  10.840  33.854  0.00  0.00    +0.000 NA
ENDBRANCH   4   6
ENDBRANCH   1   3
BRANCH   1  12
ATOM     12  N   UNL     1      19.943  11.148  38.165  0.00  0.00    +0.000 NA
BRANCH  12  17
ATOM     13  C   UNL     1      25.215  10.291  36.206  0.00  0.00    +0.000 C 
ATOM     14  C   UNL     1      23.850  10.526  36.724  0.00  0.00    +0.000 A 
ATOM     15  C   UNL     1      22.832   9.692  36.328  0.00  0.00    +0.000 A 
ATOM     16  C   UNL     1      21.568   9.896  36.797  0.00  0.00    +0.000 A 
ATOM     17  C   UNL     1      21.238  10.916  37.667  0.00  0.00    +0.000 A 
ATOM     18  C   UNL     1      22.276  11.749  38.058  0.00  0.00    +0.000 A 
ATOM     19  C   UNL     1      23.547  11.554  37.594  0.00  0.00    +0.000 A 
ENDBRANCH  12  17
ENDBRANCH   1  12
TORSDOF 4
ENDMDL
MODEL 2
REMARK VINA RESULT:      -5.9     21.210     22.254
REMARK  Name = 
REMARK  4 active torsions:
REMARK  status: ('A' for Active; 'I' for Inactive)
REMARK    1  A    between atoms: C_5  and  N_6
REMARK    2  A    between atoms: N_6  and  C_7
REMARK    3  A    between atoms: C_7  and  N_9
REMARK    4  A    between atoms: C_10  and  C_12
REMARK                            x       y       z     vdW  Elec       q    Type
REMARK                         _______ _______ _______ _____ _____    ______ ____
ROOT
ATOM      1  C   UNL     1      27.795  23.813  22.921  0.00  0.00    +0.000 C 
ATOM      2  S   UNL     1      26.216  23.620  23.295  0.00  0.00    +0.000 S 
ENDROOT
BRANCH   1   3
ATOM      3  N   UNL     1      28.134  25.069  22.307  0.00  0.00    +0.000 NA
ATOM      4  C   UNL     1      29.084  25.183  21.271  0.00  0.00    +0.000 C 
ATOM      5  O   UNL     1      29.649  24.131  20.878  0.00  0.00    +0.000 OA
BRANCH   4   6
ATOM      6  C   UNL     1      29.439  26.448  20.639  0.00  0.00    +0.000 A 
ATOM      7  C   UNL     1      29.134  27.721  21.065  0.00  0.00    +0.000 A 
ATOM      8  C   UNL     1      29.674  28.628  20.156  0.00  0.00    +0.000 A 
ATOM      9  N   UNL     1      30.285  27.891  19.212  0.00  0.00    +0.000 N 
ATOM     10  C   UNL     1      30.987  28.477  18.059  0.00  0.00    +0.000 C 
ATOM     11  N   UNL     1      30.140  26.618  19.507  0.00  0.00    +0.000 NA
ENDBRANCH   4   6
ENDBRANCH   1   3
BRANCH   1  12
ATOM     12  N   UNL     1      28.746  22.815  23.183  0.00  0.00    +0.000 NA
BRANCH  12  17
ATOM     13  C   UNL     1      31.976  23.245  27.847  0.00  0.00    +0.000 C 
ATOM     14  C   UNL     1      31.125  23.127  26.643  0.00  0.00    +0.000 A 
ATOM     15  C   UNL     1      31.628  23.522  25.427  0.00  0.00    +0.000 A 
ATOM     16  C   UNL     1      30.856  23.420  24.308  0.00  0.00    +0.000 A 
ATOM     17  C   UNL     1      29.564  22.930  24.322  0.00  0.00    +0.000 A 
ATOM     18  C   UNL     1      29.070  22.535  25.556  0.00  0.00    +0.000 A 
ATOM     19  C   UNL     1      29.836  22.634  26.684  0.00  0.00    +0.000 A 
ENDBRANCH  12  17
ENDBRANCH   1  12
TORSDOF 4
ENDMDL
MODEL 3
REMARK VINA RESULT:      -5.7     21.441     22.346
REMARK  Name = 
REMARK  4 active torsions:
REMARK  status: ('A' for Active; 'I' for Inactive)
REMARK    1  A    between atoms: C_5  and  N_6
REMARK    2  A    between atoms: N_6  and  C_7
REMARK    3  A    between atoms: C_7  and  N_9
REMARK    4  A    between atoms: C_10  and  C_12
REMARK                            x       y       z     vdW  Elec       q    Type
REMARK                         _______ _______ _______ _____ _____    ______ ____
ROOT
ATOM      1  C   UNL     1      29.216  23.716  22.919  0.00  0.00    +0.000 C 
ATOM      2  S   UNL     1      30.473  23.661  23.962  0.00  0.00    +0.000 S 
ENDROOT
BRANCH   1   3
ATOM      3  N   UNL     1      29.435  24.491  21.728  0.00  0.00    +0.000 NA
ATOM      4  C   UNL     1      29.224  25.883  21.671  0.00  0.00    +0.000 C 
ATOM      5  O   UNL     1      28.825  26.457  22.716  0.00  0.00    +0.000 OA
BRANCH   4   6
ATOM      6  C   UNL     1      29.442  26.683  20.471  0.00  0.00    +0.000 A 
ATOM      7  C   UNL     1      28.977  27.951  20.203  0.00  0.00    +0.000 A 
ATOM      8  C   UNL     1      29.428  28.324  18.939  0.00  0.00    +0.000 A 
ATOM      9  N   UNL     1      30.145  27.286  18.477  0.00  0.00    +0.000 N 
ATOM     10  C   UNL     1      30.802  27.280  17.160  0.00  0.00    +0.000 C 
ATOM     11  N   UNL     1      30.146  26.333  19.383  0.00  0.00    +0.000 NA
ENDBRANCH   4   6
ENDBRANCH   1   3
BRANCH   1  12
ATOM     12  N   UNL     1      28.008  23.049  23.179  0.00  0.00    +0.000 NA
BRANCH  12  17
ATOM     13  C   UNL     1      24.559  25.065  27.230  0.00  0.00    +0.000 C 
ATOM     14  C   UNL     1      25.450  24.551  26.167  0.00  0.00    +0.000 A 
ATOM     15  C   UNL     1      26.321  23.529  26.460  0.00  0.00    +0.000 A 
ATOM     16  C   UNL     1      27.148  23.044  25.491  0.00  0.00    +0.000 A 
ATOM     17  C   UNL     1      27.165  23.530  24.198  0.00  0.00    +0.000 A 
ATOM     18  C   UNL     1      26.281  24.561  23.917  0.00  0.00    +0.000 A 
ATOM     19  C   UNL     1      25.447  25.054  24.882  0.00  0.00    +0.000 A 
ENDBRANCH  12  17
ENDBRANCH   1  12
TORSDOF 4
ENDMDL
MODEL 4
REMARK VINA RESULT:      -5.6      1.956      7.018
REMARK  Name = 
REMARK  4 active torsions:
REMARK  status: ('A' for Active; 'I' for Inactive)
REMARK    1  A    between atoms: C_5  and  N_6
REMARK    2  A    between atoms: N_6  and  C_7
REMARK    3  A    between atoms: C_7  and  N_9
REMARK    4  A    between atoms: C_10  and  C_12
REMARK                            x       y       z     vdW  Elec       q    Type
REMARK                         _______ _______ _______ _____ _____    ______ ____
ROOT
ATOM      1  C   UNL     1      18.018  11.262  37.469  0.00  0.00    +0.000 C 
ATOM      2  S   UNL     1      17.027  10.246  38.280  0.00  0.00    +0.000 S 
ENDROOT
BRANCH   1   3
ATOM      3  N   UNL     1      19.421  11.106  37.744  0.00  0.00    +0.000 NA
ATOM      4  C   UNL     1      20.236  10.177  37.065  0.00  0.00    +0.000 C 
ATOM      5  O   UNL     1      19.695   9.460  36.184  0.00  0.00    +0.000 OA
BRANCH   4   6
ATOM      6  C   UNL     1      21.659  10.006  37.332  0.00  0.00    +0.000 A 
ATOM      7  C   UNL     1      22.254   9.529  38.478  0.00  0.00    +0.000 A 
ATOM      8  C   UNL     1      23.634   9.539  38.291  0.00  0.00    +0.000 A 
ATOM      9  N   UNL     1      23.840  10.016  37.052  0.00  0.00    +0.000 N 
ATOM     10  C   UNL     1      25.178  10.185  36.463  0.00  0.00    +0.000 C 
ATOM     11  N   UNL     1      22.677  10.285  36.502  0.00  0.00    +0.000 NA
ENDBRANCH   4   6
ENDBRANCH   1   3
BRANCH   1  12
ATOM     12  N   UNL     1      17.522  12.218  36.569  0.00  0.00    +0.000 NA
BRANCH  12  17
ATOM     13  C   UNL     1      14.759  10.416  31.933  0.00  0.00    +0.000 C 
ATOM     14  C   UNL     1      15.490  10.876  33.134  0.00  0.00    +0.000 A 
ATOM     15  C   UNL     1      14.856  11.709  34.025  0.00  0.00    +0.000 A 
ATOM     16  C   UNL     1      15.516  12.142  35.136  0.00  0.00    +0.000 A 
ATOM     17  C   UNL     1      16.818  11.786  35.430  0.00  0.00    +0.000 A 
ATOM     18  C   UNL     1      17.445  10.945  34.522  0.00  0.00    +0.000 A 
ATOM     19  C   UNL     1      16.791  10.505  33.405  0.00  0.00    +0.000 A 
ENDBRANCH  12  17
ENDBRANCH   1  12
TORSDOF 4
ENDMDL
MODEL 5
REMARK VINA RESULT:      -5.5     20.588     21.482
REMARK  Name = 
REMARK  4 active torsions:
REMARK  status: ('A' for Active; 'I' for Inactive)
REMARK    1  A    between atoms: C_5  and  N_6
REMARK    2  A    between atoms: N_6  and  C_7
REMARK    3  A    between atoms: C_7  and  N_9
REMARK    4  A    between atoms: C_10  and  C_12
REMARK                            x       y       z     vdW  Elec       q    Type
REMARK                         _______ _______ _______ _____ _____    ______ ____
ROOT
ATOM      1  C   UNL     1      29.385  23.808  23.944  0.00  0.00    +0.000 C 
ATOM      2  S   UNL     1      30.873  23.381  24.468  0.00  0.00    +0.000 S 
ENDROOT
BRANCH   1   3
ATOM      3  N   UNL     1      29.336  24.984  23.117  0.00  0.00    +0.000 NA
ATOM      4  C   UNL     1      29.335  24.929  21.708  0.00  0.00    +0.000 C 
ATOM      5  O   UNL     1      29.380  23.795  21.167  0.00  0.00    +0.000 OA
BRANCH   4   6
ATOM      6  C   UNL     1      29.286  26.112  20.856  0.00  0.00    +0.000 A 
ATOM      7  C   UNL     1      28.591  27.281  21.070  0.00  0.00    +0.000 A 
ATOM      8  C   UNL     1      28.834  28.137  19.998  0.00  0.00    +0.000 A 
ATOM      9  N   UNL     1      29.660  27.474  19.171  0.00  0.00    +0.000 N 
ATOM     10  C   UNL     1      30.161  28.037  17.907  0.00  0.00    +0.000 C 
ATOM     11  N   UNL     1      29.916  26.291  19.684  0.00  0.00    +0.000 NA
ENDBRANCH   4   6
ENDBRANCH   1   3
BRANCH   1  12
ATOM     12  N   UNL     1      28.240  23.071  24.284  0.00  0.00    +0.000 NA
BRANCH  12  17
ATOM     13  C   UNL     1      26.197  23.389  29.585  0.00  0.00    +0.000 C 
ATOM     14  C   UNL     1      26.718  23.316  28.202  0.00  0.00    +0.000 A 
ATOM     15  C   UNL     1      27.774  22.482  27.928  0.00  0.00    +0.000 A 
ATOM     16  C   UNL     1      28.265  22.404  26.659  0.00  0.00    +0.000 A 
ATOM     17  C   UNL     1      27.753  23.132  25.602  0.00  0.00    +0.000 A 
ATOM     18  C   UNL     1      26.687  23.970  25.894  0.00  0.00    +0.000 A 
ATOM     19  C   UNL     1      26.187  24.055  27.164  0.00  0.00    +0.000 A 
ENDBRANCH  12  17
ENDBRANCH   1  12
TORSDOF 4
ENDMDL
MODEL 6
REMARK VINA RESULT:      -5.5      3.804      6.065
REMARK  Name = 
REMARK  4 active torsions:
REMARK  status: ('A' for Active; 'I' for Inactive)
REMARK    1  A    between atoms: C_5  and  N_6
REMARK    2  A    between atoms: N_6  and  C_7
REMARK    3  A    between atoms: C_7  and  N_9
REMARK    4  A    between atoms: C_10  and  C_12
REMARK                            x       y       z     vdW  Elec       q    Type
REMARK                         _______ _______ _______ _____ _____    ______ ____
ROOT
ATOM      1  C   UNL     1      18.720   9.912  38.004  0.00  0.00    +0.000 C 
ATOM      2  S   UNL     1      17.492  10.086  36.940  0.00  0.00    +0.000 S 
ENDROOT
BRANCH   1   3
ATOM      3  N   UNL     1      18.793   8.634  38.659  0.00  0.00    +0.000 NA
ATOM      4  C   UNL     1      18.124   8.353  39.868  0.00  0.00    +0.000 C 
ATOM      5  O   UNL     1      17.438   9.273  40.383  0.00  0.00    +0.000 OA
BRANCH   4   6
ATOM      6  C   UNL     1      18.188   7.063  40.544  0.00  0.00    +0.000 A 
ATOM      7  C   UNL     1      18.993   5.988  40.242  0.00  0.00    +0.000 A 
ATOM      8  C   UNL     1      18.720   4.968  41.150  0.00  0.00    +0.000 A 
ATOM      9  N   UNL     1      17.768   5.443  41.970  0.00  0.00    +0.000 N 
ATOM     10  C   UNL     1      17.197   4.665  43.081  0.00  0.00    +0.000 C 
ATOM     11  N   UNL     1      17.466   6.669  41.605  0.00  0.00    +0.000 NA
ENDBRANCH   4   6
ENDBRANCH   1   3
BRANCH   1  12
ATOM     12  N   UNL     1      19.635  10.947  38.255  0.00  0.00    +0.000 NA
BRANCH  12  17
ATOM     13  C   UNL     1      24.883  10.461  36.112  0.00  0.00    +0.000 C 
ATOM     14  C   UNL     1      23.514  10.576  36.660  0.00  0.00    +0.000 A 
ATOM     15  C   UNL     1      23.252  11.533  37.611  0.00  0.00    +0.000 A 
ATOM     16  C   UNL     1      21.995  11.651  38.125  0.00  0.00    +0.000 A 
ATOM     17  C   UNL     1      20.941  10.847  37.740  0.00  0.00    +0.000 A 
ATOM     18  C   UNL     1      21.220   9.885  36.780  0.00  0.00    +0.000 A 
ATOM     19  C   UNL     1      22.477   9.759  36.258  0.00  0.00    +0.000 A 
ENDBRANCH  12  17
ENDBRANCH   1  12
TORSDOF 4
ENDMDL
MODEL 7
REMARK VINA RESULT:      -5.4     20.794     22.256
REMARK  Name = 
REMARK  4 active torsions:
REMARK  status: ('A' for Active; 'I' for Inactive)
REMARK    1  A    between atoms: C_5  and  N_6
REMARK    2  A    between atoms: N_6  and  C_7
REMARK    3  A    between atoms: C_7  and  N_9
REMARK    4  A    between atoms: C_10  and  C_12
REMARK                            x       y       z     vdW  Elec       q    Type
REMARK                         _______ _______ _______ _____ _____    ______ ____
ROOT
ATOM      1  C   UNL     1      16.796  -9.143  27.088  0.00  0.00    +0.000 C 
ATOM      2  S   UNL     1      17.000 -10.687  27.584  0.00  0.00    +0.000 S 
ENDROOT
BRANCH   1   3
ATOM      3  N   UNL     1      15.751  -8.938  26.121  0.00  0.00    +0.000 NA
ATOM      4  C   UNL     1      15.970  -9.007  24.730  0.00  0.00    +0.000 C 
ATOM      5  O   UNL     1      17.137  -9.259  24.334  0.00  0.00    +0.000 OA
BRANCH   4   6
ATOM      6  C   UNL     1      14.921  -8.802  23.738  0.00  0.00    +0.000 A 
ATOM      7  C   UNL     1      14.969  -9.069  22.389  0.00  0.00    +0.000 A 
ATOM      8  C   UNL     1      13.743  -8.719  21.830  0.00  0.00    +0.000 A 
ATOM      9  N   UNL     1      12.991  -8.252  22.841  0.00  0.00    +0.000 N 
ATOM     10  C   UNL     1      11.610  -7.773  22.667  0.00  0.00    +0.000 C 
ATOM     11  N   UNL     1      13.692  -8.307  23.951  0.00  0.00    +0.000 NA
ENDBRANCH   4   6
ENDBRANCH   1   3
BRANCH   1  12
ATOM     12  N   UNL     1      17.593  -8.096  27.577  0.00  0.00    +0.000 NA
BRANCH  12  17
ATOM     13  C   UNL     1      22.241  -6.512  24.704  0.00  0.00    +0.000 C 
ATOM     14  C   UNL     1      21.028  -6.909  25.450  0.00  0.00    +0.000 A 
ATOM     15  C   UNL     1      20.906  -8.206  25.887  0.00  0.00    +0.000 A 
ATOM     16  C   UNL     1      19.793  -8.588  26.576  0.00  0.00    +0.000 A 
ATOM     17  C   UNL     1      18.752  -7.728  26.869  0.00  0.00    +0.000 A 
ATOM     18  C   UNL     1      18.889  -6.423  26.421  0.00  0.00    +0.000 A 
ATOM     19  C   UNL     1      20.001  -6.030  25.730  0.00  0.00    +0.000 A 
ENDBRANCH  12  17
ENDBRANCH   1  12
TORSDOF 4
ENDMDL
MODEL 8
REMARK VINA RESULT:      -5.4     18.643     21.379
REMARK  Name = 
REMARK  4 active torsions:
REMARK  status: ('A' for Active; 'I' for Inactive)
REMARK    1  A    between atoms: C_5  and  N_6
REMARK    2  A    between atoms: N_6  and  C_7
REMARK    3  A    between atoms: C_7  and  N_9
REMARK    4  A    between atoms: C_10  and  C_12
REMARK                            x       y       z     vdW  Elec       q    Type
REMARK                         _______ _______ _______ _____ _____    ______ ____
ROOT
ATOM      1  C   UNL     1      34.165  -5.545  34.591  0.00  0.00    +0.000 C 
ATOM      2  S   UNL     1      35.043  -6.005  35.892  0.00  0.00    +0.000 S 
ENDROOT
BRANCH   1   3
ATOM      3  N   UNL     1      34.172  -4.135  34.309  0.00  0.00    +0.000 NA
ATOM      4  C   UNL     1      33.052  -3.306  34.525  0.00  0.00    +0.000 C 
ATOM      5  O   UNL     1      32.010  -3.839  34.984  0.00  0.00    +0.000 OA
BRANCH   4   6
ATOM      6  C   UNL     1      33.043  -1.875  34.243  0.00  0.00    +0.000 A 
ATOM      7  C   UNL     1      32.255  -0.905  34.819  0.00  0.00    +0.000 A 
ATOM      8  C   UNL     1      32.584   0.322  34.248  0.00  0.00    +0.000 A 
ATOM      9  N   UNL     1      33.551   0.069  33.350  0.00  0.00    +0.000 N 
ATOM     10  C   UNL     1      34.179   1.111  32.523  0.00  0.00    +0.000 C 
ATOM     11  N   UNL     1      33.810  -1.220  33.358  0.00  0.00    +0.000 NA
ENDBRANCH   4   6
ENDBRANCH   1   3
BRANCH   1  12
ATOM     12  N   UNL     1      33.457  -6.473  33.811  0.00  0.00    +0.000 NA
BRANCH  12  17
ATOM     13  C   UNL     1      33.566  -6.045  28.139  0.00  0.00    +0.000 C 
ATOM     14  C   UNL     1      33.522  -6.154  29.613  0.00  0.00    +0.000 A 
ATOM     15  C   UNL     1      34.690  -6.379  30.303  0.00  0.00    +0.000 A 
ATOM     16  C   UNL     1      34.666  -6.482  31.662  0.00  0.00    +0.000 A 
ATOM     17  C   UNL     1      33.510  -6.370  32.409  0.00  0.00    +0.000 A 
ATOM     18  C   UNL     1      32.339  -6.143  31.700  0.00  0.00    +0.000 A 
ATOM     19  C   UNL     1      32.353  -6.038  30.337  0.00  0.00    +0.000 A 
ENDBRANCH  12  17
ENDBRANCH   1  12
TORSDOF 4
ENDMDL
MODEL 9
REMARK VINA RESULT:      -5.3     17.405     19.452
REMARK  Name = 
REMARK  4 active torsions:
REMARK  status: ('A' for Active; 'I' for Inactive)
REMARK    1  A    between atoms: C_5  and  N_6
REMARK    2  A    between atoms: N_6  and  C_7
REMARK    3  A    between atoms: C_7  and  N_9
REMARK    4  A    between atoms: C_10  and  C_12
REMARK                            x       y       z     vdW  Elec       q    Type
REMARK                         _______ _______ _______ _____ _____    ______ ____
ROOT
ATOM      1  C   UNL     1      34.336  -1.115  35.571  0.00  0.00    +0.000 C 
ATOM      2  S   UNL     1      35.759  -1.276  36.360  0.00  0.00    +0.000 S 
ENDROOT
BRANCH   1   3
ATOM      3  N   UNL     1      34.119  -2.045  34.496  0.00  0.00    +0.000 NA
ATOM      4  C   UNL     1      33.380  -3.235  34.650  0.00  0.00    +0.000 C 
ATOM      5  O   UNL     1      32.896  -3.480  35.785  0.00  0.00    +0.000 OA
BRANCH   4   6
ATOM      6  C   UNL     1      33.151  -4.188  33.570  0.00  0.00    +0.000 A 
ATOM      7  C   UNL     1      32.412  -5.349  33.608  0.00  0.00    +0.000 A 
ATOM      8  C   UNL     1      32.467  -5.943  32.349  0.00  0.00    +0.000 A 
ATOM      9  N   UNL     1      33.228  -5.138  31.589  0.00  0.00    +0.000 N 
ATOM     10  C   UNL     1      33.534  -5.414  30.176  0.00  0.00    +0.000 C 
ATOM     11  N   UNL     1      33.621  -4.115  32.315  0.00  0.00    +0.000 NA
ENDBRANCH   4   6
ENDBRANCH   1   3
BRANCH   1  12
ATOM     12  N   UNL     1      33.398  -0.134  35.928  0.00  0.00    +0.000 NA
BRANCH  12  17
ATOM     13  C   UNL     1      34.365   5.295  34.528  0.00  0.00    +0.000 C 
ATOM     14  C   UNL     1      34.118   3.887  34.907  0.00  0.00    +0.000 A 
ATOM     15  C   UNL     1      33.714   2.996  33.942  0.00  0.00    +0.000 A 
ATOM     16  C   UNL     1      33.481   1.695  34.275  0.00  0.00    +0.000 A 
ATOM     17  C   UNL     1      33.631   1.203  35.557  0.00  0.00    +0.000 A 
ATOM     18  C   UNL     1      34.040   2.114  36.520  0.00  0.00    +0.000 A 
ATOM     19  C   UNL     1      34.275   3.421  36.196  0.00  0.00    +0.000 A 
ENDBRANCH  12  17
ENDBRANCH   1  12
TORSDOF 4
ENDMDL
MODEL 10
REMARK VINA RESULT:      -5.2     18.047     19.686
REMARK  Name = 
REMARK  4 active torsions:
REMARK  status: ('A' for Active; 'I' for Inactive)
REMARK    1  A    between atoms: C_5  and  N_6
REMARK    2  A    between atoms: N_6  and  C_7
REMARK    3  A    between atoms: C_7  and  N_9
REMARK    4  A    between atoms: C_10  and  C_12
REMARK                            x       y       z     vdW  Elec       q    Type
REMARK                         _______ _______ _______ _____ _____    ______ ____
ROOT
ATOM      1  C   UNL     1      26.645  23.311  26.675  0.00  0.00    +0.000 C 
ATOM      2  S   UNL     1      25.742  24.427  27.457  0.00  0.00    +0.000 S 
ENDROOT
BRANCH   1   3
ATOM      3  N   UNL     1      27.731  22.752  27.436  0.00  0.00    +0.000 NA
ATOM      4  C   UNL     1      28.985  23.384  27.557  0.00  0.00    +0.000 C 
ATOM      5  O   UNL     1      29.146  24.483  26.968  0.00  0.00    +0.000 OA
BRANCH   4   6
ATOM      6  C   UNL     1      30.095  22.830  28.324  0.00  0.00    +0.000 A 
ATOM      7  C   UNL     1      31.325  22.423  27.859  0.00  0.00    +0.000 A 
ATOM      8  C   UNL     1      32.071  21.962  28.942  0.00  0.00    +0.000 A 
ATOM      9  N   UNL     1      31.285  22.100  30.023  0.00  0.00    +0.000 N 
ATOM     10  C   UNL     1      31.707  21.723  31.381  0.00  0.00    +0.000 C 
ATOM     11  N   UNL     1      30.132  22.609  29.648  0.00  0.00    +0.000 NA
ENDBRANCH   4   6
ENDBRANCH   1   3
BRANCH   1  12
ATOM     12  N   UNL     1      26.372  22.932  25.351  0.00  0.00    +0.000 NA
BRANCH  12  17
ATOM     13  C   UNL     1      29.299  25.359  21.118  0.00  0.00    +0.000 C 
ATOM     14  C   UNL     1      28.549  24.717  22.220  0.00  0.00    +0.000 A 
ATOM     15  C   UNL     1      27.352  25.261  22.621  0.00  0.00    +0.000 A 
ATOM     16  C   UNL     1      26.650  24.682  23.635  0.00  0.00    +0.000 A 
ATOM     17  C   UNL     1      27.077  23.550  24.302  0.00  0.00    +0.000 A 
ATOM     18  C   UNL     1      28.286  23.012  23.887  0.00  0.00    +0.000 A 
ATOM     19  C   UNL     1      28.998  23.586  22.871  0.00  0.00    +0.000 A 
ENDBRANCH  12  17
ENDBRANCH   1  12
TORSDOF 4
ENDMDL
