MODEL 1
REMARK VINA RESULT:      -6.5      0.000      0.000
REMARK  Name = 
REMARK  2 active torsions:
REMARK  status: ('A' for Active; 'I' for Inactive)
REMARK    1  A    between atoms: C_7  and  C_8
REMARK    2  A    between atoms: C_8  and  C_10
REMARK                            x       y       z     vdW  Elec       q    Type
REMARK                         _______ _______ _______ _____ _____    ______ ____
ROOT
ATOM      1  C   UNL     1      28.130  22.035  27.102  0.00  0.00    +0.000 C 
ATOM      2  C   UNL     1      28.495  22.758  25.844  0.00  0.00    +0.000 A 
ATOM      3  C   UNL     1      27.518  23.124  24.936  0.00  0.00    +0.000 A 
ATOM      4  C   UNL     1      26.106  22.806  25.234  0.00  0.00    +0.000 C 
ATOM      5  C   UNL     1      27.860  23.801  23.791  0.00  0.00    +0.000 A 
ATOM      6  C   UNL     1      26.805  24.180  22.822  0.00  0.00    +0.000 C 
ATOM      7  C   UNL     1      29.188  24.141  23.519  0.00  0.00    +0.000 A 
ATOM      8  C   UNL     1      30.121  23.789  24.400  0.00  0.00    +0.000 A 
ATOM      9  C   UNL     1      31.577  24.138  24.160  0.00  0.00    +0.000 C 
ATOM     10  C   UNL     1      29.820  23.084  25.591  0.00  0.00    +0.000 A 
ATOM     11  C   UNL     1      30.937  22.673  26.513  0.00  0.00    +0.000 C 
ENDROOT
BRANCH   7  12
ATOM     12  C   UNL     1      29.438  24.727  22.194  0.00  0.00    +0.000 C 
ATOM     13  O   UNL     1      29.687  24.126  21.172  0.00  0.00    +0.000 OA
BRANCH  12  14
ATOM     14  C   UNL     1      29.387  26.221  22.173  0.00  0.00    +0.000 A 
ATOM     15  C   UNL     1      29.393  26.986  23.311  0.00  0.00    +0.000 A 
ATOM     16  C   UNL     1      29.303  28.352  23.115  0.00  0.00    +0.000 A 
ATOM     17  C   UNL     1      29.220  28.924  21.886  0.00  0.00    +0.000 A 
ATOM     18  N   UNL     1      29.133  30.364  21.803  0.00  0.00    +0.000 NA
ATOM     19  C   UNL     1      29.230  28.119  20.747  0.00  0.00    +0.000 A 
ATOM     20  C   UNL     1      29.310  26.755  20.889  0.00  0.00    +0.000 A 
ENDBRANCH  12  14
ENDBRANCH   7  12
TORSDOF 2
ENDMDL
MODEL 2
REMARK VINA RESULT:      -6.4      1.799      2.547
REMARK  Name = 
REMARK  2 active torsions:
REMARK  status: ('A' for Active; 'I' for Inactive)
REMARK    1  A    between atoms: C_7  and  C_8
REMARK    2  A    between atoms: C_8  and  C_10
REMARK                            x       y       z     vdW  Elec       q    Type
REMARK                         _______ _______ _______ _____ _____    ______ ____
ROOT
ATOM      1  C   UNL     1      28.454  22.740  29.324  0.00  0.00    +0.000 C 
ATOM      2  C   UNL     1      28.170  22.965  27.872  0.00  0.00    +0.000 A 
ATOM      3  C   UNL     1      26.960  23.499  27.469  0.00  0.00    +0.000 A 
ATOM      4  C   UNL     1      25.957  23.861  28.492  0.00  0.00    +0.000 C 
ATOM      5  C   UNL     1      26.713  23.716  26.135  0.00  0.00    +0.000 A 
ATOM      6  C   UNL     1      25.409  24.280  25.714  0.00  0.00    +0.000 C 
ATOM      7  C   UNL     1      27.670  23.414  25.162  0.00  0.00    +0.000 A 
ATOM      8  C   UNL     1      28.833  22.905  25.560  0.00  0.00    +0.000 A 
ATOM      9  C   UNL     1      29.911  22.565  24.549  0.00  0.00    +0.000 C 
ATOM     10  C   UNL     1      29.133  22.656  26.921  0.00  0.00    +0.000 A 
ATOM     11  C   UNL     1      30.450  22.028  27.290  0.00  0.00    +0.000 C 
ENDROOT
BRANCH   7  12
ATOM     12  C   UNL     1      27.226  23.550  23.767  0.00  0.00    +0.000 C 
ATOM     13  O   UNL     1      26.447  22.831  23.181  0.00  0.00    +0.000 OA
BRANCH  12  14
ATOM     14  C   UNL     1      27.851  24.699  23.043  0.00  0.00    +0.000 A 
ATOM     15  C   UNL     1      27.868  25.977  23.539  0.00  0.00    +0.000 A 
ATOM     16  C   UNL     1      28.454  26.929  22.724  0.00  0.00    +0.000 A 
ATOM     17  C   UNL     1      28.991  26.641  21.511  0.00  0.00    +0.000 A 
ATOM     18  N   UNL     1      29.579  27.718  20.748  0.00  0.00    +0.000 NA
ATOM     19  C   UNL     1      28.970  25.328  21.039  0.00  0.00    +0.000 A 
ATOM     20  C   UNL     1      28.392  24.347  21.809  0.00  0.00    +0.000 A 
ENDBRANCH  12  14
ENDBRANCH   7  12
TORSDOF 2
ENDMDL
MODEL 3
REMARK VINA RESULT:      -6.2      1.452      2.959
REMARK  Name = 
REMARK  2 active torsions:
REMARK  status: ('A' for Active; 'I' for Inactive)
REMARK    1  A    between atoms: C_7  and  C_8
REMARK    2  A    between atoms: C_8  and  C_10
REMARK                            x       y       z     vdW  Elec       q    Type
REMARK                         _______ _______ _______ _____ _____    ______ ____
ROOT
ATOM      1  C   UNL     1      28.282  22.690  28.916  0.00  0.00    +0.000 C 
ATOM      2  C   UNL     1      28.211  22.927  27.440  0.00  0.00    +0.000 A 
ATOM      3  C   UNL     1      29.284  22.611  26.626  0.00  0.00    +0.000 A 
ATOM      4  C   UNL     1      30.496  22.022  27.233  0.00  0.00    +0.000 C 
ATOM      5  C   UNL     1      29.205  22.818  25.271  0.00  0.00    +0.000 A 
ATOM      6  C   UNL     1      30.364  22.485  24.410  0.00  0.00    +0.000 C 
ATOM      7  C   UNL     1      28.049  23.339  24.683  0.00  0.00    +0.000 A 
ATOM      8  C   UNL     1      27.020  23.635  25.473  0.00  0.00    +0.000 A 
ATOM      9  C   UNL     1      25.737  24.195  24.888  0.00  0.00    +0.000 C 
ATOM     10  C   UNL     1      27.054  23.448  26.876  0.00  0.00    +0.000 A 
ATOM     11  C   UNL     1      25.870  23.856  27.710  0.00  0.00    +0.000 C 
ENDROOT
BRANCH   7  12
ATOM     12  C   UNL     1      28.148  23.653  23.250  0.00  0.00    +0.000 C 
ATOM     13  O   UNL     1      28.058  22.872  22.329  0.00  0.00    +0.000 OA
BRANCH  12  14
ATOM     14  C   UNL     1      28.405  25.098  22.964  0.00  0.00    +0.000 A 
ATOM     15  C   UNL     1      29.359  25.832  23.620  0.00  0.00    +0.000 A 
ATOM     16  C   UNL     1      29.442  27.165  23.260  0.00  0.00    +0.000 A 
ATOM     17  C   UNL     1      28.647  27.732  22.316  0.00  0.00    +0.000 A 
ATOM     18  N   UNL     1      28.825  29.135  22.021  0.00  0.00    +0.000 NA
ATOM     19  C   UNL     1      27.695  26.954  21.656  0.00  0.00    +0.000 A 
ATOM     20  C   UNL     1      27.569  25.626  21.984  0.00  0.00    +0.000 A 
ENDBRANCH  12  14
ENDBRANCH   7  12
TORSDOF 2
ENDMDL
MODEL 4
REMARK VINA RESULT:      -5.9     20.427     23.167
REMARK  Name = 
REMARK  2 active torsions:
REMARK  status: ('A' for Active; 'I' for Inactive)
REMARK    1  A    between atoms: C_7  and  C_8
REMARK    2  A    between atoms: C_8  and  C_10
REMARK                            x       y       z     vdW  Elec       q    Type
REMARK                         _______ _______ _______ _____ _____    ______ ____
ROOT
ATOM      1  C   UNL     1      14.824   9.599  40.572  0.00  0.00    +0.000 C 
ATOM      2  C   UNL     1      16.109   9.857  39.849  0.00  0.00    +0.000 A 
ATOM      3  C   UNL     1      16.112  10.548  38.651  0.00  0.00    +0.000 A 
ATOM      4  C   UNL     1      14.832  11.044  38.104  0.00  0.00    +0.000 C 
ATOM      5  C   UNL     1      17.297  10.794  38.001  0.00  0.00    +0.000 A 
ATOM      6  C   UNL     1      17.288  11.527  36.714  0.00  0.00    +0.000 C 
ATOM      7  C   UNL     1      18.517  10.363  38.530  0.00  0.00    +0.000 A 
ATOM      8  C   UNL     1      18.504   9.703  39.686  0.00  0.00    +0.000 A 
ATOM      9  C   UNL     1      19.799   9.219  40.311  0.00  0.00    +0.000 C 
ATOM     10  C   UNL     1      17.309   9.419  40.390  0.00  0.00    +0.000 A 
ATOM     11  C   UNL     1      17.370   8.620  41.665  0.00  0.00    +0.000 C 
ENDROOT
BRANCH   7  12
ATOM     12  C   UNL     1      19.691  10.555  37.666  0.00  0.00    +0.000 C 
ATOM     13  O   UNL     1      19.998   9.887  36.704  0.00  0.00    +0.000 OA
BRANCH  12  14
ATOM     14  C   UNL     1      20.568  11.693  38.080  0.00  0.00    +0.000 A 
ATOM     15  C   UNL     1      20.079  12.923  38.438  0.00  0.00    +0.000 A 
ATOM     16  C   UNL     1      21.030  13.875  38.758  0.00  0.00    +0.000 A 
ATOM     17  C   UNL     1      22.366  13.631  38.734  0.00  0.00    +0.000 A 
ATOM     18  N   UNL     1      23.266  14.704  39.091  0.00  0.00    +0.000 NA
ATOM     19  C   UNL     1      22.831  12.365  38.379  0.00  0.00    +0.000 A 
ATOM     20  C   UNL     1      21.926  11.387  38.044  0.00  0.00    +0.000 A 
ENDBRANCH  12  14
ENDBRANCH   7  12
TORSDOF 2
ENDMDL
MODEL 5
REMARK VINA RESULT:      -5.9     16.942     19.484
REMARK  Name = 
REMARK  2 active torsions:
REMARK  status: ('A' for Active; 'I' for Inactive)
REMARK    1  A    between atoms: C_7  and  C_8
REMARK    2  A    between atoms: C_8  and  C_10
REMARK                            x       y       z     vdW  Elec       q    Type
REMARK                         _______ _______ _______ _____ _____    ______ ____
ROOT
ATOM      1  C   UNL     1      14.505  24.522  21.595  0.00  0.00    +0.000 C 
ATOM      2  C   UNL     1      13.251  23.705  21.601  0.00  0.00    +0.000 A 
ATOM      3  C   UNL     1      13.222  22.462  20.996  0.00  0.00    +0.000 A 
ATOM      4  C   UNL     1      14.450  21.944  20.358  0.00  0.00    +0.000 C 
ATOM      5  C   UNL     1      12.071  21.712  21.019  0.00  0.00    +0.000 A 
ATOM      6  C   UNL     1      12.048  20.385  20.360  0.00  0.00    +0.000 C 
ATOM      7  C   UNL     1      10.916  22.176  21.653  0.00  0.00    +0.000 A 
ATOM      8  C   UNL     1      10.955  23.372  22.237  0.00  0.00    +0.000 A 
ATOM      9  C   UNL     1       9.733  23.922  22.947  0.00  0.00    +0.000 C 
ATOM     10  C   UNL     1      12.114  24.185  22.234  0.00  0.00    +0.000 A 
ATOM     11  C   UNL     1      12.066  25.549  22.869  0.00  0.00    +0.000 C 
ENDROOT
BRANCH   7  12
ATOM     12  C   UNL     1       9.713  21.349  21.475  0.00  0.00    +0.000 C 
ATOM     13  O   UNL     1       9.256  20.556  22.268  0.00  0.00    +0.000 OA
BRANCH  12  14
ATOM     14  C   UNL     1       9.042  21.535  20.152  0.00  0.00    +0.000 A 
ATOM     15  C   UNL     1       9.007  22.737  19.493  0.00  0.00    +0.000 A 
ATOM     16  C   UNL     1       8.312  22.744  18.296  0.00  0.00    +0.000 A 
ATOM     17  C   UNL     1       7.701  21.645  17.785  0.00  0.00    +0.000 A 
ATOM     18  N   UNL     1       7.005  21.771  16.524  0.00  0.00    +0.000 NA
ATOM     19  C   UNL     1       7.766  20.433  18.473  0.00  0.00    +0.000 A 
ATOM     20  C   UNL     1       8.438  20.376  19.670  0.00  0.00    +0.000 A 
ENDBRANCH  12  14
ENDBRANCH   7  12
TORSDOF 2
ENDMDL
MODEL 6
REMARK VINA RESULT:      -5.8      2.938      4.337
REMARK  Name = 
REMARK  2 active torsions:
REMARK  status: ('A' for Active; 'I' for Inactive)
REMARK    1  A    between atoms: C_7  and  C_8
REMARK    2  A    between atoms: C_8  and  C_10
REMARK                            x       y       z     vdW  Elec       q    Type
REMARK                         _______ _______ _______ _____ _____    ______ ____
ROOT
ATOM      1  C   UNL     1      24.265  25.494  27.607  0.00  0.00    +0.000 C 
ATOM      2  C   UNL     1      25.395  24.972  26.775  0.00  0.00    +0.000 A 
ATOM      3  C   UNL     1      25.596  25.445  25.491  0.00  0.00    +0.000 A 
ATOM      4  C   UNL     1      24.691  26.484  24.958  0.00  0.00    +0.000 C 
ATOM      5  C   UNL     1      26.644  24.972  24.739  0.00  0.00    +0.000 A 
ATOM      6  C   UNL     1      26.844  25.479  23.361  0.00  0.00    +0.000 C 
ATOM      7  C   UNL     1      27.529  24.018  25.248  0.00  0.00    +0.000 A 
ATOM      8  C   UNL     1      27.330  23.573  26.487  0.00  0.00    +0.000 A 
ATOM      9  C   UNL     1      28.264  22.542  27.094  0.00  0.00    +0.000 C 
ATOM     10  C   UNL     1      26.261  24.023  27.298  0.00  0.00    +0.000 A 
ATOM     11  C   UNL     1      26.069  23.433  28.670  0.00  0.00    +0.000 C 
ENDROOT
BRANCH   7  12
ATOM     12  C   UNL     1      28.512  23.485  24.293  0.00  0.00    +0.000 C 
ATOM     13  O   UNL     1      28.301  22.688  23.406  0.00  0.00    +0.000 OA
BRANCH  12  14
ATOM     14  C   UNL     1      29.899  24.000  24.503  0.00  0.00    +0.000 A 
ATOM     15  C   UNL     1      30.175  25.312  24.790  0.00  0.00    +0.000 A 
ATOM     16  C   UNL     1      31.516  25.629  24.917  0.00  0.00    +0.000 A 
ATOM     17  C   UNL     1      32.512  24.717  24.777  0.00  0.00    +0.000 A 
ATOM     18  N   UNL     1      33.878  25.163  24.934  0.00  0.00    +0.000 NA
ATOM     19  C   UNL     1      32.198  23.387  24.499  0.00  0.00    +0.000 A 
ATOM     20  C   UNL     1      30.881  23.023  24.356  0.00  0.00    +0.000 A 
ENDBRANCH  12  14
ENDBRANCH   7  12
TORSDOF 2
ENDMDL
MODEL 7
REMARK VINA RESULT:      -5.8      3.105      4.404
REMARK  Name = 
REMARK  2 active torsions:
REMARK  status: ('A' for Active; 'I' for Inactive)
REMARK    1  A    between atoms: C_7  and  C_8
REMARK    2  A    between atoms: C_8  and  C_10
REMARK                            x       y       z     vdW  Elec       q    Type
REMARK                         _______ _______ _______ _____ _____    ______ ____
ROOT
ATOM      1  C   UNL     1      25.567  25.267  30.476  0.00  0.00    +0.000 C 
ATOM      2  C   UNL     1      25.719  24.820  29.055  0.00  0.00    +0.000 A 
ATOM      3  C   UNL     1      24.985  25.422  28.049  0.00  0.00    +0.000 A 
ATOM      4  C   UNL     1      24.062  26.523  28.394  0.00  0.00    +0.000 C 
ATOM      5  C   UNL     1      25.141  25.017  26.746  0.00  0.00    +0.000 A 
ATOM      6  C   UNL     1      24.343  25.663  25.678  0.00  0.00    +0.000 C 
ATOM      7  C   UNL     1      26.040  24.003  26.405  0.00  0.00    +0.000 A 
ATOM      8  C   UNL     1      26.746  23.433  27.379  0.00  0.00    +0.000 A 
ATOM      9  C   UNL     1      27.742  22.333  27.066  0.00  0.00    +0.000 C 
ATOM     10  C   UNL     1      26.615  23.810  28.738  0.00  0.00    +0.000 A 
ATOM     11  C   UNL     1      27.408  23.082  29.790  0.00  0.00    +0.000 C 
ENDROOT
BRANCH   7  12
ATOM     12  C   UNL     1      26.002  23.560  25.003  0.00  0.00    +0.000 C 
ATOM     13  O   UNL     1      25.305  22.685  24.539  0.00  0.00    +0.000 OA
BRANCH  12  14
ATOM     14  C   UNL     1      26.957  24.288  24.113  0.00  0.00    +0.000 A 
ATOM     15  C   UNL     1      27.838  25.233  24.572  0.00  0.00    +0.000 A 
ATOM     16  C   UNL     1      28.626  25.837  23.609  0.00  0.00    +0.000 A 
ATOM     17  C   UNL     1      28.554  25.527  22.288  0.00  0.00    +0.000 A 
ATOM     18  N   UNL     1      29.430  26.223  21.373  0.00  0.00    +0.000 NA
ATOM     19  C   UNL     1      27.657  24.551  21.854  0.00  0.00    +0.000 A 
ATOM     20  C   UNL     1      26.847  23.928  22.772  0.00  0.00    +0.000 A 
ENDBRANCH  12  14
ENDBRANCH   7  12
TORSDOF 2
ENDMDL
MODEL 8
REMARK VINA RESULT:      -5.8     22.130     24.570
REMARK  Name = 
REMARK  2 active torsions:
REMARK  status: ('A' for Active; 'I' for Inactive)
REMARK    1  A    between atoms: C_7  and  C_8
REMARK    2  A    between atoms: C_8  and  C_10
REMARK                            x       y       z     vdW  Elec       q    Type
REMARK                         _______ _______ _______ _____ _____    ______ ____
ROOT
ATOM      1  C   UNL     1      18.251   5.679  41.730  0.00  0.00    +0.000 C 
ATOM      2  C   UNL     1      18.460   6.963  40.990  0.00  0.00    +0.000 A 
ATOM      3  C   UNL     1      17.406   7.836  40.789  0.00  0.00    +0.000 A 
ATOM      4  C   UNL     1      16.074   7.491  41.328  0.00  0.00    +0.000 C 
ATOM      5  C   UNL     1      17.610   9.019  40.122  0.00  0.00    +0.000 A 
ATOM      6  C   UNL     1      16.471   9.942  39.904  0.00  0.00    +0.000 C 
ATOM      7  C   UNL     1      18.874   9.373  39.642  0.00  0.00    +0.000 A 
ATOM      8  C   UNL     1      19.883   8.529  39.846  0.00  0.00    +0.000 A 
ATOM      9  C   UNL     1      21.278   8.865  39.354  0.00  0.00    +0.000 C 
ATOM     10  C   UNL     1      19.723   7.295  40.520  0.00  0.00    +0.000 A 
ATOM     11  C   UNL     1      20.900   6.369  40.664  0.00  0.00    +0.000 C 
ENDROOT
BRANCH   7  12
ATOM     12  C   UNL     1      18.926  10.589  38.817  0.00  0.00    +0.000 C 
ATOM     13  O   UNL     1      19.373  11.666  39.142  0.00  0.00    +0.000 OA
BRANCH  12  14
ATOM     14  C   UNL     1      18.334  10.421  37.454  0.00  0.00    +0.000 A 
ATOM     15  C   UNL     1      18.506   9.290  36.698  0.00  0.00    +0.000 A 
ATOM     16  C   UNL     1      17.921   9.314  35.444  0.00  0.00    +0.000 A 
ATOM     17  C   UNL     1      17.213  10.372  34.973  0.00  0.00    +0.000 A 
ATOM     18  N   UNL     1      16.645  10.283  33.647  0.00  0.00    +0.000 NA
ATOM     19  C   UNL     1      17.045  11.503  35.773  0.00  0.00    +0.000 A 
ATOM     20  C   UNL     1      17.613  11.531  37.023  0.00  0.00    +0.000 A 
ENDBRANCH  12  14
ENDBRANCH   7  12
TORSDOF 2
ENDMDL
MODEL 9
REMARK VINA RESULT:      -5.8      2.975      5.750
REMARK  Name = 
REMARK  2 active torsions:
REMARK  status: ('A' for Active; 'I' for Inactive)
REMARK    1  A    between atoms: C_7  and  C_8
REMARK    2  A    between atoms: C_8  and  C_10
REMARK                            x       y       z     vdW  Elec       q    Type
REMARK                         _______ _______ _______ _____ _____    ______ ____
ROOT
ATOM      1  C   UNL     1      27.431  29.290  22.726  0.00  0.00    +0.000 C 
ATOM      2  C   UNL     1      27.378  27.802  22.876  0.00  0.00    +0.000 A 
ATOM      3  C   UNL     1      26.504  27.218  23.774  0.00  0.00    +0.000 A 
ATOM      4  C   UNL     1      25.610  28.083  24.573  0.00  0.00    +0.000 C 
ATOM      5  C   UNL     1      26.451  25.851  23.894  0.00  0.00    +0.000 A 
ATOM      6  C   UNL     1      25.517  25.236  24.867  0.00  0.00    +0.000 C 
ATOM      7  C   UNL     1      27.264  25.023  23.116  0.00  0.00    +0.000 A 
ATOM      8  C   UNL     1      28.099  25.593  22.251  0.00  0.00    +0.000 A 
ATOM      9  C   UNL     1      28.999  24.743  21.375  0.00  0.00    +0.000 C 
ATOM     10  C   UNL     1      28.196  26.997  22.095  0.00  0.00    +0.000 A 
ATOM     11  C   UNL     1      29.202  27.571  21.134  0.00  0.00    +0.000 C 
ENDROOT
BRANCH   7  12
ATOM     12  C   UNL     1      27.221  23.591  23.448  0.00  0.00    +0.000 C 
ATOM     13  O   UNL     1      26.467  22.763  22.988  0.00  0.00    +0.000 OA
BRANCH  12  14
ATOM     14  C   UNL     1      28.221  23.179  24.480  0.00  0.00    +0.000 A 
ATOM     15  C   UNL     1      29.570  23.128  24.237  0.00  0.00    +0.000 A 
ATOM     16  C   UNL     1      30.352  22.691  25.291  0.00  0.00    +0.000 A 
ATOM     17  C   UNL     1      29.843  22.335  26.499  0.00  0.00    +0.000 A 
ATOM     18  N   UNL     1      30.758  21.894  27.527  0.00  0.00    +0.000 NA
ATOM     19  C   UNL     1      28.468  22.410  26.718  0.00  0.00    +0.000 A 
ATOM     20  C   UNL     1      27.647  22.832  25.700  0.00  0.00    +0.000 A 
ENDBRANCH  12  14
ENDBRANCH   7  12
TORSDOF 2
ENDMDL
MODEL 10
REMARK VINA RESULT:      -5.6     33.338     36.063
REMARK  Name = 
REMARK  2 active torsions:
REMARK  status: ('A' for Active; 'I' for Inactive)
REMARK    1  A    between atoms: C_7  and  C_8
REMARK    2  A    between atoms: C_8  and  C_10
REMARK                            x       y       z     vdW  Elec       q    Type
REMARK                         _______ _______ _______ _____ _____    ______ ____
ROOT
ATOM      1  C   UNL     1      15.428 -12.865  27.657  0.00  0.00    +0.000 C 
ATOM      2  C   UNL     1      15.954 -11.484  27.425  0.00  0.00    +0.000 A 
ATOM      3  C   UNL     1      16.786 -10.885  28.354  0.00  0.00    +0.000 A 
ATOM      4  C   UNL     1      17.160 -11.634  29.571  0.00  0.00    +0.000 C 
ATOM      5  C   UNL     1      17.277  -9.623  28.126  0.00  0.00    +0.000 A 
ATOM      6  C   UNL     1      18.159  -8.987  29.133  0.00  0.00    +0.000 C 
ATOM      7  C   UNL     1      16.960  -8.921  26.960  0.00  0.00    +0.000 A 
ATOM      8  C   UNL     1      16.163  -9.507  26.070  0.00  0.00    +0.000 A 
ATOM      9  C   UNL     1      15.792  -8.795  24.783  0.00  0.00    +0.000 C 
ATOM     10  C   UNL     1      15.625 -10.802  26.262  0.00  0.00    +0.000 A 
ATOM     11  C   UNL     1      14.688 -11.378  25.234  0.00  0.00    +0.000 C 
ENDROOT
BRANCH   7  12
ATOM     12  C   UNL     1      17.423  -7.526  26.908  0.00  0.00    +0.000 C 
ATOM     13  O   UNL     1      16.811  -6.546  27.267  0.00  0.00    +0.000 OA
BRANCH  12  14
ATOM     14  C   UNL     1      18.790  -7.365  26.323  0.00  0.00    +0.000 A 
ATOM     15  C   UNL     1      19.593  -8.426  25.993  0.00  0.00    +0.000 A 
ATOM     16  C   UNL     1      20.843  -8.099  25.497  0.00  0.00    +0.000 A 
ATOM     17  C   UNL     1      21.268  -6.820  25.333  0.00  0.00    +0.000 A 
ATOM     18  N   UNL     1      22.594  -6.600  24.804  0.00  0.00    +0.000 NA
ATOM     19  C   UNL     1      20.421  -5.762  25.665  0.00  0.00    +0.000 A 
ATOM     20  C   UNL     1      19.172  -6.034  26.169  0.00  0.00    +0.000 A 
ENDBRANCH  12  14
ENDBRANCH   7  12
TORSDOF 2
ENDMDL
