MODEL 1
REMARK VINA RESULT:      -7.5      0.000      0.000
REMARK  Name = 
REMARK  9 active torsions:
REMARK  status: ('A' for Active; 'I' for Inactive)
REMARK    1  A    between atoms: C_2  and  O_3
REMARK    2  A    between atoms: O_3  and  C_4
REMARK    3  A    between atoms: C_4  and  C_6
REMARK    4  A    between atoms: C_7  and  N_8
REMARK    5  A    between atoms: N_8  and  C_9
REMARK    6  A    between atoms: C_9  and  N_11
REMARK    7  A    between atoms: C_12  and  C_14
REMARK    8  A    between atoms: C_27  and  C_28
REMARK    9  A    between atoms: C_27  and  C_30
REMARK                            x       y       z     vdW  Elec       q    Type
REMARK                         _______ _______ _______ _____ _____    ______ ____
ROOT
ATOM      1  C   UNL     1      37.356  -1.221  15.683  0.00  0.00    +0.000 C 
ATOM      2  C   UNL     1      37.569  -0.057  15.049  0.00  0.00    +0.000 C 
ATOM      3  C   UNL     1      38.891   0.268  14.565  0.00  0.00    +0.000 A 
ATOM      4  C   UNL     1      39.075   1.413  13.798  0.00  0.00    +0.000 A 
ATOM      5  C   UNL     1      40.332   1.616  13.270  0.00  0.00    +0.000 A 
ATOM      6  C   UNL     1      41.377   0.728  13.484  0.00  0.00    +0.000 A 
ATOM      7  C   UNL     1      41.180  -0.403  14.248  0.00  0.00    +0.000 A 
ATOM      8  C   UNL     1      39.930  -0.597  14.771  0.00  0.00    +0.000 A 
ATOM      9  C   UNL     1      39.767  -1.772  15.710  0.00  0.00    +0.000 C 
ATOM     10  C   UNL     1      38.375  -2.269  15.490  0.00  0.00    +0.000 C 
ENDROOT
BRANCH   1  11
ATOM     11  C   UNL     1      36.097  -1.446  16.371  0.00  0.00    +0.000 C 
ATOM     12  O   UNL     1      35.101  -1.832  15.651  0.00  0.00    +0.000 OA
BRANCH  11  13
ATOM     13  O   UNL     1      35.835  -1.293  17.689  0.00  0.00    +0.000 OA
BRANCH  13  15
ATOM     14  C   UNL     1      37.277  -1.870  19.544  0.00  0.00    +0.000 C 
ATOM     15  C   UNL     1      36.698  -0.799  18.669  0.00  0.00    +0.000 C 
ENDBRANCH  13  15
ENDBRANCH  11  13
ENDBRANCH   1  11
BRANCH  10  16
ATOM     16  C   UNL     1      38.079  -3.586  16.098  0.00  0.00    +0.000 C 
ATOM     17  C   UNL     1      39.113  -3.905  17.151  0.00  0.00    +0.000 C 
ENDBRANCH  10  16
BRANCH  10  18
ATOM     18  C   UNL     1      38.334  -2.485  13.899  0.00  0.00    +0.000 C 
ATOM     19  C   UNL     1      37.365  -3.650  13.758  0.00  0.00    +0.000 C 
ENDBRANCH  10  18
BRANCH   2  20
ATOM     20  N   UNL     1      36.537   0.928  15.046  0.00  0.00    +0.000 NA
BRANCH  20  21
ATOM     21  C   UNL     1      36.326   1.829  16.106  0.00  0.00    +0.000 C 
ATOM     22  S   UNL     1      34.821   2.008  16.712  0.00  0.00    +0.000 S 
BRANCH  21  23
ATOM     23  N   UNL     1      37.359   2.606  16.693  0.00  0.00    +0.000 NA
ATOM     24  C   UNL     1      37.670   3.929  16.239  0.00  0.00    +0.000 C 
ATOM     25  O   UNL     1      36.965   4.355  15.288  0.00  0.00    +0.000 OA
BRANCH  24  26
ATOM     26  C   UNL     1      38.723   4.729  16.833  0.00  0.00    +0.000 A 
ATOM     27  C   UNL     1      39.723   5.335  16.110  0.00  0.00    +0.000 A 
ATOM     28  C   UNL     1      40.713   6.095  16.750  0.00  0.00    +0.000 A 
ATOM     29  C   UNL     1      40.692   6.244  18.119  0.00  0.00    +0.000 A 
ATOM     30  C   UNL     1      39.697   5.642  18.848  0.00  0.00    +0.000 A 
ATOM     31  C   UNL     1      38.732   4.898  18.197  0.00  0.00    +0.000 A 
ENDBRANCH  24  26
ENDBRANCH  21  23
ENDBRANCH  20  21
ENDBRANCH   2  20
TORSDOF 9
ENDMDL
MODEL 2
REMARK VINA RESULT:      -7.1      2.948      4.415
REMARK  Name = 
REMARK  9 active torsions:
REMARK  status: ('A' for Active; 'I' for Inactive)
REMARK    1  A    between atoms: C_2  and  O_3
REMARK    2  A    between atoms: O_3  and  C_4
REMARK    3  A    between atoms: C_4  and  C_6
REMARK    4  A    between atoms: C_7  and  N_8
REMARK    5  A    between atoms: N_8  and  C_9
REMARK    6  A    between atoms: C_9  and  N_11
REMARK    7  A    between atoms: C_12  and  C_14
REMARK    8  A    between atoms: C_27  and  C_28
REMARK    9  A    between atoms: C_27  and  C_30
REMARK                            x       y       z     vdW  Elec       q    Type
REMARK                         _______ _______ _______ _____ _____    ______ ____
ROOT
ATOM      1  C   UNL     1      37.492  -1.622  16.118  0.00  0.00    +0.000 C 
ATOM      2  C   UNL     1      38.140  -0.600  15.535  0.00  0.00    +0.000 C 
ATOM      3  C   UNL     1      39.500  -0.777  15.079  0.00  0.00    +0.000 A 
ATOM      4  C   UNL     1      40.116   0.242  14.363  0.00  0.00    +0.000 A 
ATOM      5  C   UNL     1      41.371  -0.021  13.856  0.00  0.00    +0.000 A 
ATOM      6  C   UNL     1      42.003  -1.242  14.043  0.00  0.00    +0.000 A 
ATOM      7  C   UNL     1      41.380  -2.243  14.757  0.00  0.00    +0.000 A 
ATOM      8  C   UNL     1      40.135  -1.974  15.259  0.00  0.00    +0.000 A 
ATOM      9  C   UNL     1      39.522  -3.035  16.146  0.00  0.00    +0.000 C 
ATOM     10  C   UNL     1      38.050  -2.968  15.891  0.00  0.00    +0.000 C 
ENDROOT
BRANCH   1  11
ATOM     11  C   UNL     1      36.223  -1.384  16.783  0.00  0.00    +0.000 C 
ATOM     12  O   UNL     1      35.161  -1.480  16.062  0.00  0.00    +0.000 OA
BRANCH  11  13
ATOM     13  O   UNL     1      36.016  -1.064  18.081  0.00  0.00    +0.000 OA
BRANCH  13  15
ATOM     14  C   UNL     1      37.443  -2.156  19.700  0.00  0.00    +0.000 C 
ATOM     15  C   UNL     1      36.985  -0.876  19.068  0.00  0.00    +0.000 C 
ENDBRANCH  13  15
ENDBRANCH  11  13
ENDBRANCH   1  11
BRANCH  10  16
ATOM     16  C   UNL     1      37.269  -4.099  16.440  0.00  0.00    +0.000 C 
ATOM     17  C   UNL     1      38.174  -4.996  17.251  0.00  0.00    +0.000 C 
ENDBRANCH  10  16
BRANCH  10  18
ATOM     18  C   UNL     1      37.972  -3.097  14.293  0.00  0.00    +0.000 C 
ATOM     19  C   UNL     1      36.699  -3.907  14.098  0.00  0.00    +0.000 C 
ENDBRANCH  10  18
BRANCH   2  20
ATOM     20  N   UNL     1      37.551   0.698  15.564  0.00  0.00    +0.000 NA
BRANCH  20  21
ATOM     21  C   UNL     1      36.698   1.183  14.555  0.00  0.00    +0.000 C 
ATOM     22  S   UNL     1      35.404   2.085  14.971  0.00  0.00    +0.000 S 
BRANCH  21  23
ATOM     23  N   UNL     1      36.898   0.932  13.172  0.00  0.00    +0.000 NA
ATOM     24  C   UNL     1      37.686   1.797  12.345  0.00  0.00    +0.000 C 
ATOM     25  O   UNL     1      38.189   2.791  12.928  0.00  0.00    +0.000 OA
BRANCH  24  26
ATOM     26  C   UNL     1      37.895   1.547  10.933  0.00  0.00    +0.000 A 
ATOM     27  C   UNL     1      36.973   1.848   9.959  0.00  0.00    +0.000 A 
ATOM     28  C   UNL     1      37.240   1.579   8.609  0.00  0.00    +0.000 A 
ATOM     29  C   UNL     1      38.437   1.007   8.242  0.00  0.00    +0.000 A 
ATOM     30  C   UNL     1      39.364   0.703   9.208  0.00  0.00    +0.000 A 
ATOM     31  C   UNL     1      39.080   0.977  10.533  0.00  0.00    +0.000 A 
ENDBRANCH  24  26
ENDBRANCH  21  23
ENDBRANCH  20  21
ENDBRANCH   2  20
TORSDOF 9
ENDMDL
MODEL 3
REMARK VINA RESULT:      -6.9      1.717      3.918
REMARK  Name = 
REMARK  9 active torsions:
REMARK  status: ('A' for Active; 'I' for Inactive)
REMARK    1  A    between atoms: C_2  and  O_3
REMARK    2  A    between atoms: O_3  and  C_4
REMARK    3  A    between atoms: C_4  and  C_6
REMARK    4  A    between atoms: C_7  and  N_8
REMARK    5  A    between atoms: N_8  and  C_9
REMARK    6  A    between atoms: C_9  and  N_11
REMARK    7  A    between atoms: C_12  and  C_14
REMARK    8  A    between atoms: C_27  and  C_28
REMARK    9  A    between atoms: C_27  and  C_30
REMARK                            x       y       z     vdW  Elec       q    Type
REMARK                         _______ _______ _______ _____ _____    ______ ____
ROOT
ATOM      1  C   UNL     1      38.325  -0.140  13.525  0.00  0.00    +0.000 C 
ATOM      2  C   UNL     1      37.670  -0.204  14.695  0.00  0.00    +0.000 C 
ATOM      3  C   UNL     1      38.009  -1.230  15.654  0.00  0.00    +0.000 A 
ATOM      4  C   UNL     1      37.417  -1.211  16.911  0.00  0.00    +0.000 A 
ATOM      5  C   UNL     1      37.858  -2.144  17.825  0.00  0.00    +0.000 A 
ATOM      6  C   UNL     1      38.848  -3.068  17.519  0.00  0.00    +0.000 A 
ATOM      7  C   UNL     1      39.425  -3.076  16.267  0.00  0.00    +0.000 A 
ATOM      8  C   UNL     1      38.980  -2.148  15.364  0.00  0.00    +0.000 A 
ATOM      9  C   UNL     1      39.532  -2.255  13.960  0.00  0.00    +0.000 C 
ATOM     10  C   UNL     1      39.615  -0.850  13.455  0.00  0.00    +0.000 C 
ENDROOT
BRANCH   1  11
ATOM     11  C   UNL     1      37.834   0.732  12.472  0.00  0.00    +0.000 C 
ATOM     12  O   UNL     1      36.890   0.271  11.727  0.00  0.00    +0.000 OA
BRANCH  11  13
ATOM     13  O   UNL     1      38.255   1.981  12.168  0.00  0.00    +0.000 OA
BRANCH  13  15
ATOM     14  C   UNL     1      40.269   3.194  12.736  0.00  0.00    +0.000 C 
ATOM     15  C   UNL     1      38.828   2.912  13.036  0.00  0.00    +0.000 C 
ENDBRANCH  13  15
ENDBRANCH  11  13
ENDBRANCH   1  11
BRANCH  10  16
ATOM     16  C   UNL     1      40.387  -0.682  12.203  0.00  0.00    +0.000 C 
ATOM     17  C   UNL     1      40.150  -1.865  11.296  0.00  0.00    +0.000 C 
ENDBRANCH  10  16
BRANCH  10  18
ATOM     18  C   UNL     1      40.461  -0.121  14.609  0.00  0.00    +0.000 C 
ATOM     19  C   UNL     1      41.842  -0.016  13.979  0.00  0.00    +0.000 C 
ENDBRANCH  10  18
BRANCH   2  20
ATOM     20  N   UNL     1      36.512   0.607  14.884  0.00  0.00    +0.000 NA
BRANCH  20  21
ATOM     21  C   UNL     1      36.332   1.450  15.996  0.00  0.00    +0.000 C 
ATOM     22  S   UNL     1      34.884   1.481  16.746  0.00  0.00    +0.000 S 
BRANCH  21  23
ATOM     23  N   UNL     1      37.352   2.290  16.516  0.00  0.00    +0.000 NA
ATOM     24  C   UNL     1      37.424   3.686  16.203  0.00  0.00    +0.000 C 
ATOM     25  O   UNL     1      36.523   4.116  15.438  0.00  0.00    +0.000 OA
BRANCH  24  26
ATOM     26  C   UNL     1      38.462   4.550  16.730  0.00  0.00    +0.000 A 
ATOM     27  C   UNL     1      39.395   5.189  15.949  0.00  0.00    +0.000 A 
ATOM     28  C   UNL     1      40.374   6.011  16.527  0.00  0.00    +0.000 A 
ATOM     29  C   UNL     1      40.408   6.190  17.891  0.00  0.00    +0.000 A 
ATOM     30  C   UNL     1      39.479   5.557  18.679  0.00  0.00    +0.000 A 
ATOM     31  C   UNL     1      38.524   4.751  18.089  0.00  0.00    +0.000 A 
ENDBRANCH  24  26
ENDBRANCH  21  23
ENDBRANCH  20  21
ENDBRANCH   2  20
TORSDOF 9
ENDMDL
MODEL 4
REMARK VINA RESULT:      -6.8      2.420      2.992
REMARK  Name = 
REMARK  9 active torsions:
REMARK  status: ('A' for Active; 'I' for Inactive)
REMARK    1  A    between atoms: C_2  and  O_3
REMARK    2  A    between atoms: O_3  and  C_4
REMARK    3  A    between atoms: C_4  and  C_6
REMARK    4  A    between atoms: C_7  and  N_8
REMARK    5  A    between atoms: N_8  and  C_9
REMARK    6  A    between atoms: C_9  and  N_11
REMARK    7  A    between atoms: C_12  and  C_14
REMARK    8  A    between atoms: C_27  and  C_28
REMARK    9  A    between atoms: C_27  and  C_30
REMARK                            x       y       z     vdW  Elec       q    Type
REMARK                         _______ _______ _______ _____ _____    ______ ____
ROOT
ATOM      1  C   UNL     1      38.125  -1.142  15.756  0.00  0.00    +0.000 C 
ATOM      2  C   UNL     1      38.838  -0.212  15.100  0.00  0.00    +0.000 C 
ATOM      3  C   UNL     1      40.158  -0.532  14.608  0.00  0.00    +0.000 A 
ATOM      4  C   UNL     1      40.835   0.391  13.820  0.00  0.00    +0.000 A 
ATOM      5  C   UNL     1      42.041  -0.008  13.285  0.00  0.00    +0.000 A 
ATOM      6  C   UNL     1      42.570  -1.271  13.512  0.00  0.00    +0.000 A 
ATOM      7  C   UNL     1      41.888  -2.176  14.297  0.00  0.00    +0.000 A 
ATOM      8  C   UNL     1      40.691  -1.772  14.827  0.00  0.00    +0.000 A 
ATOM      9  C   UNL     1      40.021  -2.730  15.787  0.00  0.00    +0.000 C 
ATOM     10  C   UNL     1      38.553  -2.542  15.580  0.00  0.00    +0.000 C 
ENDROOT
BRANCH   1  11
ATOM     11  C   UNL     1      36.909  -0.758  16.450  0.00  0.00    +0.000 C 
ATOM     12  O   UNL     1      35.804  -0.881  15.801  0.00  0.00    +0.000 OA
BRANCH  11  13
ATOM     13  O   UNL     1      36.791  -0.276  17.709  0.00  0.00    +0.000 OA
BRANCH  13  15
ATOM     14  C   UNL     1      37.274  -1.759  19.559  0.00  0.00    +0.000 C 
ATOM     15  C   UNL     1      36.261  -0.938  18.819  0.00  0.00    +0.000 C 
ENDBRANCH  13  15
ENDBRANCH  11  13
ENDBRANCH   1  11
BRANCH  10  16
ATOM     16  C   UNL     1      37.696  -3.570  16.212  0.00  0.00    +0.000 C 
ATOM     17  C   UNL     1      38.502  -4.356  17.218  0.00  0.00    +0.000 C 
ENDBRANCH  10  16
BRANCH  10  18
ATOM     18  C   UNL     1      38.402  -2.740  13.993  0.00  0.00    +0.000 C 
ATOM     19  C   UNL     1      37.124  -3.560  13.891  0.00  0.00    +0.000 C 
ENDBRANCH  10  18
BRANCH   2  20
ATOM     20  N   UNL     1      38.368   1.134  15.082  0.00  0.00    +0.000 NA
BRANCH  20  21
ATOM     21  C   UNL     1      37.642   1.686  14.011  0.00  0.00    +0.000 C 
ATOM     22  S   UNL     1      37.145   0.712  12.800  0.00  0.00    +0.000 S 
BRANCH  21  23
ATOM     23  N   UNL     1      37.308   3.063  13.916  0.00  0.00    +0.000 NA
ATOM     24  C   UNL     1      36.094   3.593  14.461  0.00  0.00    +0.000 C 
ATOM     25  O   UNL     1      35.345   2.756  15.029  0.00  0.00    +0.000 OA
BRANCH  24  26
ATOM     26  C   UNL     1      35.746   4.997  14.368  0.00  0.00    +0.000 A 
ATOM     27  C   UNL     1      34.473   5.455  14.127  0.00  0.00    +0.000 A 
ATOM     28  C   UNL     1      34.207   6.830  14.049  0.00  0.00    +0.000 A 
ATOM     29  C   UNL     1      35.225   7.741  14.216  0.00  0.00    +0.000 A 
ATOM     30  C   UNL     1      36.499   7.292  14.457  0.00  0.00    +0.000 A 
ATOM     31  C   UNL     1      36.739   5.933  14.530  0.00  0.00    +0.000 A 
ENDBRANCH  24  26
ENDBRANCH  21  23
ENDBRANCH  20  21
ENDBRANCH   2  20
TORSDOF 9
ENDMDL
MODEL 5
REMARK VINA RESULT:      -6.6      2.651      4.565
REMARK  Name = 
REMARK  9 active torsions:
REMARK  status: ('A' for Active; 'I' for Inactive)
REMARK    1  A    between atoms: C_2  and  O_3
REMARK    2  A    between atoms: O_3  and  C_4
REMARK    3  A    between atoms: C_4  and  C_6
REMARK    4  A    between atoms: C_7  and  N_8
REMARK    5  A    between atoms: N_8  and  C_9
REMARK    6  A    between atoms: C_9  and  N_11
REMARK    7  A    between atoms: C_12  and  C_14
REMARK    8  A    between atoms: C_27  and  C_28
REMARK    9  A    between atoms: C_27  and  C_30
REMARK                            x       y       z     vdW  Elec       q    Type
REMARK                         _______ _______ _______ _____ _____    ______ ____
ROOT
ATOM      1  C   UNL     1      37.490   0.245  13.128  0.00  0.00    +0.000 C 
ATOM      2  C   UNL     1      36.854   1.244  13.761  0.00  0.00    +0.000 C 
ATOM      3  C   UNL     1      36.122   0.974  14.977  0.00  0.00    +0.000 A 
ATOM      4  C   UNL     1      35.577   2.034  15.693  0.00  0.00    +0.000 A 
ATOM      5  C   UNL     1      34.986   1.732  16.901  0.00  0.00    +0.000 A 
ATOM      6  C   UNL     1      34.929   0.436  17.395  0.00  0.00    +0.000 A 
ATOM      7  C   UNL     1      35.472  -0.605  16.672  0.00  0.00    +0.000 A 
ATOM      8  C   UNL     1      36.056  -0.298  15.472  0.00  0.00    +0.000 A 
ATOM      9  C   UNL     1      36.531  -1.466  14.635  0.00  0.00    +0.000 C 
ATOM     10  C   UNL     1      37.746  -0.974  13.917  0.00  0.00    +0.000 C 
ENDROOT
BRANCH   1  11
ATOM     11  C   UNL     1      38.024   0.462  11.795  0.00  0.00    +0.000 C 
ATOM     12  O   UNL     1      37.185   0.435  10.819  0.00  0.00    +0.000 OA
BRANCH  11  13
ATOM     13  O   UNL     1      39.312   0.685  11.446  0.00  0.00    +0.000 OA
BRANCH  13  15
ATOM     14  C   UNL     1      40.362  -1.119  10.223  0.00  0.00    +0.000 C 
ATOM     15  C   UNL     1      39.938   0.319  10.253  0.00  0.00    +0.000 C 
ENDBRANCH  13  15
ENDBRANCH  11  13
ENDBRANCH   1  11
BRANCH  10  16
ATOM     16  C   UNL     1      38.546  -2.027  13.250  0.00  0.00    +0.000 C 
ATOM     17  C   UNL     1      37.897  -3.373  13.466  0.00  0.00    +0.000 C 
ENDBRANCH  10  16
BRANCH  10  18
ATOM     18  C   UNL     1      38.651  -0.410  15.118  0.00  0.00    +0.000 C 
ATOM     19  C   UNL     1      40.061  -0.629  14.588  0.00  0.00    +0.000 C 
ENDBRANCH  10  18
BRANCH   2  20
ATOM     20  N   UNL     1      36.739   2.509  13.113  0.00  0.00    +0.000 NA
BRANCH  20  21
ATOM     21  C   UNL     1      37.755   3.482  13.132  0.00  0.00    +0.000 C 
ATOM     22  S   UNL     1      38.125   4.274  11.754  0.00  0.00    +0.000 S 
BRANCH  21  23
ATOM     23  N   UNL     1      38.491   3.826  14.296  0.00  0.00    +0.000 NA
ATOM     24  C   UNL     1      38.066   4.862  15.190  0.00  0.00    +0.000 C 
ATOM     25  O   UNL     1      36.998   5.445  14.873  0.00  0.00    +0.000 OA
BRANCH  24  26
ATOM     26  C   UNL     1      38.813   5.218  16.381  0.00  0.00    +0.000 A 
ATOM     27  C   UNL     1      38.366   4.989  17.660  0.00  0.00    +0.000 A 
ATOM     28  C   UNL     1      39.140   5.360  18.769  0.00  0.00    +0.000 A 
ATOM     29  C   UNL     1      40.366   5.960  18.586  0.00  0.00    +0.000 A 
ATOM     30  C   UNL     1      40.820   6.192  17.311  0.00  0.00    +0.000 A 
ATOM     31  C   UNL     1      40.040   5.819  16.233  0.00  0.00    +0.000 A 
ENDBRANCH  24  26
ENDBRANCH  21  23
ENDBRANCH  20  21
ENDBRANCH   2  20
TORSDOF 9
ENDMDL
MODEL 6
REMARK VINA RESULT:      -6.1     28.333     30.749
REMARK  Name = 
REMARK  9 active torsions:
REMARK  status: ('A' for Active; 'I' for Inactive)
REMARK    1  A    between atoms: C_2  and  O_3
REMARK    2  A    between atoms: O_3  and  C_4
REMARK    3  A    between atoms: C_4  and  C_6
REMARK    4  A    between atoms: C_7  and  N_8
REMARK    5  A    between atoms: N_8  and  C_9
REMARK    6  A    between atoms: C_9  and  N_11
REMARK    7  A    between atoms: C_12  and  C_14
REMARK    8  A    between atoms: C_27  and  C_28
REMARK    9  A    between atoms: C_27  and  C_30
REMARK                            x       y       z     vdW  Elec       q    Type
REMARK                         _______ _______ _______ _____ _____    ______ ____
ROOT
ATOM      1  C   UNL     1      25.096 -12.913  40.256  0.00  0.00    +0.000 C 
ATOM      2  C   UNL     1      24.993 -11.699  39.691  0.00  0.00    +0.000 C 
ATOM      3  C   UNL     1      26.002 -10.697  39.950  0.00  0.00    +0.000 A 
ATOM      4  C   UNL     1      25.957  -9.490  39.261  0.00  0.00    +0.000 A 
ATOM      5  C   UNL     1      27.003  -8.616  39.463  0.00  0.00    +0.000 A 
ATOM      6  C   UNL     1      28.061  -8.912  40.311  0.00  0.00    +0.000 A 
ATOM      7  C   UNL     1      28.092 -10.112  40.989  0.00  0.00    +0.000 A 
ATOM      8  C   UNL     1      27.048 -10.975  40.785  0.00  0.00    +0.000 A 
ATOM      9  C   UNL     1      27.033 -12.227  41.633  0.00  0.00    +0.000 C 
ATOM     10  C   UNL     1      26.426 -13.287  40.770  0.00  0.00    +0.000 C 
ENDROOT
BRANCH   1  11
ATOM     11  C   UNL     1      23.976 -13.835  40.189  0.00  0.00    +0.000 C 
ATOM     12  O   UNL     1      23.884 -14.563  39.131  0.00  0.00    +0.000 OA
BRANCH  11  13
ATOM     13  O   UNL     1      23.002 -14.022  41.109  0.00  0.00    +0.000 OA
BRANCH  13  15
ATOM     14  C   UNL     1      23.185 -12.666  43.103  0.00  0.00    +0.000 C 
ATOM     15  C   UNL     1      23.144 -14.036  42.497  0.00  0.00    +0.000 C 
ENDBRANCH  13  15
ENDBRANCH  11  13
ENDBRANCH   1  11
BRANCH  10  16
ATOM     16  C   UNL     1      26.562 -14.667  41.288  0.00  0.00    +0.000 C 
ATOM     17  C   UNL     1      26.865 -14.629  42.767  0.00  0.00    +0.000 C 
ENDBRANCH  10  16
BRANCH  10  18
ATOM     18  C   UNL     1      27.330 -13.210  39.445  0.00  0.00    +0.000 C 
ATOM     19  C   UNL     1      27.685 -14.671  39.213  0.00  0.00    +0.000 C 
ENDBRANCH  10  18
BRANCH   2  20
ATOM     20  N   UNL     1      23.787 -11.351  39.015  0.00  0.00    +0.000 NA
BRANCH  20  21
ATOM     21  C   UNL     1      22.640 -10.874  39.675  0.00  0.00    +0.000 C 
ATOM     22  S   UNL     1      21.169 -11.385  39.189  0.00  0.00    +0.000 S 
BRANCH  21  23
ATOM     23  N   UNL     1      22.684  -9.958  40.759  0.00  0.00    +0.000 NA
ATOM     24  C   UNL     1      22.669  -8.539  40.559  0.00  0.00    +0.000 C 
ATOM     25  O   UNL     1      22.615  -8.161  39.361  0.00  0.00    +0.000 OA
BRANCH  24  26
ATOM     26  C   UNL     1      22.714  -7.597  41.661  0.00  0.00    +0.000 A 
ATOM     27  C   UNL     1      21.609  -7.206  42.378  0.00  0.00    +0.000 A 
ATOM     28  C   UNL     1      21.724  -6.289  43.432  0.00  0.00    +0.000 A 
ATOM     29  C   UNL     1      22.955  -5.769  43.765  0.00  0.00    +0.000 A 
ATOM     30  C   UNL     1      24.064  -6.155  43.055  0.00  0.00    +0.000 A 
ATOM     31  C   UNL     1      23.927  -7.059  42.018  0.00  0.00    +0.000 A 
ENDBRANCH  24  26
ENDBRANCH  21  23
ENDBRANCH  20  21
ENDBRANCH   2  20
TORSDOF 9
ENDMDL
MODEL 7
REMARK VINA RESULT:      -6.0      2.652      4.583
REMARK  Name = 
REMARK  9 active torsions:
REMARK  status: ('A' for Active; 'I' for Inactive)
REMARK    1  A    between atoms: C_2  and  O_3
REMARK    2  A    between atoms: O_3  and  C_4
REMARK    3  A    between atoms: C_4  and  C_6
REMARK    4  A    between atoms: C_7  and  N_8
REMARK    5  A    between atoms: N_8  and  C_9
REMARK    6  A    between atoms: C_9  and  N_11
REMARK    7  A    between atoms: C_12  and  C_14
REMARK    8  A    between atoms: C_27  and  C_28
REMARK    9  A    between atoms: C_27  and  C_30
REMARK                            x       y       z     vdW  Elec       q    Type
REMARK                         _______ _______ _______ _____ _____    ______ ____
ROOT
ATOM      1  C   UNL     1      39.842  -0.324  13.644  0.00  0.00    +0.000 C 
ATOM      2  C   UNL     1      39.041   0.161  14.607  0.00  0.00    +0.000 C 
ATOM      3  C   UNL     1      37.819  -0.534  14.944  0.00  0.00    +0.000 A 
ATOM      4  C   UNL     1      37.064  -0.099  16.026  0.00  0.00    +0.000 A 
ATOM      5  C   UNL     1      35.969  -0.862  16.372  0.00  0.00    +0.000 A 
ATOM      6  C   UNL     1      35.624  -2.015  15.682  0.00  0.00    +0.000 A 
ATOM      7  C   UNL     1      36.382  -2.434  14.609  0.00  0.00    +0.000 A 
ATOM      8  C   UNL     1      37.466  -1.670  14.270  0.00  0.00    +0.000 A 
ATOM      9  C   UNL     1      38.209  -2.072  13.015  0.00  0.00    +0.000 C 
ATOM     10  C   UNL     1      39.643  -1.737  13.274  0.00  0.00    +0.000 C 
ENDROOT
BRANCH   1  11
ATOM     11  C   UNL     1      40.938   0.487  13.145  0.00  0.00    +0.000 C 
ATOM     12  O   UNL     1      42.073   0.362  13.741  0.00  0.00    +0.000 OA
BRANCH  11  13
ATOM     13  O   UNL     1      40.915   1.373  12.123  0.00  0.00    +0.000 OA
BRANCH  13  15
ATOM     14  C   UNL     1      39.237   1.112  10.399  0.00  0.00    +0.000 C 
ATOM     15  C   UNL     1      40.689   1.096  10.773  0.00  0.00    +0.000 C 
ENDBRANCH  13  15
ENDBRANCH  11  13
ENDBRANCH   1  11
BRANCH  10  16
ATOM     16  C   UNL     1      40.602  -2.297  12.295  0.00  0.00    +0.000 C 
ATOM     17  C   UNL     1      39.899  -2.552  10.983  0.00  0.00    +0.000 C 
ENDBRANCH  10  16
BRANCH  10  18
ATOM     18  C   UNL     1      39.925  -2.489  14.665  0.00  0.00    +0.000 C 
ATOM     19  C   UNL     1      41.377  -2.917  14.510  0.00  0.00    +0.000 C 
ENDBRANCH  10  18
BRANCH   2  20
ATOM     20  N   UNL     1      39.303   1.459  15.136  0.00  0.00    +0.000 NA
BRANCH  20  21
ATOM     21  C   UNL     1      38.419   2.544  14.993  0.00  0.00    +0.000 C 
ATOM     22  S   UNL     1      37.562   2.699  13.613  0.00  0.00    +0.000 S 
BRANCH  21  23
ATOM     23  N   UNL     1      38.223   3.532  15.994  0.00  0.00    +0.000 NA
ATOM     24  C   UNL     1      39.053   4.697  16.090  0.00  0.00    +0.000 C 
ATOM     25  O   UNL     1      39.964   4.784  15.228  0.00  0.00    +0.000 OA
BRANCH  24  26
ATOM     26  C   UNL     1      38.858   5.709  17.109  0.00  0.00    +0.000 A 
ATOM     27  C   UNL     1      38.181   6.887  16.898  0.00  0.00    +0.000 A 
ATOM     28  C   UNL     1      38.031   7.824  17.930  0.00  0.00    +0.000 A 
ATOM     29  C   UNL     1      38.562   7.572  19.176  0.00  0.00    +0.000 A 
ATOM     30  C   UNL     1      39.239   6.398  19.395  0.00  0.00    +0.000 A 
ATOM     31  C   UNL     1      39.376   5.489  18.363  0.00  0.00    +0.000 A 
ENDBRANCH  24  26
ENDBRANCH  21  23
ENDBRANCH  20  21
ENDBRANCH   2  20
TORSDOF 9
ENDMDL
MODEL 8
REMARK VINA RESULT:      -5.9      3.599      6.791
REMARK  Name = 
REMARK  9 active torsions:
REMARK  status: ('A' for Active; 'I' for Inactive)
REMARK    1  A    between atoms: C_2  and  O_3
REMARK    2  A    between atoms: O_3  and  C_4
REMARK    3  A    between atoms: C_4  and  C_6
REMARK    4  A    between atoms: C_7  and  N_8
REMARK    5  A    between atoms: N_8  and  C_9
REMARK    6  A    between atoms: C_9  and  N_11
REMARK    7  A    between atoms: C_12  and  C_14
REMARK    8  A    between atoms: C_27  and  C_28
REMARK    9  A    between atoms: C_27  and  C_30
REMARK                            x       y       z     vdW  Elec       q    Type
REMARK                         _______ _______ _______ _____ _____    ______ ____
ROOT
ATOM      1  C   UNL     1      38.716   1.284  14.526  0.00  0.00    +0.000 C 
ATOM      2  C   UNL     1      39.695   0.368  14.588  0.00  0.00    +0.000 C 
ATOM      3  C   UNL     1      39.436  -0.922  15.184  0.00  0.00    +0.000 A 
ATOM      4  C   UNL     1      40.415  -1.908  15.128  0.00  0.00    +0.000 A 
ATOM      5  C   UNL     1      40.076  -3.153  15.612  0.00  0.00    +0.000 A 
ATOM      6  C   UNL     1      38.819  -3.428  16.134  0.00  0.00    +0.000 A 
ATOM      7  C   UNL     1      37.859  -2.440  16.184  0.00  0.00    +0.000 A 
ATOM      8  C   UNL     1      38.204  -1.204  15.704  0.00  0.00    +0.000 A 
ATOM      9  C   UNL     1      37.184  -0.102  15.885  0.00  0.00    +0.000 C 
ATOM     10  C   UNL     1      37.339   0.786  14.692  0.00  0.00    +0.000 C 
ENDROOT
BRANCH   1  11
ATOM     11  C   UNL     1      39.031   2.650  14.146  0.00  0.00    +0.000 C 
ATOM     12  O   UNL     1      38.971   2.935  12.892  0.00  0.00    +0.000 OA
BRANCH  11  13
ATOM     13  O   UNL     1      39.391   3.673  14.956  0.00  0.00    +0.000 OA
BRANCH  13  15
ATOM     14  C   UNL     1      38.090   4.292  16.899  0.00  0.00    +0.000 C 
ATOM     15  C   UNL     1      38.553   4.639  15.516  0.00  0.00    +0.000 C 
ENDBRANCH  13  15
ENDBRANCH  11  13
ENDBRANCH   1  11
BRANCH  10  16
ATOM     16  C   UNL     1      36.257   1.780  14.510  0.00  0.00    +0.000 C 
ATOM     17  C   UNL     1      35.393   1.826  15.747  0.00  0.00    +0.000 C 
ENDBRANCH  10  16
BRANCH  10  18
ATOM     18  C   UNL     1      37.210  -0.252  13.473  0.00  0.00    +0.000 C 
ATOM     19  C   UNL     1      36.643   0.623  12.365  0.00  0.00    +0.000 C 
ENDBRANCH  10  18
BRANCH   2  20
ATOM     20  N   UNL     1      41.027   0.756  14.255  0.00  0.00    +0.000 NA
BRANCH  20  21
ATOM     21  C   UNL     1      41.652   0.412  13.043  0.00  0.00    +0.000 C 
ATOM     22  S   UNL     1      43.073  -0.390  13.078  0.00  0.00    +0.000 S 
BRANCH  21  23
ATOM     23  N   UNL     1      41.113   0.724  11.766  0.00  0.00    +0.000 NA
ATOM     24  C   UNL     1      40.271  -0.188  11.050  0.00  0.00    +0.000 C 
ATOM     25  O   UNL     1      40.042  -1.281  11.628  0.00  0.00    +0.000 OA
BRANCH  24  26
ATOM     26  C   UNL     1      39.718   0.124   9.747  0.00  0.00    +0.000 A 
ATOM     27  C   UNL     1      38.747   1.074   9.535  0.00  0.00    +0.000 A 
ATOM     28  C   UNL     1      38.255   1.324   8.246  0.00  0.00    +0.000 A 
ATOM     29  C   UNL     1      38.745   0.617   7.170  0.00  0.00    +0.000 A 
ATOM     30  C   UNL     1      39.715  -0.333   7.372  0.00  0.00    +0.000 A 
ATOM     31  C   UNL     1      40.184  -0.563   8.652  0.00  0.00    +0.000 A 
ENDBRANCH  24  26
ENDBRANCH  21  23
ENDBRANCH  20  21
ENDBRANCH   2  20
TORSDOF 9
ENDMDL
MODEL 9
REMARK VINA RESULT:      -5.8     25.450     28.746
REMARK  Name = 
REMARK  9 active torsions:
REMARK  status: ('A' for Active; 'I' for Inactive)
REMARK    1  A    between atoms: C_2  and  O_3
REMARK    2  A    between atoms: O_3  and  C_4
REMARK    3  A    between atoms: C_4  and  C_6
REMARK    4  A    between atoms: C_7  and  N_8
REMARK    5  A    between atoms: N_8  and  C_9
REMARK    6  A    between atoms: C_9  and  N_11
REMARK    7  A    between atoms: C_12  and  C_14
REMARK    8  A    between atoms: C_27  and  C_28
REMARK    9  A    between atoms: C_27  and  C_30
REMARK                            x       y       z     vdW  Elec       q    Type
REMARK                         _______ _______ _______ _____ _____    ______ ____
ROOT
ATOM      1  C   UNL     1      24.949  18.361  35.819  0.00  0.00    +0.000 C 
ATOM      2  C   UNL     1      25.248  17.055  35.905  0.00  0.00    +0.000 C 
ATOM      3  C   UNL     1      25.248  16.236  34.714  0.00  0.00    +0.000 A 
ATOM      4  C   UNL     1      25.683  14.919  34.792  0.00  0.00    +0.000 A 
ATOM      5  C   UNL     1      25.768  14.218  33.609  0.00  0.00    +0.000 A 
ATOM      6  C   UNL     1      25.439  14.786  32.386  0.00  0.00    +0.000 A 
ATOM      7  C   UNL     1      25.007  16.094  32.324  0.00  0.00    +0.000 A 
ATOM      8  C   UNL     1      24.923  16.784  33.504  0.00  0.00    +0.000 A 
ATOM      9  C   UNL     1      24.326  18.172  33.433  0.00  0.00    +0.000 C 
ATOM     10  C   UNL     1      25.039  18.968  34.479  0.00  0.00    +0.000 C 
ENDROOT
BRANCH   1  11
ATOM     11  C   UNL     1      24.720  19.128  37.031  0.00  0.00    +0.000 C 
ATOM     12  O   UNL     1      25.729  19.762  37.518  0.00  0.00    +0.000 OA
BRANCH  11  13
ATOM     13  O   UNL     1      23.565  19.256  37.724  0.00  0.00    +0.000 OA
BRANCH  13  15
ATOM     14  C   UNL     1      22.756  21.481  37.225  0.00  0.00    +0.000 C 
ATOM     15  C   UNL     1      23.028  20.429  38.258  0.00  0.00    +0.000 C 
ENDBRANCH  13  15
ENDBRANCH  11  13
ENDBRANCH   1  11
BRANCH  10  16
ATOM     16  C   UNL     1      24.820  20.430  34.408  0.00  0.00    +0.000 C 
ATOM     17  C   UNL     1      23.571  20.720  33.610  0.00  0.00    +0.000 C 
ENDBRANCH  10  16
BRANCH  10  18
ATOM     18  C   UNL     1      26.582  18.723  34.105  0.00  0.00    +0.000 C 
ATOM     19  C   UNL     1      27.170  20.120  34.236  0.00  0.00    +0.000 C 
ENDBRANCH  10  18
BRANCH   2  20
ATOM     20  N   UNL     1      25.356  16.454  37.194  0.00  0.00    +0.000 NA
BRANCH  20  21
ATOM     21  C   UNL     1      26.578  16.296  37.874  0.00  0.00    +0.000 C 
ATOM     22  S   UNL     1      26.685  16.750  39.437  0.00  0.00    +0.000 S 
BRANCH  21  23
ATOM     23  N   UNL     1      27.746  15.757  37.272  0.00  0.00    +0.000 NA
ATOM     24  C   UNL     1      28.748  16.587  36.672  0.00  0.00    +0.000 C 
ATOM     25  O   UNL     1      28.523  17.824  36.716  0.00  0.00    +0.000 OA
BRANCH  24  26
ATOM     26  C   UNL     1      29.943  16.044  36.057  0.00  0.00    +0.000 A 
ATOM     27  C   UNL     1      30.720  15.064  36.627  0.00  0.00    +0.000 A 
ATOM     28  C   UNL     1      31.865  14.584  35.976  0.00  0.00    +0.000 A 
ATOM     29  C   UNL     1      32.224  15.091  34.747  0.00  0.00    +0.000 A 
ATOM     30  C   UNL     1      31.454  16.069  34.169  0.00  0.00    +0.000 A 
ATOM     31  C   UNL     1      30.329  16.528  34.830  0.00  0.00    +0.000 A 
ENDBRANCH  24  26
ENDBRANCH  21  23
ENDBRANCH  20  21
ENDBRANCH   2  20
TORSDOF 9
ENDMDL
MODEL 10
REMARK VINA RESULT:      -5.8      3.551      6.257
REMARK  Name = 
REMARK  9 active torsions:
REMARK  status: ('A' for Active; 'I' for Inactive)
REMARK    1  A    between atoms: C_2  and  O_3
REMARK    2  A    between atoms: O_3  and  C_4
REMARK    3  A    between atoms: C_4  and  C_6
REMARK    4  A    between atoms: C_7  and  N_8
REMARK    5  A    between atoms: N_8  and  C_9
REMARK    6  A    between atoms: C_9  and  N_11
REMARK    7  A    between atoms: C_12  and  C_14
REMARK    8  A    between atoms: C_27  and  C_28
REMARK    9  A    between atoms: C_27  and  C_30
REMARK                            x       y       z     vdW  Elec       q    Type
REMARK                         _______ _______ _______ _____ _____    ______ ____
ROOT
ATOM      1  C   UNL     1      38.330   1.433  14.815  0.00  0.00    +0.000 C 
ATOM      2  C   UNL     1      39.597   1.173  14.457  0.00  0.00    +0.000 C 
ATOM      3  C   UNL     1      40.127  -0.163  14.602  0.00  0.00    +0.000 A 
ATOM      4  C   UNL     1      41.395  -0.452  14.110  0.00  0.00    +0.000 A 
ATOM      5  C   UNL     1      41.806  -1.766  14.175  0.00  0.00    +0.000 A 
ATOM      6  C   UNL     1      41.003  -2.768  14.702  0.00  0.00    +0.000 A 
ATOM      7  C   UNL     1      39.748  -2.466  15.188  0.00  0.00    +0.000 A 
ATOM      8  C   UNL     1      39.347  -1.159  15.123  0.00  0.00    +0.000 A 
ATOM      9  C   UNL     1      38.024  -0.826  15.776  0.00  0.00    +0.000 C 
ATOM     10  C   UNL     1      37.434   0.269  14.947  0.00  0.00    +0.000 C 
ENDROOT
BRANCH   1  11
ATOM     11  C   UNL     1      37.870   2.808  14.892  0.00  0.00    +0.000 C 
ATOM     12  O   UNL     1      37.979   3.396  16.032  0.00  0.00    +0.000 OA
BRANCH  11  13
ATOM     13  O   UNL     1      37.330   3.557  13.902  0.00  0.00    +0.000 OA
BRANCH  13  15
ATOM     14  C   UNL     1      35.884   5.493  14.019  0.00  0.00    +0.000 C 
ATOM     15  C   UNL     1      36.014   4.014  13.814  0.00  0.00    +0.000 C 
ENDBRANCH  13  15
ENDBRANCH  11  13
ENDBRANCH   1  11
BRANCH  10  16
ATOM     16  C   UNL     1      36.012   0.569  15.230  0.00  0.00    +0.000 C 
ATOM     17  C   UNL     1      35.525  -0.297  16.367  0.00  0.00    +0.000 C 
ENDBRANCH  10  16
BRANCH  10  18
ATOM     18  C   UNL     1      37.479  -0.356  13.469  0.00  0.00    +0.000 C 
ATOM     19  C   UNL     1      36.462   0.499  12.726  0.00  0.00    +0.000 C 
ENDBRANCH  10  18
BRANCH   2  20
ATOM     20  N   UNL     1      40.462   2.262  14.137  0.00  0.00    +0.000 NA
BRANCH  20  21
ATOM     21  C   UNL     1      40.770   2.642  12.818  0.00  0.00    +0.000 C 
ATOM     22  S   UNL     1      42.319   2.971  12.424  0.00  0.00    +0.000 S 
BRANCH  21  23
ATOM     23  N   UNL     1      39.799   2.759  11.788  0.00  0.00    +0.000 NA
ATOM     24  C   UNL     1      39.517   1.687  10.879  0.00  0.00    +0.000 C 
ATOM     25  O   UNL     1      40.188   0.638  11.057  0.00  0.00    +0.000 OA
BRANCH  24  26
ATOM     26  C   UNL     1      38.528   1.799   9.826  0.00  0.00    +0.000 A 
ATOM     27  C   UNL     1      37.397   2.575   9.919  0.00  0.00    +0.000 A 
ATOM     28  C   UNL     1      36.480   2.637   8.860  0.00  0.00    +0.000 A 
ATOM     29  C   UNL     1      36.704   1.918   7.707  0.00  0.00    +0.000 A 
ATOM     30  C   UNL     1      37.832   1.141   7.606  0.00  0.00    +0.000 A 
ATOM     31  C   UNL     1      38.722   1.094   8.663  0.00  0.00    +0.000 A 
ENDBRANCH  24  26
ENDBRANCH  21  23
ENDBRANCH  20  21
ENDBRANCH   2  20
TORSDOF 9
ENDMDL
