MODEL 1
REMARK VINA RESULT:      -6.4      0.000      0.000
REMARK  Name = 
REMARK  10 active torsions:
REMARK  status: ('A' for Active; 'I' for Inactive)
REMARK    1  A    between atoms: O_2  and  C_3
REMARK    2  A    between atoms: C_6  and  C_7
REMARK    3  A    between atoms: C_7  and  N_8
REMARK    4  A    between atoms: N_8  and  C_9
REMARK    5  A    between atoms: C_9  and  C_10
REMARK    6  A    between atoms: C_10  and  C_12
REMARK    7  A    between atoms: C_12  and  O_13
REMARK    8  A    between atoms: O_13  and  C_14
REMARK    9  A    between atoms: C_17  and  C_18
REMARK   10  A    between atoms: C_18  and  C_21
REMARK                            x       y       z     vdW  Elec       q    Type
REMARK                         _______ _______ _______ _____ _____    ______ ____
ROOT
ATOM      1  O   UNL     1      38.331   3.335  13.586  0.00  0.00    +0.000 OA
ENDROOT
BRANCH   1   2
ATOM      2  C   UNL     1      38.678   1.995  13.561  0.00  0.00    +0.000 A 
ATOM      3  C   UNL     1      39.447   1.471  14.581  0.00  0.00    +0.000 A 
ATOM      4  C   UNL     1      39.790   0.144  14.556  0.00  0.00    +0.000 A 
ATOM      5  C   UNL     1      39.374  -0.654  13.529  0.00  0.00    +0.000 A 
ATOM      6  C   UNL     1      38.593  -0.160  12.475  0.00  0.00    +0.000 A 
ATOM      7  C   UNL     1      38.263   1.188  12.531  0.00  0.00    +0.000 A 
BRANCH   5   8
ATOM      8  C   UNL     1      39.756  -2.100  13.520  0.00  0.00    +0.000 C 
ATOM      9  C   UNL     1      41.163  -2.269  14.018  0.00  0.00    +0.000 C 
ATOM     10  C   UNL     1      39.719  -2.573  12.069  0.00  0.00    +0.000 C 
BRANCH   8  11
ATOM     11  C   UNL     1      38.837  -2.876  14.372  0.00  0.00    +0.000 A 
ATOM     12  C   UNL     1      37.662  -3.328  13.835  0.00  0.00    +0.000 A 
ATOM     13  C   UNL     1      36.771  -4.055  14.586  0.00  0.00    +0.000 A 
ATOM     14  C   UNL     1      37.103  -4.309  15.884  0.00  0.00    +0.000 A 
ATOM     15  C   UNL     1      38.286  -3.865  16.457  0.00  0.00    +0.000 A 
ATOM     16  C   UNL     1      39.164  -3.137  15.685  0.00  0.00    +0.000 A 
ENDBRANCH   8  11
ENDBRANCH   5   8
ENDBRANCH   1   2
BRANCH   1  17
ATOM     17  C   UNL     1      38.898   4.222  14.556  0.00  0.00    +0.000 C 
BRANCH  17  18
ATOM     18  C   UNL     1      37.688   4.380  15.674  0.00  0.00    +0.000 C 
ATOM     19  O   UNL     1      37.806   5.897  15.738  0.00  0.00    +0.000 OA
BRANCH  18  20
ATOM     20  C   UNL     1      36.464   4.430  14.572  0.00  0.00    +0.000 C 
BRANCH  20  21
ATOM     21  N   UNL     1      35.352   3.746  15.081  0.00  0.00    +0.000 NA
BRANCH  21  22
ATOM     22  C   UNL     1      35.128   2.418  14.597  0.00  0.00    +0.000 C 
BRANCH  22  26
ATOM     23  C   UNL     1      36.023  -0.582  17.460  0.00  0.00    +0.000 A 
ATOM     24  C   UNL     1      36.253  -0.788  16.135  0.00  0.00    +0.000 A 
ATOM     25  C   UNL     1      35.962   0.185  15.198  0.00  0.00    +0.000 A 
ATOM     26  C   UNL     1      35.423   1.406  15.616  0.00  0.00    +0.000 A 
ATOM     27  C   UNL     1      35.196   1.603  16.949  0.00  0.00    +0.000 A 
ATOM     28  C   UNL     1      35.496   0.604  17.882  0.00  0.00    +0.000 A 
BRANCH  23  30
ATOM     29  C   UNL     1      37.438  -1.431  19.198  0.00  0.00    +0.000 C 
ATOM     30  O   UNL     1      36.339  -1.605  18.336  0.00  0.00    +0.000 OA
ENDBRANCH  23  30
ENDBRANCH  22  26
ENDBRANCH  21  22
ENDBRANCH  20  21
ENDBRANCH  18  20
ENDBRANCH  17  18
ENDBRANCH   1  17
TORSDOF 10
ENDMDL
MODEL 2
REMARK VINA RESULT:      -6.3      2.587      5.538
REMARK  Name = 
REMARK  10 active torsions:
REMARK  status: ('A' for Active; 'I' for Inactive)
REMARK    1  A    between atoms: O_2  and  C_3
REMARK    2  A    between atoms: C_6  and  C_7
REMARK    3  A    between atoms: C_7  and  N_8
REMARK    4  A    between atoms: N_8  and  C_9
REMARK    5  A    between atoms: C_9  and  C_10
REMARK    6  A    between atoms: C_10  and  C_12
REMARK    7  A    between atoms: C_12  and  O_13
REMARK    8  A    between atoms: O_13  and  C_14
REMARK    9  A    between atoms: C_17  and  C_18
REMARK   10  A    between atoms: C_18  and  C_21
REMARK                            x       y       z     vdW  Elec       q    Type
REMARK                         _______ _______ _______ _____ _____    ______ ____
ROOT
ATOM      1  O   UNL     1      39.536   0.106  11.840  0.00  0.00    +0.000 OA
ENDROOT
BRANCH   1   2
ATOM      2  C   UNL     1      38.676   0.577  12.818  0.00  0.00    +0.000 A 
ATOM      3  C   UNL     1      39.193   1.114  13.979  0.00  0.00    +0.000 A 
ATOM      4  C   UNL     1      38.341   1.581  14.947  0.00  0.00    +0.000 A 
ATOM      5  C   UNL     1      36.990   1.514  14.762  0.00  0.00    +0.000 A 
ATOM      6  C   UNL     1      36.426   0.976  13.598  0.00  0.00    +0.000 A 
ATOM      7  C   UNL     1      37.317   0.513  12.639  0.00  0.00    +0.000 A 
BRANCH   5   8
ATOM      8  C   UNL     1      36.077   2.030  15.829  0.00  0.00    +0.000 C 
ATOM      9  C   UNL     1      34.794   2.519  15.221  0.00  0.00    +0.000 C 
ATOM     10  C   UNL     1      36.766   3.226  16.480  0.00  0.00    +0.000 C 
BRANCH   8  11
ATOM     11  C   UNL     1      35.783   0.968  16.807  0.00  0.00    +0.000 A 
ATOM     12  C   UNL     1      36.321   1.060  18.063  0.00  0.00    +0.000 A 
ATOM     13  C   UNL     1      36.079   0.097  19.011  0.00  0.00    +0.000 A 
ATOM     14  C   UNL     1      35.282  -0.950  18.655  0.00  0.00    +0.000 A 
ATOM     15  C   UNL     1      34.721  -1.071  17.391  0.00  0.00    +0.000 A 
ATOM     16  C   UNL     1      34.979  -0.094  16.456  0.00  0.00    +0.000 A 
ENDBRANCH   8  11
ENDBRANCH   5   8
ENDBRANCH   1   2
BRANCH   1  17
ATOM     17  C   UNL     1      40.876  -0.280  12.165  0.00  0.00    +0.000 C 
BRANCH  17  18
ATOM     18  C   UNL     1      40.727  -1.889  12.523  0.00  0.00    +0.000 C 
ATOM     19  O   UNL     1      42.087  -2.249  11.940  0.00  0.00    +0.000 OA
BRANCH  18  20
ATOM     20  C   UNL     1      41.316  -1.762  14.057  0.00  0.00    +0.000 C 
BRANCH  20  21
ATOM     21  N   UNL     1      40.555  -2.568  14.914  0.00  0.00    +0.000 NA
BRANCH  21  22
ATOM     22  C   UNL     1      39.569  -1.912  15.719  0.00  0.00    +0.000 C 
BRANCH  22  26
ATOM     23  C   UNL     1      35.872  -3.991  15.661  0.00  0.00    +0.000 A 
ATOM     24  C   UNL     1      36.238  -3.186  14.627  0.00  0.00    +0.000 A 
ATOM     25  C   UNL     1      37.441  -2.506  14.642  0.00  0.00    +0.000 A 
ATOM     26  C   UNL     1      38.300  -2.646  15.736  0.00  0.00    +0.000 A 
ATOM     27  C   UNL     1      37.922  -3.457  16.769  0.00  0.00    +0.000 A 
ATOM     28  C   UNL     1      36.700  -4.137  16.736  0.00  0.00    +0.000 A 
BRANCH  23  30
ATOM     29  C   UNL     1      33.945  -4.572  14.358  0.00  0.00    +0.000 C 
ATOM     30  O   UNL     1      34.651  -4.638  15.574  0.00  0.00    +0.000 OA
ENDBRANCH  23  30
ENDBRANCH  22  26
ENDBRANCH  21  22
ENDBRANCH  20  21
ENDBRANCH  18  20
ENDBRANCH  17  18
ENDBRANCH   1  17
TORSDOF 10
ENDMDL
MODEL 3
REMARK VINA RESULT:      -6.3      4.111      7.636
REMARK  Name = 
REMARK  10 active torsions:
REMARK  status: ('A' for Active; 'I' for Inactive)
REMARK    1  A    between atoms: O_2  and  C_3
REMARK    2  A    between atoms: C_6  and  C_7
REMARK    3  A    between atoms: C_7  and  N_8
REMARK    4  A    between atoms: N_8  and  C_9
REMARK    5  A    between atoms: C_9  and  C_10
REMARK    6  A    between atoms: C_10  and  C_12
REMARK    7  A    between atoms: C_12  and  O_13
REMARK    8  A    between atoms: O_13  and  C_14
REMARK    9  A    between atoms: C_17  and  C_18
REMARK   10  A    between atoms: C_18  and  C_21
REMARK                            x       y       z     vdW  Elec       q    Type
REMARK                         _______ _______ _______ _____ _____    ______ ____
ROOT
ATOM      1  O   UNL     1      38.653   3.767  15.139  0.00  0.00    +0.000 OA
ENDROOT
BRANCH   1   2
ATOM      2  C   UNL     1      39.090   4.641  16.120  0.00  0.00    +0.000 A 
ATOM      3  C   UNL     1      40.020   5.610  15.803  0.00  0.00    +0.000 A 
ATOM      4  C   UNL     1      40.453   6.475  16.775  0.00  0.00    +0.000 A 
ATOM      5  C   UNL     1      39.967   6.377  18.047  0.00  0.00    +0.000 A 
ATOM      6  C   UNL     1      39.022   5.408  18.409  0.00  0.00    +0.000 A 
ATOM      7  C   UNL     1      38.605   4.548  17.401  0.00  0.00    +0.000 A 
BRANCH   5   8
ATOM      8  C   UNL     1      40.450   7.332  19.093  0.00  0.00    +0.000 C 
ATOM      9  C   UNL     1      39.512   7.335  20.265  0.00  0.00    +0.000 C 
ATOM     10  C   UNL     1      40.429   8.729  18.479  0.00  0.00    +0.000 C 
BRANCH   8  11
ATOM     11  C   UNL     1      41.800   6.953  19.546  0.00  0.00    +0.000 A 
ATOM     12  C   UNL     1      41.936   6.296  20.739  0.00  0.00    +0.000 A 
ATOM     13  C   UNL     1      43.173   5.921  21.206  0.00  0.00    +0.000 A 
ATOM     14  C   UNL     1      44.255   6.228  20.436  0.00  0.00    +0.000 A 
ATOM     15  C   UNL     1      44.150   6.893  19.223  0.00  0.00    +0.000 A 
ATOM     16  C   UNL     1      42.900   7.260  18.775  0.00  0.00    +0.000 A 
ENDBRANCH   8  11
ENDBRANCH   5   8
ENDBRANCH   1   2
BRANCH   1  17
ATOM     17  C   UNL     1      37.754   2.699  15.454  0.00  0.00    +0.000 C 
BRANCH  17  18
ATOM     18  C   UNL     1      36.335   3.182  14.754  0.00  0.00    +0.000 C 
ATOM     19  O   UNL     1      36.096   1.842  14.071  0.00  0.00    +0.000 OA
BRANCH  18  20
ATOM     20  C   UNL     1      35.385   2.797  16.044  0.00  0.00    +0.000 C 
BRANCH  20  21
ATOM     21  N   UNL     1      35.102   1.425  16.020  0.00  0.00    +0.000 NA
BRANCH  21  22
ATOM     22  C   UNL     1      34.909   0.778  17.282  0.00  0.00    +0.000 C 
BRANCH  22  26
ATOM     23  C   UNL     1      37.937  -2.044  18.215  0.00  0.00    +0.000 A 
ATOM     24  C   UNL     1      37.146  -1.518  19.189  0.00  0.00    +0.000 A 
ATOM     25  C   UNL     1      36.159  -0.597  18.891  0.00  0.00    +0.000 A 
ATOM     26  C   UNL     1      35.966  -0.198  17.564  0.00  0.00    +0.000 A 
ATOM     27  C   UNL     1      36.766  -0.733  16.594  0.00  0.00    +0.000 A 
ATOM     28  C   UNL     1      37.760  -1.663  16.916  0.00  0.00    +0.000 A 
BRANCH  23  30
ATOM     29  C   UNL     1      38.728  -3.655  19.804  0.00  0.00    +0.000 C 
ATOM     30  O   UNL     1      38.904  -2.959  18.593  0.00  0.00    +0.000 OA
ENDBRANCH  23  30
ENDBRANCH  22  26
ENDBRANCH  21  22
ENDBRANCH  20  21
ENDBRANCH  18  20
ENDBRANCH  17  18
ENDBRANCH   1  17
TORSDOF 10
ENDMDL
MODEL 4
REMARK VINA RESULT:      -6.3      2.067      3.963
REMARK  Name = 
REMARK  10 active torsions:
REMARK  status: ('A' for Active; 'I' for Inactive)
REMARK    1  A    between atoms: O_2  and  C_3
REMARK    2  A    between atoms: C_6  and  C_7
REMARK    3  A    between atoms: C_7  and  N_8
REMARK    4  A    between atoms: N_8  and  C_9
REMARK    5  A    between atoms: C_9  and  C_10
REMARK    6  A    between atoms: C_10  and  C_12
REMARK    7  A    between atoms: C_12  and  O_13
REMARK    8  A    between atoms: O_13  and  C_14
REMARK    9  A    between atoms: C_17  and  C_18
REMARK   10  A    between atoms: C_18  and  C_21
REMARK                            x       y       z     vdW  Elec       q    Type
REMARK                         _______ _______ _______ _____ _____    ______ ____
ROOT
ATOM      1  O   UNL     1      37.451   2.395  14.991  0.00  0.00    +0.000 OA
ENDROOT
BRANCH   1   2
ATOM      2  C   UNL     1      38.365   1.377  14.778  0.00  0.00    +0.000 A 
ATOM      3  C   UNL     1      38.032   0.081  15.116  0.00  0.00    +0.000 A 
ATOM      4  C   UNL     1      38.937  -0.927  14.905  0.00  0.00    +0.000 A 
ATOM      5  C   UNL     1      40.159  -0.649  14.363  0.00  0.00    +0.000 A 
ATOM      6  C   UNL     1      40.535   0.653  14.006  0.00  0.00    +0.000 A 
ATOM      7  C   UNL     1      39.595   1.649  14.234  0.00  0.00    +0.000 A 
BRANCH   5   8
ATOM      8  C   UNL     1      41.133  -1.763  14.138  0.00  0.00    +0.000 C 
ATOM      9  C   UNL     1      40.740  -2.968  14.943  0.00  0.00    +0.000 C 
ATOM     10  C   UNL     1      42.492  -1.290  14.646  0.00  0.00    +0.000 C 
BRANCH   8  11
ATOM     11  C   UNL     1      41.177  -2.120  12.709  0.00  0.00    +0.000 A 
ATOM     12  C   UNL     1      42.382  -2.096  12.059  0.00  0.00    +0.000 A 
ATOM     13  C   UNL     1      42.477  -2.420  10.728  0.00  0.00    +0.000 A 
ATOM     14  C   UNL     1      41.328  -2.767  10.081  0.00  0.00    +0.000 A 
ATOM     15  C   UNL     1      40.092  -2.801  10.711  0.00  0.00    +0.000 A 
ATOM     16  C   UNL     1      40.021  -2.471  12.047  0.00  0.00    +0.000 A 
ENDBRANCH   8  11
ENDBRANCH   5   8
ENDBRANCH   1   2
BRANCH   1  17
ATOM     17  C   UNL     1      36.043   2.138  14.954  0.00  0.00    +0.000 C 
BRANCH  17  18
ATOM     18  C   UNL     1      35.507   2.766  16.388  0.00  0.00    +0.000 C 
ATOM     19  O   UNL     1      34.072   2.917  15.904  0.00  0.00    +0.000 OA
BRANCH  18  20
ATOM     20  C   UNL     1      35.212   1.307  17.095  0.00  0.00    +0.000 C 
BRANCH  20  21
ATOM     21  N   UNL     1      36.219   1.033  18.030  0.00  0.00    +0.000 NA
BRANCH  21  22
ATOM     22  C   UNL     1      36.000  -0.069  18.917  0.00  0.00    +0.000 C 
BRANCH  22  26
ATOM     23  C   UNL     1      37.852  -3.617  17.509  0.00  0.00    +0.000 A 
ATOM     24  C   UNL     1      36.605  -3.267  17.095  0.00  0.00    +0.000 A 
ATOM     25  C   UNL     1      35.996  -2.113  17.551  0.00  0.00    +0.000 A 
ATOM     26  C   UNL     1      36.673  -1.287  18.455  0.00  0.00    +0.000 A 
ATOM     27  C   UNL     1      37.926  -1.648  18.864  0.00  0.00    +0.000 A 
ATOM     28  C   UNL     1      38.524  -2.820  18.391  0.00  0.00    +0.000 A 
BRANCH  23  30
ATOM     29  C   UNL     1      37.637  -5.970  17.108  0.00  0.00    +0.000 C 
ATOM     30  O   UNL     1      38.394  -4.788  17.008  0.00  0.00    +0.000 OA
ENDBRANCH  23  30
ENDBRANCH  22  26
ENDBRANCH  21  22
ENDBRANCH  20  21
ENDBRANCH  18  20
ENDBRANCH  17  18
ENDBRANCH   1  17
TORSDOF 10
ENDMDL
MODEL 5
REMARK VINA RESULT:      -6.2      2.810      5.398
REMARK  Name = 
REMARK  10 active torsions:
REMARK  status: ('A' for Active; 'I' for Inactive)
REMARK    1  A    between atoms: O_2  and  C_3
REMARK    2  A    between atoms: C_6  and  C_7
REMARK    3  A    between atoms: C_7  and  N_8
REMARK    4  A    between atoms: N_8  and  C_9
REMARK    5  A    between atoms: C_9  and  C_10
REMARK    6  A    between atoms: C_10  and  C_12
REMARK    7  A    between atoms: C_12  and  O_13
REMARK    8  A    between atoms: O_13  and  C_14
REMARK    9  A    between atoms: C_17  and  C_18
REMARK   10  A    between atoms: C_18  and  C_21
REMARK                            x       y       z     vdW  Elec       q    Type
REMARK                         _______ _______ _______ _____ _____    ______ ____
ROOT
ATOM      1  O   UNL     1      36.153   3.791  15.023  0.00  0.00    +0.000 OA
ENDROOT
BRANCH   1   2
ATOM      2  C   UNL     1      35.961   2.480  15.424  0.00  0.00    +0.000 A 
ATOM      3  C   UNL     1      36.740   1.480  14.880  0.00  0.00    +0.000 A 
ATOM      4  C   UNL     1      36.549   0.182  15.277  0.00  0.00    +0.000 A 
ATOM      5  C   UNL     1      35.594  -0.119  16.205  0.00  0.00    +0.000 A 
ATOM      6  C   UNL     1      34.782   0.867  16.781  0.00  0.00    +0.000 A 
ATOM      7  C   UNL     1      35.002   2.171  16.356  0.00  0.00    +0.000 A 
BRANCH   5   8
ATOM      8  C   UNL     1      35.402  -1.541  16.628  0.00  0.00    +0.000 C 
ATOM      9  C   UNL     1      35.317  -2.434  15.424  0.00  0.00    +0.000 C 
ATOM     10  C   UNL     1      34.065  -1.622  17.360  0.00  0.00    +0.000 C 
BRANCH   8  11
ATOM     11  C   UNL     1      36.522  -1.975  17.483  0.00  0.00    +0.000 A 
ATOM     12  C   UNL     1      36.585  -1.515  18.771  0.00  0.00    +0.000 A 
ATOM     13  C   UNL     1      37.608  -1.888  19.608  0.00  0.00    +0.000 A 
ATOM     14  C   UNL     1      38.554  -2.734  19.108  0.00  0.00    +0.000 A 
ATOM     15  C   UNL     1      38.517  -3.217  17.808  0.00  0.00    +0.000 A 
ATOM     16  C   UNL     1      37.482  -2.828  16.986  0.00  0.00    +0.000 A 
ENDBRANCH   8  11
ENDBRANCH   5   8
ENDBRANCH   1   2
BRANCH   1  17
ATOM     17  C   UNL     1      35.284   4.401  14.062  0.00  0.00    +0.000 C 
BRANCH  17  18
ATOM     18  C   UNL     1      36.175   5.679  13.506  0.00  0.00    +0.000 C 
ATOM     19  O   UNL     1      36.460   6.220  14.900  0.00  0.00    +0.000 OA
BRANCH  18  20
ATOM     20  C   UNL     1      37.600   4.855  13.434  0.00  0.00    +0.000 C 
BRANCH  20  21
ATOM     21  N   UNL     1      38.614   5.630  14.013  0.00  0.00    +0.000 NA
BRANCH  21  22
ATOM     22  C   UNL     1      39.680   4.927  14.660  0.00  0.00    +0.000 C 
BRANCH  22  26
ATOM     23  C   UNL     1      40.050   5.969  18.756  0.00  0.00    +0.000 A 
ATOM     24  C   UNL     1      40.950   6.412  17.837  0.00  0.00    +0.000 A 
ATOM     25  C   UNL     1      40.835   6.075  16.501  0.00  0.00    +0.000 A 
ATOM     26  C   UNL     1      39.775   5.264  16.084  0.00  0.00    +0.000 A 
ATOM     27  C   UNL     1      38.877   4.824  17.015  0.00  0.00    +0.000 A 
ATOM     28  C   UNL     1      39.011   5.176  18.363  0.00  0.00    +0.000 A 
BRANCH  23  30
ATOM     29  C   UNL     1      41.227   7.304  20.362  0.00  0.00    +0.000 C 
ATOM     30  O   UNL     1      40.234   6.349  20.074  0.00  0.00    +0.000 OA
ENDBRANCH  23  30
ENDBRANCH  22  26
ENDBRANCH  21  22
ENDBRANCH  20  21
ENDBRANCH  18  20
ENDBRANCH  17  18
ENDBRANCH   1  17
TORSDOF 10
ENDMDL
MODEL 6
REMARK VINA RESULT:      -6.2      3.259      5.964
REMARK  Name = 
REMARK  10 active torsions:
REMARK  status: ('A' for Active; 'I' for Inactive)
REMARK    1  A    between atoms: O_2  and  C_3
REMARK    2  A    between atoms: C_6  and  C_7
REMARK    3  A    between atoms: C_7  and  N_8
REMARK    4  A    between atoms: N_8  and  C_9
REMARK    5  A    between atoms: C_9  and  C_10
REMARK    6  A    between atoms: C_10  and  C_12
REMARK    7  A    between atoms: C_12  and  O_13
REMARK    8  A    between atoms: O_13  and  C_14
REMARK    9  A    between atoms: C_17  and  C_18
REMARK   10  A    between atoms: C_18  and  C_21
REMARK                            x       y       z     vdW  Elec       q    Type
REMARK                         _______ _______ _______ _____ _____    ______ ____
ROOT
ATOM      1  O   UNL     1      36.781   2.906  14.016  0.00  0.00    +0.000 OA
ENDROOT
BRANCH   1   2
ATOM      2  C   UNL     1      36.457   1.714  14.641  0.00  0.00    +0.000 A 
ATOM      3  C   UNL     1      35.552   1.715  15.683  0.00  0.00    +0.000 A 
ATOM      4  C   UNL     1      35.231   0.534  16.301  0.00  0.00    +0.000 A 
ATOM      5  C   UNL     1      35.803  -0.635  15.889  0.00  0.00    +0.000 A 
ATOM      6  C   UNL     1      36.726  -0.678  14.835  0.00  0.00    +0.000 A 
ATOM      7  C   UNL     1      37.029   0.535  14.231  0.00  0.00    +0.000 A 
BRANCH   5   8
ATOM      8  C   UNL     1      35.438  -1.914  16.574  0.00  0.00    +0.000 C 
ATOM      9  C   UNL     1      35.109  -2.970  15.560  0.00  0.00    +0.000 C 
ATOM     10  C   UNL     1      34.178  -1.649  17.393  0.00  0.00    +0.000 C 
BRANCH   8  11
ATOM     11  C   UNL     1      36.553  -2.375  17.420  0.00  0.00    +0.000 A 
ATOM     12  C   UNL     1      37.249  -3.493  17.043  0.00  0.00    +0.000 A 
ATOM     13  C   UNL     1      38.296  -3.964  17.796  0.00  0.00    +0.000 A 
ATOM     14  C   UNL     1      38.615  -3.278  18.930  0.00  0.00    +0.000 A 
ATOM     15  C   UNL     1      37.929  -2.143  19.339  0.00  0.00    +0.000 A 
ATOM     16  C   UNL     1      36.882  -1.689  18.568  0.00  0.00    +0.000 A 
ENDBRANCH   8  11
ENDBRANCH   5   8
ENDBRANCH   1   2
BRANCH   1  17
ATOM     17  C   UNL     1      36.760   4.143  14.737  0.00  0.00    +0.000 C 
BRANCH  17  18
ATOM     18  C   UNL     1      38.190   4.854  14.307  0.00  0.00    +0.000 C 
ATOM     19  O   UNL     1      37.773   6.231  14.805  0.00  0.00    +0.000 OA
BRANCH  18  20
ATOM     20  C   UNL     1      38.976   4.484  15.707  0.00  0.00    +0.000 C 
BRANCH  20  21
ATOM     21  N   UNL     1      38.165   4.824  16.798  0.00  0.00    +0.000 NA
BRANCH  21  22
ATOM     22  C   UNL     1      38.735   4.676  18.103  0.00  0.00    +0.000 C 
BRANCH  22  26
ATOM     23  C   UNL     1      39.630   8.380  19.967  0.00  0.00    +0.000 A 
ATOM     24  C   UNL     1      40.419   7.289  20.164  0.00  0.00    +0.000 A 
ATOM     25  C   UNL     1      40.131   6.080  19.560  0.00  0.00    +0.000 A 
ATOM     26  C   UNL     1      39.011   5.972  18.730  0.00  0.00    +0.000 A 
ATOM     27  C   UNL     1      38.226   7.075  18.539  0.00  0.00    +0.000 A 
ATOM     28  C   UNL     1      38.533   8.290  19.160  0.00  0.00    +0.000 A 
BRANCH  23  30
ATOM     29  C   UNL     1      39.711  10.776  19.962  0.00  0.00    +0.000 C 
ATOM     30  O   UNL     1      39.983   9.556  20.608  0.00  0.00    +0.000 OA
ENDBRANCH  23  30
ENDBRANCH  22  26
ENDBRANCH  21  22
ENDBRANCH  20  21
ENDBRANCH  18  20
ENDBRANCH  17  18
ENDBRANCH   1  17
TORSDOF 10
ENDMDL
MODEL 7
REMARK VINA RESULT:      -6.1      3.379      5.939
REMARK  Name = 
REMARK  10 active torsions:
REMARK  status: ('A' for Active; 'I' for Inactive)
REMARK    1  A    between atoms: O_2  and  C_3
REMARK    2  A    between atoms: C_6  and  C_7
REMARK    3  A    between atoms: C_7  and  N_8
REMARK    4  A    between atoms: N_8  and  C_9
REMARK    5  A    between atoms: C_9  and  C_10
REMARK    6  A    between atoms: C_10  and  C_12
REMARK    7  A    between atoms: C_12  and  O_13
REMARK    8  A    between atoms: O_13  and  C_14
REMARK    9  A    between atoms: C_17  and  C_18
REMARK   10  A    between atoms: C_18  and  C_21
REMARK                            x       y       z     vdW  Elec       q    Type
REMARK                         _______ _______ _______ _____ _____    ______ ____
ROOT
ATOM      1  O   UNL     1      36.485   2.876  13.993  0.00  0.00    +0.000 OA
ENDROOT
BRANCH   1   2
ATOM      2  C   UNL     1      36.189   1.699  14.660  0.00  0.00    +0.000 A 
ATOM      3  C   UNL     1      36.684   0.503  14.183  0.00  0.00    +0.000 A 
ATOM      4  C   UNL     1      36.391  -0.662  14.844  0.00  0.00    +0.000 A 
ATOM      5  C   UNL     1      35.614  -0.638  15.966  0.00  0.00    +0.000 A 
ATOM      6  C   UNL     1      35.092   0.556  16.483  0.00  0.00    +0.000 A 
ATOM      7  C   UNL     1      35.408   1.717  15.789  0.00  0.00    +0.000 A 
BRANCH   5   8
ATOM      8  C   UNL     1      35.307  -1.919  16.675  0.00  0.00    +0.000 C 
ATOM      9  C   UNL     1      35.073  -3.020  15.681  0.00  0.00    +0.000 C 
ATOM     10  C   UNL     1      34.008  -1.711  17.449  0.00  0.00    +0.000 C 
BRANCH   8  11
ATOM     11  C   UNL     1      36.421  -2.289  17.566  0.00  0.00    +0.000 A 
ATOM     12  C   UNL     1      37.276  -3.284  17.175  0.00  0.00    +0.000 A 
ATOM     13  C   UNL     1      38.330  -3.667  17.968  0.00  0.00    +0.000 A 
ATOM     14  C   UNL     1      38.491  -3.019  19.156  0.00  0.00    +0.000 A 
ATOM     15  C   UNL     1      37.642  -2.006  19.581  0.00  0.00    +0.000 A 
ATOM     16  C   UNL     1      36.591  -1.640  18.769  0.00  0.00    +0.000 A 
ENDBRANCH   8  11
ENDBRANCH   5   8
ENDBRANCH   1   2
BRANCH   1  17
ATOM     17  C   UNL     1      37.837   3.218  13.671  0.00  0.00    +0.000 C 
BRANCH  17  18
ATOM     18  C   UNL     1      38.578   3.257  15.150  0.00  0.00    +0.000 C 
ATOM     19  O   UNL     1      39.741   4.108  14.660  0.00  0.00    +0.000 OA
BRANCH  18  20
ATOM     20  C   UNL     1      37.740   4.561  15.709  0.00  0.00    +0.000 C 
BRANCH  20  21
ATOM     21  N   UNL     1      38.169   4.867  17.008  0.00  0.00    +0.000 NA
BRANCH  21  22
ATOM     22  C   UNL     1      38.541   6.225  17.267  0.00  0.00    +0.000 C 
BRANCH  22  26
ATOM     23  C   UNL     1      42.114   6.474  19.540  0.00  0.00    +0.000 A 
ATOM     24  C   UNL     1      40.906   6.325  20.149  0.00  0.00    +0.000 A 
ATOM     25  C   UNL     1      39.739   6.244  19.413  0.00  0.00    +0.000 A 
ATOM     26  C   UNL     1      39.797   6.316  18.017  0.00  0.00    +0.000 A 
ATOM     27  C   UNL     1      41.015   6.465  17.417  0.00  0.00    +0.000 A 
ATOM     28  C   UNL     1      42.185   6.546  18.179  0.00  0.00    +0.000 A 
BRANCH  23  30
ATOM     29  C   UNL     1      43.374   7.656  21.202  0.00  0.00    +0.000 C 
ATOM     30  O   UNL     1      43.237   6.547  20.346  0.00  0.00    +0.000 OA
ENDBRANCH  23  30
ENDBRANCH  22  26
ENDBRANCH  21  22
ENDBRANCH  20  21
ENDBRANCH  18  20
ENDBRANCH  17  18
ENDBRANCH   1  17
TORSDOF 10
ENDMDL
MODEL 8
REMARK VINA RESULT:      -6.0      1.853      4.664
REMARK  Name = 
REMARK  10 active torsions:
REMARK  status: ('A' for Active; 'I' for Inactive)
REMARK    1  A    between atoms: O_2  and  C_3
REMARK    2  A    between atoms: C_6  and  C_7
REMARK    3  A    between atoms: C_7  and  N_8
REMARK    4  A    between atoms: N_8  and  C_9
REMARK    5  A    between atoms: C_9  and  C_10
REMARK    6  A    between atoms: C_10  and  C_12
REMARK    7  A    between atoms: C_12  and  O_13
REMARK    8  A    between atoms: O_13  and  C_14
REMARK    9  A    between atoms: C_17  and  C_18
REMARK   10  A    between atoms: C_18  and  C_21
REMARK                            x       y       z     vdW  Elec       q    Type
REMARK                         _______ _______ _______ _____ _____    ______ ____
ROOT
ATOM      1  O   UNL     1      35.846   3.687  15.088  0.00  0.00    +0.000 OA
ENDROOT
BRANCH   1   2
ATOM      2  C   UNL     1      35.740   2.354  15.447  0.00  0.00    +0.000 A 
ATOM      3  C   UNL     1      34.940   1.999  16.515  0.00  0.00    +0.000 A 
ATOM      4  C   UNL     1      34.835   0.679  16.871  0.00  0.00    +0.000 A 
ATOM      5  C   UNL     1      35.517  -0.277  16.174  0.00  0.00    +0.000 A 
ATOM      6  C   UNL     1      36.338   0.043  15.084  0.00  0.00    +0.000 A 
ATOM      7  C   UNL     1      36.423   1.389  14.751  0.00  0.00    +0.000 A 
BRANCH   5   8
ATOM      8  C   UNL     1      35.387  -1.712  16.576  0.00  0.00    +0.000 C 
ATOM      9  C   UNL     1      35.340  -2.590  15.359  0.00  0.00    +0.000 C 
ATOM     10  C   UNL     1      34.056  -1.862  17.307  0.00  0.00    +0.000 C 
BRANCH   8  11
ATOM     11  C   UNL     1      36.525  -2.109  17.424  0.00  0.00    +0.000 A 
ATOM     12  C   UNL     1      36.544  -1.710  18.733  0.00  0.00    +0.000 A 
ATOM     13  C   UNL     1      37.582  -2.053  19.565  0.00  0.00    +0.000 A 
ATOM     14  C   UNL     1      38.588  -2.806  19.038  0.00  0.00    +0.000 A 
ATOM     15  C   UNL     1      38.598  -3.226  17.715  0.00  0.00    +0.000 A 
ATOM     16  C   UNL     1      37.548  -2.869  16.899  0.00  0.00    +0.000 A 
ENDBRANCH   8  11
ENDBRANCH   5   8
ENDBRANCH   1   2
BRANCH   1  17
ATOM     17  C   UNL     1      36.113   4.063  13.733  0.00  0.00    +0.000 C 
BRANCH  17  18
ATOM     18  C   UNL     1      37.139   5.351  13.894  0.00  0.00    +0.000 C 
ATOM     19  O   UNL     1      37.668   4.891  15.246  0.00  0.00    +0.000 OA
BRANCH  18  20
ATOM     20  C   UNL     1      38.387   4.661  13.068  0.00  0.00    +0.000 C 
BRANCH  20  21
ATOM     21  N   UNL     1      39.016   3.712  13.885  0.00  0.00    +0.000 NA
BRANCH  21  22
ATOM     22  C   UNL     1      40.151   3.033  13.337  0.00  0.00    +0.000 C 
BRANCH  22  26
ATOM     23  C   UNL     1      39.626  -1.176  13.394  0.00  0.00    +0.000 A 
ATOM     24  C   UNL     1      39.964  -0.498  14.524  0.00  0.00    +0.000 A 
ATOM     25  C   UNL     1      40.136   0.874  14.510  0.00  0.00    +0.000 A 
ATOM     26  C   UNL     1      39.962   1.580  13.316  0.00  0.00    +0.000 A 
ATOM     27  C   UNL     1      39.623   0.888  12.187  0.00  0.00    +0.000 A 
ATOM     28  C   UNL     1      39.453  -0.500  12.221  0.00  0.00    +0.000 A 
BRANCH  23  30
ATOM     29  C   UNL     1      38.194  -3.094  13.262  0.00  0.00    +0.000 C 
ATOM     30  O   UNL     1      39.472  -2.549  13.488  0.00  0.00    +0.000 OA
ENDBRANCH  23  30
ENDBRANCH  22  26
ENDBRANCH  21  22
ENDBRANCH  20  21
ENDBRANCH  18  20
ENDBRANCH  17  18
ENDBRANCH   1  17
TORSDOF 10
ENDMDL
MODEL 9
REMARK VINA RESULT:      -6.0      1.983      3.843
REMARK  Name = 
REMARK  10 active torsions:
REMARK  status: ('A' for Active; 'I' for Inactive)
REMARK    1  A    between atoms: O_2  and  C_3
REMARK    2  A    between atoms: C_6  and  C_7
REMARK    3  A    between atoms: C_7  and  N_8
REMARK    4  A    between atoms: N_8  and  C_9
REMARK    5  A    between atoms: C_9  and  C_10
REMARK    6  A    between atoms: C_10  and  C_12
REMARK    7  A    between atoms: C_12  and  O_13
REMARK    8  A    between atoms: O_13  and  C_14
REMARK    9  A    between atoms: C_17  and  C_18
REMARK   10  A    between atoms: C_18  and  C_21
REMARK                            x       y       z     vdW  Elec       q    Type
REMARK                         _______ _______ _______ _____ _____    ______ ____
ROOT
ATOM      1  O   UNL     1      36.724   2.435  13.849  0.00  0.00    +0.000 OA
ENDROOT
BRANCH   1   2
ATOM      2  C   UNL     1      37.610   1.371  13.849  0.00  0.00    +0.000 A 
ATOM      3  C   UNL     1      37.384   0.298  13.011  0.00  0.00    +0.000 A 
ATOM      4  C   UNL     1      38.261  -0.756  13.011  0.00  0.00    +0.000 A 
ATOM      5  C   UNL     1      39.350  -0.744  13.835  0.00  0.00    +0.000 A 
ATOM      6  C   UNL     1      39.614   0.327  14.700  0.00  0.00    +0.000 A 
ATOM      7  C   UNL     1      38.706   1.377  14.675  0.00  0.00    +0.000 A 
BRANCH   5   8
ATOM      8  C   UNL     1      40.297  -1.902  13.819  0.00  0.00    +0.000 C 
ATOM      9  C   UNL     1      39.868  -2.910  12.792  0.00  0.00    +0.000 C 
ATOM     10  C   UNL     1      40.219  -2.573  15.188  0.00  0.00    +0.000 C 
BRANCH   8  11
ATOM     11  C   UNL     1      41.662  -1.440  13.513  0.00  0.00    +0.000 A 
ATOM     12  C   UNL     1      41.943  -1.001  12.246  0.00  0.00    +0.000 A 
ATOM     13  C   UNL     1      43.200  -0.561  11.910  0.00  0.00    +0.000 A 
ATOM     14  C   UNL     1      44.154  -0.576  12.884  0.00  0.00    +0.000 A 
ATOM     15  C   UNL     1      43.901  -1.015  14.176  0.00  0.00    +0.000 A 
ATOM     16  C   UNL     1      42.633  -1.453  14.490  0.00  0.00    +0.000 A 
ENDBRANCH   8  11
ENDBRANCH   5   8
ENDBRANCH   1   2
BRANCH   1  17
ATOM     17  C   UNL     1      35.363   2.258  14.254  0.00  0.00    +0.000 C 
BRANCH  17  18
ATOM     18  C   UNL     1      35.089   3.563  15.234  0.00  0.00    +0.000 C 
ATOM     19  O   UNL     1      33.699   3.094  15.643  0.00  0.00    +0.000 OA
BRANCH  18  20
ATOM     20  C   UNL     1      35.802   2.908  16.567  0.00  0.00    +0.000 C 
BRANCH  20  21
ATOM     21  N   UNL     1      35.341   1.597  16.744  0.00  0.00    +0.000 NA
BRANCH  21  22
ATOM     22  C   UNL     1      36.060   0.775  17.670  0.00  0.00    +0.000 C 
BRANCH  22  26
ATOM     23  C   UNL     1      36.784  -3.153  16.239  0.00  0.00    +0.000 A 
ATOM     24  C   UNL     1      37.374  -2.704  17.380  0.00  0.00    +0.000 A 
ATOM     25  C   UNL     1      37.142  -1.425  17.850  0.00  0.00    +0.000 A 
ATOM     26  C   UNL     1      36.286  -0.574  17.143  0.00  0.00    +0.000 A 
ATOM     27  C   UNL     1      35.699  -1.036  15.998  0.00  0.00    +0.000 A 
ATOM     28  C   UNL     1      35.947  -2.334  15.538  0.00  0.00    +0.000 A 
BRANCH  23  30
ATOM     29  C   UNL     1      37.509  -5.368  16.799  0.00  0.00    +0.000 C 
ATOM     30  O   UNL     1      37.067  -4.446  15.832  0.00  0.00    +0.000 OA
ENDBRANCH  23  30
ENDBRANCH  22  26
ENDBRANCH  21  22
ENDBRANCH  20  21
ENDBRANCH  18  20
ENDBRANCH  17  18
ENDBRANCH   1  17
TORSDOF 10
ENDMDL
MODEL 10
REMARK VINA RESULT:      -5.9     22.623     25.507
REMARK  Name = 
REMARK  10 active torsions:
REMARK  status: ('A' for Active; 'I' for Inactive)
REMARK    1  A    between atoms: O_2  and  C_3
REMARK    2  A    between atoms: C_6  and  C_7
REMARK    3  A    between atoms: C_7  and  N_8
REMARK    4  A    between atoms: N_8  and  C_9
REMARK    5  A    between atoms: C_9  and  C_10
REMARK    6  A    between atoms: C_10  and  C_12
REMARK    7  A    between atoms: C_12  and  O_13
REMARK    8  A    between atoms: O_13  and  C_14
REMARK    9  A    between atoms: C_17  and  C_18
REMARK   10  A    between atoms: C_18  and  C_21
REMARK                            x       y       z     vdW  Elec       q    Type
REMARK                         _______ _______ _______ _____ _____    ______ ____
ROOT
ATOM      1  O   UNL     1      15.659  -0.169  27.474  0.00  0.00    +0.000 OA
ENDROOT
BRANCH   1   2
ATOM      2  C   UNL     1      16.785   0.011  26.689  0.00  0.00    +0.000 A 
ATOM      3  C   UNL     1      17.720  -1.000  26.597  0.00  0.00    +0.000 A 
ATOM      4  C   UNL     1      18.836  -0.822  25.820  0.00  0.00    +0.000 A 
ATOM      5  C   UNL     1      19.020   0.348  25.142  0.00  0.00    +0.000 A 
ATOM      6  C   UNL     1      18.095   1.399  25.209  0.00  0.00    +0.000 A 
ATOM      7  C   UNL     1      16.977   1.185  26.005  0.00  0.00    +0.000 A 
BRANCH   5   8
ATOM      8  C   UNL     1      20.242   0.523  24.297  0.00  0.00    +0.000 C 
ATOM      9  C   UNL     1      21.479   0.306  25.121  0.00  0.00    +0.000 C 
ATOM     10  C   UNL     1      20.257   1.970  23.812  0.00  0.00    +0.000 C 
BRANCH   8  11
ATOM     11  C   UNL     1      20.227  -0.430  23.174  0.00  0.00    +0.000 A 
ATOM     12  C   UNL     1      20.090  -1.766  23.443  0.00  0.00    +0.000 A 
ATOM     13  C   UNL     1      20.070  -2.695  22.432  0.00  0.00    +0.000 A 
ATOM     14  C   UNL     1      20.190  -2.237  21.153  0.00  0.00    +0.000 A 
ATOM     15  C   UNL     1      20.330  -0.890  20.848  0.00  0.00    +0.000 A 
ATOM     16  C   UNL     1      20.348   0.024  21.879  0.00  0.00    +0.000 A 
ENDBRANCH   8  11
ENDBRANCH   5   8
ENDBRANCH   1   2
BRANCH   1  17
ATOM     17  C   UNL     1      14.347  -0.018  26.921  0.00  0.00    +0.000 C 
BRANCH  17  18
ATOM     18  C   UNL     1      13.395  -0.866  27.975  0.00  0.00    +0.000 C 
ATOM     19  O   UNL     1      13.691   0.058  29.148  0.00  0.00    +0.000 OA
BRANCH  18  20
ATOM     20  C   UNL     1      11.998  -0.082  27.589  0.00  0.00    +0.000 C 
BRANCH  20  21
ATOM     21  N   UNL     1      12.306   1.125  26.946  0.00  0.00    +0.000 NA
BRANCH  21  22
ATOM     22  C   UNL     1      11.556   2.280  27.337  0.00  0.00    +0.000 C 
BRANCH  22  26
ATOM     23  C   UNL     1       7.676   2.197  25.624  0.00  0.00    +0.000 A 
ATOM     24  C   UNL     1       8.764   1.798  24.911  0.00  0.00    +0.000 A 
ATOM     25  C   UNL     1      10.031   1.824  25.465  0.00  0.00    +0.000 A 
ATOM     26  C   UNL     1      10.200   2.267  26.780  0.00  0.00    +0.000 A 
ATOM     27  C   UNL     1       9.100   2.665  27.486  0.00  0.00    +0.000 A 
ATOM     28  C   UNL     1       7.827   2.632  26.909  0.00  0.00    +0.000 A 
BRANCH  23  30
ATOM     29  C   UNL     1       6.279   1.262  23.915  0.00  0.00    +0.000 C 
ATOM     30  O   UNL     1       6.441   2.143  25.000  0.00  0.00    +0.000 OA
ENDBRANCH  23  30
ENDBRANCH  22  26
ENDBRANCH  21  22
ENDBRANCH  20  21
ENDBRANCH  18  20
ENDBRANCH  17  18
ENDBRANCH   1  17
TORSDOF 10
ENDMDL
