MODEL 1
REMARK VINA RESULT:      -6.7      0.000      0.000
REMARK  Name = 
REMARK  1 active torsions:
REMARK  status: ('A' for Active; 'I' for Inactive)
REMARK    1  A    between atoms: C_5  and  C_7
REMARK                            x       y       z     vdW  Elec       q    Type
REMARK                         _______ _______ _______ _____ _____    ______ ____
ROOT
ATOM      1  C   UNL     1      31.779  23.632  24.579  0.00  0.00    +0.000 C 
ATOM      2  C   UNL     1      30.684  24.641  24.906  0.00  0.00    +0.000 C 
ATOM      3  C   UNL     1      31.129  26.047  24.581  0.00  0.00    +0.000 C 
ATOM      4  C   UNL     1      30.338  24.470  26.346  0.00  0.00    +0.000 C 
ATOM      5  C   UNL     1      29.346  23.320  26.295  0.00  0.00    +0.000 C 
ATOM      6  C   UNL     1      30.067  21.982  26.304  0.00  0.00    +0.000 C 
ATOM      7  C   UNL     1      28.656  23.556  24.988  0.00  0.00    +0.000 A 
ATOM      8  C   UNL     1      27.414  23.102  24.573  0.00  0.00    +0.000 A 
ATOM      9  C   UNL     1      26.965  23.446  23.323  0.00  0.00    +0.000 A 
ATOM     10  O   UNL     1      25.718  22.996  22.891  0.00  0.00    +0.000 OA
ATOM     11  C   UNL     1      27.724  24.238  22.465  0.00  0.00    +0.000 A 
ATOM     12  C   UNL     1      28.950  24.670  22.911  0.00  0.00    +0.000 A 
ATOM     13  C   UNL     1      29.440  24.337  24.181  0.00  0.00    +0.000 A 
ENDROOT
BRANCH   5  14
ATOM     14  C   UNL     1      28.406  23.465  27.414  0.00  0.00    +0.000 A 
ATOM     15  C   UNL     1      27.852  24.681  27.777  0.00  0.00    +0.000 A 
ATOM     16  C   UNL     1      26.982  24.729  28.831  0.00  0.00    +0.000 A 
ATOM     17  C   UNL     1      26.636  23.616  29.546  0.00  0.00    +0.000 A 
ATOM     18  O   UNL     1      25.764  23.665  30.603  0.00  0.00    +0.000 OA
ATOM     19  C   UNL     1      27.189  22.388  29.189  0.00  0.00    +0.000 A 
ATOM     20  C   UNL     1      28.048  22.362  28.141  0.00  0.00    +0.000 A 
ENDBRANCH   5  14
TORSDOF 1
ENDMDL
MODEL 2
REMARK VINA RESULT:      -6.6     32.336     33.870
REMARK  Name = 
REMARK  1 active torsions:
REMARK  status: ('A' for Active; 'I' for Inactive)
REMARK    1  A    between atoms: C_5  and  C_7
REMARK                            x       y       z     vdW  Elec       q    Type
REMARK                         _______ _______ _______ _____ _____    ______ ____
ROOT
ATOM      1  C   UNL     1      20.647  -9.795  24.268  0.00  0.00    +0.000 C 
ATOM      2  C   UNL     1      21.047  -9.179  25.603  0.00  0.00    +0.000 C 
ATOM      3  C   UNL     1      22.545  -9.012  25.695  0.00  0.00    +0.000 C 
ATOM      4  C   UNL     1      20.502 -10.055  26.679  0.00  0.00    +0.000 C 
ATOM      5  C   UNL     1      19.076  -9.549  26.804  0.00  0.00    +0.000 C 
ATOM      6  C   UNL     1      18.169 -10.224  25.787  0.00  0.00    +0.000 C 
ATOM      7  C   UNL     1      19.232  -8.090  26.507  0.00  0.00    +0.000 A 
ATOM      8  C   UNL     1      18.389  -7.044  26.851  0.00  0.00    +0.000 A 
ATOM      9  C   UNL     1      18.731  -5.768  26.480  0.00  0.00    +0.000 A 
ATOM     10  O   UNL     1      17.893  -4.706  26.818  0.00  0.00    +0.000 OA
ATOM     11  C   UNL     1      19.900  -5.499  25.773  0.00  0.00    +0.000 A 
ATOM     12  C   UNL     1      20.710  -6.560  25.451  0.00  0.00    +0.000 A 
ATOM     13  C   UNL     1      20.392  -7.877  25.812  0.00  0.00    +0.000 A 
ENDROOT
BRANCH   5  14
ATOM     14  C   UNL     1      18.628  -9.754  28.187  0.00  0.00    +0.000 A 
ATOM     15  C   UNL     1      19.423  -9.470  29.284  0.00  0.00    +0.000 A 
ATOM     16  C   UNL     1      18.929  -9.688  30.540  0.00  0.00    +0.000 A 
ATOM     17  C   UNL     1      17.671 -10.180  30.757  0.00  0.00    +0.000 A 
ATOM     18  O   UNL     1      17.176 -10.398  32.017  0.00  0.00    +0.000 OA
ATOM     19  C   UNL     1      16.863 -10.469  29.660  0.00  0.00    +0.000 A 
ATOM     20  C   UNL     1      17.372 -10.245  28.423  0.00  0.00    +0.000 A 
ENDBRANCH   5  14
TORSDOF 1
ENDMDL
MODEL 3
REMARK VINA RESULT:      -6.3      2.455      5.782
REMARK  Name = 
REMARK  1 active torsions:
REMARK  status: ('A' for Active; 'I' for Inactive)
REMARK    1  A    between atoms: C_5  and  C_7
REMARK                            x       y       z     vdW  Elec       q    Type
REMARK                         _______ _______ _______ _____ _____    ______ ____
ROOT
ATOM      1  C   UNL     1      25.377  24.518  27.807  0.00  0.00    +0.000 C 
ATOM      2  C   UNL     1      26.668  25.238  27.437  0.00  0.00    +0.000 C 
ATOM      3  C   UNL     1      26.803  26.534  28.202  0.00  0.00    +0.000 C 
ATOM      4  C   UNL     1      26.655  25.445  25.961  0.00  0.00    +0.000 C 
ATOM      5  C   UNL     1      27.182  24.114  25.454  0.00  0.00    +0.000 C 
ATOM      6  C   UNL     1      26.059  23.099  25.326  0.00  0.00    +0.000 C 
ATOM      7  C   UNL     1      28.146  23.724  26.531  0.00  0.00    +0.000 A 
ATOM      8  C   UNL     1      29.212  22.841  26.458  0.00  0.00    +0.000 A 
ATOM      9  C   UNL     1      29.979  22.634  27.576  0.00  0.00    +0.000 A 
ATOM     10  O   UNL     1      31.054  21.748  27.519  0.00  0.00    +0.000 OA
ATOM     11  C   UNL     1      29.716  23.289  28.777  0.00  0.00    +0.000 A 
ATOM     12  C   UNL     1      28.652  24.157  28.811  0.00  0.00    +0.000 A 
ATOM     13  C   UNL     1      27.846  24.392  27.688  0.00  0.00    +0.000 A 
ENDROOT
BRANCH   5  14
ATOM     14  C   UNL     1      27.885  24.344  24.185  0.00  0.00    +0.000 A 
ATOM     15  C   UNL     1      28.724  25.425  23.976  0.00  0.00    +0.000 A 
ATOM     16  C   UNL     1      29.343  25.565  22.764  0.00  0.00    +0.000 A 
ATOM     17  C   UNL     1      29.163  24.673  21.743  0.00  0.00    +0.000 A 
ATOM     18  O   UNL     1      29.783  24.813  20.528  0.00  0.00    +0.000 OA
ATOM     19  C   UNL     1      28.320  23.582  21.944  0.00  0.00    +0.000 A 
ATOM     20  C   UNL     1      27.718  23.461  23.152  0.00  0.00    +0.000 A 
ENDBRANCH   5  14
TORSDOF 1
ENDMDL
MODEL 4
REMARK VINA RESULT:      -6.2      1.945      5.717
REMARK  Name = 
REMARK  1 active torsions:
REMARK  status: ('A' for Active; 'I' for Inactive)
REMARK    1  A    between atoms: C_5  and  C_7
REMARK                            x       y       z     vdW  Elec       q    Type
REMARK                         _______ _______ _______ _____ _____    ______ ____
ROOT
ATOM      1  C   UNL     1      28.819  22.856  30.017  0.00  0.00    +0.000 C 
ATOM      2  C   UNL     1      27.455  22.631  29.376  0.00  0.00    +0.000 C 
ATOM      3  C   UNL     1      26.674  21.574  30.121  0.00  0.00    +0.000 C 
ATOM      4  C   UNL     1      27.688  22.269  27.949  0.00  0.00    +0.000 C 
ATOM      5  C   UNL     1      27.835  23.634  27.299  0.00  0.00    +0.000 C 
ATOM      6  C   UNL     1      29.265  24.137  27.411  0.00  0.00    +0.000 C 
ATOM      7  C   UNL     1      26.900  24.474  28.113  0.00  0.00    +0.000 A 
ATOM      8  C   UNL     1      26.300  25.676  27.772  0.00  0.00    +0.000 A 
ATOM      9  C   UNL     1      25.462  26.279  28.676  0.00  0.00    +0.000 A 
ATOM     10  O   UNL     1      24.851  27.489  28.348  0.00  0.00    +0.000 OA
ATOM     11  C   UNL     1      25.199  25.713  29.921  0.00  0.00    +0.000 A 
ATOM     12  C   UNL     1      25.810  24.521  30.223  0.00  0.00    +0.000 A 
ATOM     13  C   UNL     1      26.673  23.878  29.325  0.00  0.00    +0.000 A 
ENDROOT
BRANCH   5  14
ATOM     14  C   UNL     1      27.374  23.541  25.908  0.00  0.00    +0.000 A 
ATOM     15  C   UNL     1      26.120  23.068  25.563  0.00  0.00    +0.000 A 
ATOM     16  C   UNL     1      25.767  23.015  24.243  0.00  0.00    +0.000 A 
ATOM     17  C   UNL     1      26.611  23.413  23.243  0.00  0.00    +0.000 A 
ATOM     18  O   UNL     1      26.258  23.360  21.919  0.00  0.00    +0.000 OA
ATOM     19  C   UNL     1      27.876  23.890  23.580  0.00  0.00    +0.000 A 
ATOM     20  C   UNL     1      28.205  23.935  24.894  0.00  0.00    +0.000 A 
ENDBRANCH   5  14
TORSDOF 1
ENDMDL
MODEL 5
REMARK VINA RESULT:      -6.1     20.955     24.027
REMARK  Name = 
REMARK  1 active torsions:
REMARK  status: ('A' for Active; 'I' for Inactive)
REMARK    1  A    between atoms: C_5  and  C_7
REMARK                            x       y       z     vdW  Elec       q    Type
REMARK                         _______ _______ _______ _____ _____    ______ ____
ROOT
ATOM      1  C   UNL     1      16.711   9.624  42.632  0.00  0.00    +0.000 C 
ATOM      2  C   UNL     1      16.602   8.612  41.498  0.00  0.00    +0.000 C 
ATOM      3  C   UNL     1      15.162   8.223  41.256  0.00  0.00    +0.000 C 
ATOM      4  C   UNL     1      17.456   7.445  41.858  0.00  0.00    +0.000 C 
ATOM      5  C   UNL     1      18.828   7.906  41.395  0.00  0.00    +0.000 C 
ATOM      6  C   UNL     1      19.509   8.742  42.466  0.00  0.00    +0.000 C 
ATOM      7  C   UNL     1      18.494   8.733  40.192  0.00  0.00    +0.000 A 
ATOM      8  C   UNL     1      19.312   9.080  39.128  0.00  0.00    +0.000 A 
ATOM      9  C   UNL     1      18.795   9.848  38.116  0.00  0.00    +0.000 A 
ATOM     10  O   UNL     1      19.606  10.205  37.040  0.00  0.00    +0.000 OA
ATOM     11  C   UNL     1      17.472  10.283  38.131  0.00  0.00    +0.000 A 
ATOM     12  C   UNL     1      16.691   9.919  39.200  0.00  0.00    +0.000 A 
ATOM     13  C   UNL     1      17.187   9.137  40.252  0.00  0.00    +0.000 A 
ENDROOT
BRANCH   5  14
ATOM     14  C   UNL     1      19.613   6.725  41.013  0.00  0.00    +0.000 A 
ATOM     15  C   UNL     1      20.980   6.637  41.208  0.00  0.00    +0.000 A 
ATOM     16  C   UNL     1      21.637   5.500  40.826  0.00  0.00    +0.000 A 
ATOM     17  C   UNL     1      20.991   4.439  40.254  0.00  0.00    +0.000 A 
ATOM     18  O   UNL     1      21.649   3.299  39.870  0.00  0.00    +0.000 OA
ATOM     19  C   UNL     1      19.614   4.518  40.053  0.00  0.00    +0.000 A 
ATOM     20  C   UNL     1      18.983   5.653  40.439  0.00  0.00    +0.000 A 
ENDBRANCH   5  14
TORSDOF 1
ENDMDL
MODEL 6
REMARK VINA RESULT:      -6.1     31.690     33.036
REMARK  Name = 
REMARK  1 active torsions:
REMARK  status: ('A' for Active; 'I' for Inactive)
REMARK    1  A    between atoms: C_5  and  C_7
REMARK                            x       y       z     vdW  Elec       q    Type
REMARK                         _______ _______ _______ _____ _____    ______ ____
ROOT
ATOM      1  C   UNL     1      24.332  -9.476  24.508  0.00  0.00    +0.000 C 
ATOM      2  C   UNL     1      23.442  -8.396  23.906  0.00  0.00    +0.000 C 
ATOM      3  C   UNL     1      24.242  -7.463  23.027  0.00  0.00    +0.000 C 
ATOM      4  C   UNL     1      22.777  -7.687  25.035  0.00  0.00    +0.000 C 
ATOM      5  C   UNL     1      21.590  -8.591  25.318  0.00  0.00    +0.000 C 
ATOM      6  C   UNL     1      21.982  -9.724  26.253  0.00  0.00    +0.000 C 
ATOM      7  C   UNL     1      21.253  -9.107  23.953  0.00  0.00    +0.000 A 
ATOM      8  C   UNL     1      20.054  -9.637  23.502  0.00  0.00    +0.000 A 
ATOM      9  C   UNL     1      19.960 -10.046  22.196  0.00  0.00    +0.000 A 
ATOM     10  O   UNL     1      18.761 -10.582  21.727  0.00  0.00    +0.000 OA
ATOM     11  C   UNL     1      21.035  -9.940  21.316  0.00  0.00    +0.000 A 
ATOM     12  C   UNL     1      22.206  -9.409  21.799  0.00  0.00    +0.000 A 
ATOM     13  C   UNL     1      22.338  -8.982  23.127  0.00  0.00    +0.000 A 
ENDROOT
BRANCH   5  14
ATOM     14  C   UNL     1      20.494  -7.771  25.850  0.00  0.00    +0.000 A 
ATOM     15  C   UNL     1      19.503  -8.281  26.670  0.00  0.00    +0.000 A 
ATOM     16  C   UNL     1      18.518  -7.449  27.125  0.00  0.00    +0.000 A 
ATOM     17  C   UNL     1      18.473  -6.122  26.797  0.00  0.00    +0.000 A 
ATOM     18  O   UNL     1      17.485  -5.287  27.252  0.00  0.00    +0.000 OA
ATOM     19  C   UNL     1      19.465  -5.598  25.971  0.00  0.00    +0.000 A 
ATOM     20  C   UNL     1      20.432  -6.440  25.532  0.00  0.00    +0.000 A 
ENDBRANCH   5  14
TORSDOF 1
ENDMDL
MODEL 7
REMARK VINA RESULT:      -6.0      1.674      2.166
REMARK  Name = 
REMARK  1 active torsions:
REMARK  status: ('A' for Active; 'I' for Inactive)
REMARK    1  A    between atoms: C_5  and  C_7
REMARK                            x       y       z     vdW  Elec       q    Type
REMARK                         _______ _______ _______ _____ _____    ______ ____
ROOT
ATOM      1  C   UNL     1      31.061  23.000  25.238  0.00  0.00    +0.000 C 
ATOM      2  C   UNL     1      30.319  24.294  24.922  0.00  0.00    +0.000 C 
ATOM      3  C   UNL     1      31.281  25.383  24.510  0.00  0.00    +0.000 C 
ATOM      4  C   UNL     1      29.527  24.658  26.131  0.00  0.00    +0.000 C 
ATOM      5  C   UNL     1      28.272  23.823  25.948  0.00  0.00    +0.000 C 
ATOM      6  C   UNL     1      28.470  22.419  26.495  0.00  0.00    +0.000 C 
ATOM      7  C   UNL     1      28.117  23.808  24.459  0.00  0.00    +0.000 A 
ATOM      8  C   UNL     1      26.975  23.563  23.712  0.00  0.00    +0.000 A 
ATOM      9  C   UNL     1      27.056  23.607  22.343  0.00  0.00    +0.000 A 
ATOM     10  O   UNL     1      25.917  23.363  21.578  0.00  0.00    +0.000 OA
ATOM     11  C   UNL     1      28.253  23.893  21.689  0.00  0.00    +0.000 A 
ATOM     12  C   UNL     1      29.362  24.131  22.463  0.00  0.00    +0.000 A 
ATOM     13  C   UNL     1      29.317  24.093  23.863  0.00  0.00    +0.000 A 
ENDROOT
BRANCH   5  14
ATOM     14  C   UNL     1      27.148  24.525  26.581  0.00  0.00    +0.000 A 
ATOM     15  C   UNL     1      26.154  23.868  27.285  0.00  0.00    +0.000 A 
ATOM     16  C   UNL     1      25.141  24.596  27.847  0.00  0.00    +0.000 A 
ATOM     17  C   UNL     1      25.072  25.958  27.738  0.00  0.00    +0.000 A 
ATOM     18  O   UNL     1      24.057  26.688  28.301  0.00  0.00    +0.000 OA
ATOM     19  C   UNL     1      26.068  26.628  27.031  0.00  0.00    +0.000 A 
ATOM     20  C   UNL     1      27.062  25.888  26.483  0.00  0.00    +0.000 A 
ENDBRANCH   5  14
TORSDOF 1
ENDMDL
MODEL 8
REMARK VINA RESULT:      -5.8     21.303     25.079
REMARK  Name = 
REMARK  1 active torsions:
REMARK  status: ('A' for Active; 'I' for Inactive)
REMARK    1  A    between atoms: C_5  and  C_7
REMARK                            x       y       z     vdW  Elec       q    Type
REMARK                         _______ _______ _______ _____ _____    ______ ____
ROOT
ATOM      1  C   UNL     1      15.553   7.396  44.153  0.00  0.00    +0.000 C 
ATOM      2  C   UNL     1      17.006   7.756  43.866  0.00  0.00    +0.000 C 
ATOM      3  C   UNL     1      17.764   8.008  45.148  0.00  0.00    +0.000 C 
ATOM      4  C   UNL     1      17.001   8.942  42.963  0.00  0.00    +0.000 C 
ATOM      5  C   UNL     1      16.829   8.296  41.599  0.00  0.00    +0.000 C 
ATOM      6  C   UNL     1      15.359   8.052  41.296  0.00  0.00    +0.000 C 
ATOM      7  C   UNL     1      17.570   7.006  41.765  0.00  0.00    +0.000 A 
ATOM      8  C   UNL     1      18.107   6.187  40.784  0.00  0.00    +0.000 A 
ATOM      9  C   UNL     1      18.760   5.041  41.161  0.00  0.00    +0.000 A 
ATOM     10  O   UNL     1      19.305   4.206  40.186  0.00  0.00    +0.000 OA
ATOM     11  C   UNL     1      18.898   4.684  42.501  0.00  0.00    +0.000 A 
ATOM     12  C   UNL     1      18.354   5.521  43.444  0.00  0.00    +0.000 A 
ATOM     13  C   UNL     1      17.679   6.698  43.095  0.00  0.00    +0.000 A 
ENDROOT
BRANCH   5  14
ATOM     14  C   UNL     1      17.481   9.147  40.595  0.00  0.00    +0.000 A 
ATOM     15  C   UNL     1      18.798   9.559  40.702  0.00  0.00    +0.000 A 
ATOM     16  C   UNL     1      19.330  10.350  39.721  0.00  0.00    +0.000 A 
ATOM     17  C   UNL     1      18.608  10.751  38.631  0.00  0.00    +0.000 A 
ATOM     18  O   UNL     1      19.142  11.544  37.648  0.00  0.00    +0.000 OA
ATOM     19  C   UNL     1      17.282  10.341  38.515  0.00  0.00    +0.000 A 
ATOM     20  C   UNL     1      16.773   9.558  39.497  0.00  0.00    +0.000 A 
ENDBRANCH   5  14
TORSDOF 1
ENDMDL
MODEL 9
REMARK VINA RESULT:      -5.8     20.503     22.000
REMARK  Name = 
REMARK  1 active torsions:
REMARK  status: ('A' for Active; 'I' for Inactive)
REMARK    1  A    between atoms: C_5  and  C_7
REMARK                            x       y       z     vdW  Elec       q    Type
REMARK                         _______ _______ _______ _____ _____    ______ ____
ROOT
ATOM      1  C   UNL     1      28.227   7.358  16.953  0.00  0.00    +0.000 C 
ATOM      2  C   UNL     1      27.388   6.562  15.960  0.00  0.00    +0.000 C 
ATOM      3  C   UNL     1      27.175   7.343  14.684  0.00  0.00    +0.000 C 
ATOM      4  C   UNL     1      26.106   6.216  16.637  0.00  0.00    +0.000 C 
ATOM      5  C   UNL     1      26.488   4.964  17.409  0.00  0.00    +0.000 C 
ATOM      6  C   UNL     1      27.107   5.322  18.750  0.00  0.00    +0.000 C 
ATOM      7  C   UNL     1      27.494   4.328  16.500  0.00  0.00    +0.000 A 
ATOM      8  C   UNL     1      27.896   3.002  16.451  0.00  0.00    +0.000 A 
ATOM      9  C   UNL     1      28.836   2.628  15.525  0.00  0.00    +0.000 A 
ATOM     10  O   UNL     1      29.251   1.298  15.463  0.00  0.00    +0.000 OA
ATOM     11  C   UNL     1      29.393   3.544  14.635  0.00  0.00    +0.000 A 
ATOM     12  C   UNL     1      28.969   4.848  14.713  0.00  0.00    +0.000 A 
ATOM     13  C   UNL     1      28.011   5.266  15.647  0.00  0.00    +0.000 A 
ENDROOT
BRANCH   5  14
ATOM     14  C   UNL     1      25.296   4.116  17.542  0.00  0.00    +0.000 A 
ATOM     15  C   UNL     1      24.998   3.417  18.698  0.00  0.00    +0.000 A 
ATOM     16  C   UNL     1      23.866   2.650  18.741  0.00  0.00    +0.000 A 
ATOM     17  C   UNL     1      23.012   2.546  17.678  0.00  0.00    +0.000 A 
ATOM     18  O   UNL     1      21.878   1.777  17.721  0.00  0.00    +0.000 OA
ATOM     19  C   UNL     1      23.305   3.246  16.509  0.00  0.00    +0.000 A 
ATOM     20  C   UNL     1      24.430   4.000  16.488  0.00  0.00    +0.000 A 
ENDBRANCH   5  14
TORSDOF 1
ENDMDL
MODEL 10
REMARK VINA RESULT:      -5.7     23.583     26.500
REMARK  Name = 
REMARK  1 active torsions:
REMARK  status: ('A' for Active; 'I' for Inactive)
REMARK    1  A    between atoms: C_5  and  C_7
REMARK                            x       y       z     vdW  Elec       q    Type
REMARK                         _______ _______ _______ _____ _____    ______ ____
ROOT
ATOM      1  C   UNL     1      23.018  -0.026  42.780  0.00  0.00    +0.000 C 
ATOM      2  C   UNL     1      23.122   0.353  41.307  0.00  0.00    +0.000 C 
ATOM      3  C   UNL     1      22.726  -0.805  40.421  0.00  0.00    +0.000 C 
ATOM      4  C   UNL     1      24.519   0.809  41.062  0.00  0.00    +0.000 C 
ATOM      5  C   UNL     1      24.455   2.263  41.494  0.00  0.00    +0.000 C 
ATOM      6  C   UNL     1      24.669   2.395  42.993  0.00  0.00    +0.000 C 
ATOM      7  C   UNL     1      23.059   2.645  41.110  0.00  0.00    +0.000 A 
ATOM      8  C   UNL     1      22.543   3.911  40.879  0.00  0.00    +0.000 A 
ATOM      9  C   UNL     1      21.223   4.034  40.527  0.00  0.00    +0.000 A 
ATOM     10  O   UNL     1      20.688   5.301  40.292  0.00  0.00    +0.000 OA
ATOM     11  C   UNL     1      20.393   2.923  40.395  0.00  0.00    +0.000 A 
ATOM     12  C   UNL     1      20.940   1.686  40.631  0.00  0.00    +0.000 A 
ATOM     13  C   UNL     1      22.284   1.522  40.994  0.00  0.00    +0.000 A 
ENDROOT
BRANCH   5  14
ATOM     14  C   UNL     1      25.437   3.026  40.712  0.00  0.00    +0.000 A 
ATOM     15  C   UNL     1      25.907   4.268  41.103  0.00  0.00    +0.000 A 
ATOM     16  C   UNL     1      26.823   4.911  40.318  0.00  0.00    +0.000 A 
ATOM     17  C   UNL     1      27.296   4.373  39.153  0.00  0.00    +0.000 A 
ATOM     18  O   UNL     1      28.215   5.019  38.366  0.00  0.00    +0.000 OA
ATOM     19  C   UNL     1      26.829   3.123  38.751  0.00  0.00    +0.000 A 
ATOM     20  C   UNL     1      25.922   2.502  39.544  0.00  0.00    +0.000 A 
ENDBRANCH   5  14
TORSDOF 1
ENDMDL
