MODEL 1
REMARK VINA RESULT:      -5.7      0.000      0.000
REMARK  Name = 
REMARK  5 active torsions:
REMARK  status: ('A' for Active; 'I' for Inactive)
REMARK    1  A    between atoms: N_2  and  C_4
REMARK    2  A    between atoms: C_9  and  N_10
REMARK    3  A    between atoms: N_10  and  C_11
REMARK    4  A    between atoms: C_11  and  N_13
REMARK    5  A    between atoms: N_13  and  C_14
REMARK                            x       y       z     vdW  Elec       q    Type
REMARK                         _______ _______ _______ _____ _____    ______ ____
ROOT
ATOM      1  N   UNL     1      26.623  26.127  25.459  0.00  0.00    +0.000 NA
ENDROOT
BRANCH   1   7
ATOM      2  C   UNL     1      28.027  25.050  22.215  0.00  0.00    +0.000 A 
ATOM      3  C   UNL     1      27.246  23.924  21.970  0.00  0.00    +0.000 A 
ATOM      4  C   UNL     1      26.276  23.545  22.877  0.00  0.00    +0.000 A 
ATOM      5  C   UNL     1      26.068  24.252  24.008  0.00  0.00    +0.000 A 
ATOM      6  F   UNL     1      25.131  23.908  24.910  0.00  0.00    +0.000 F 
ATOM      7  C   UNL     1      26.832  25.390  24.289  0.00  0.00    +0.000 A 
ATOM      8  C   UNL     1      27.775  25.734  23.378  0.00  0.00    +0.000 A 
BRANCH   2  10
ATOM      9  O   UNL     1      29.707  24.572  20.724  0.00  0.00    +0.000 OA
ATOM     10  N   UNL     1      29.028  25.449  21.288  0.00  0.00    +0.000 N 
ATOM     11  O   UNL     1      29.246  26.773  21.017  0.00  0.00    +0.000 OA
ENDBRANCH   2  10
ENDBRANCH   1   7
BRANCH   1  12
ATOM     12  C   UNL     1      27.540  25.991  26.581  0.00  0.00    +0.000 C 
ATOM     13  S   UNL     1      27.883  27.404  27.347  0.00  0.00    +0.000 S 
BRANCH  12  14
ATOM     14  N   UNL     1      27.995  24.748  26.859  0.00  0.00    +0.000 NA
BRANCH  14  15
ATOM     15  C   UNL     1      29.168  24.015  27.179  0.00  0.00    +0.000 C 
ATOM     16  C   UNL     1      30.204  24.458  26.058  0.00  0.00    +0.000 C 
ATOM     17  C   UNL     1      31.250  23.162  26.069  0.00  0.00    +0.000 C 
ATOM     18  C   UNL     1      30.606  22.439  24.737  0.00  0.00    +0.000 C 
ATOM     19  C   UNL     1      29.249  22.758  24.960  0.00  0.00    +0.000 C 
ATOM     20  C   UNL     1      28.865  22.500  26.507  0.00  0.00    +0.000 C 
ATOM     21  C   UNL     1      30.386  22.147  27.025  0.00  0.00    +0.000 C 
ENDBRANCH  14  15
ENDBRANCH  12  14
ENDBRANCH   1  12
TORSDOF 5
ENDMDL
MODEL 2
REMARK VINA RESULT:      -5.6      2.664      3.114
REMARK  Name = 
REMARK  5 active torsions:
REMARK  status: ('A' for Active; 'I' for Inactive)
REMARK    1  A    between atoms: N_2  and  C_4
REMARK    2  A    between atoms: C_9  and  N_10
REMARK    3  A    between atoms: N_10  and  C_11
REMARK    4  A    between atoms: C_11  and  N_13
REMARK    5  A    between atoms: N_13  and  C_14
REMARK                            x       y       z     vdW  Elec       q    Type
REMARK                         _______ _______ _______ _____ _____    ______ ____
ROOT
ATOM      1  N   UNL     1      26.081  23.428  28.147  0.00  0.00    +0.000 NA
ENDROOT
BRANCH   1   7
ATOM      2  C   UNL     1      25.797  23.876  24.490  0.00  0.00    +0.000 A 
ATOM      3  C   UNL     1      25.086  25.072  24.442  0.00  0.00    +0.000 A 
ATOM      4  C   UNL     1      24.717  25.703  25.613  0.00  0.00    +0.000 A 
ATOM      5  C   UNL     1      25.035  25.178  26.816  0.00  0.00    +0.000 A 
ATOM      6  F   UNL     1      24.689  25.770  27.973  0.00  0.00    +0.000 F 
ATOM      7  C   UNL     1      25.748  23.978  26.905  0.00  0.00    +0.000 A 
ATOM      8  C   UNL     1      26.095  23.384  25.736  0.00  0.00    +0.000 A 
BRANCH   2  10
ATOM      9  O   UNL     1      27.394  23.069  23.050  0.00  0.00    +0.000 OA
ATOM     10  N   UNL     1      26.182  23.217  23.290  0.00  0.00    +0.000 N 
ATOM     11  O   UNL     1      25.242  22.750  22.413  0.00  0.00    +0.000 OA
ENDBRANCH   2  10
ENDBRANCH   1   7
BRANCH   1  12
ATOM     12  C   UNL     1      27.144  24.021  28.946  0.00  0.00    +0.000 C 
ATOM     13  S   UNL     1      26.701  24.397  30.483  0.00  0.00    +0.000 S 
BRANCH  12  14
ATOM     14  N   UNL     1      28.345  24.190  28.348  0.00  0.00    +0.000 NA
BRANCH  14  15
ATOM     15  C   UNL     1      29.670  23.684  28.301  0.00  0.00    +0.000 C 
ATOM     16  C   UNL     1      30.320  24.450  27.069  0.00  0.00    +0.000 C 
ATOM     17  C   UNL     1      31.551  23.404  26.665  0.00  0.00    +0.000 C 
ATOM     18  C   UNL     1      30.751  22.713  25.402  0.00  0.00    +0.000 C 
ATOM     19  C   UNL     1      29.449  22.720  25.949  0.00  0.00    +0.000 C 
ATOM     20  C   UNL     1      29.490  22.222  27.483  0.00  0.00    +0.000 C 
ATOM     21  C   UNL     1      31.128  22.134  27.613  0.00  0.00    +0.000 C 
ENDBRANCH  14  15
ENDBRANCH  12  14
ENDBRANCH   1  12
TORSDOF 5
ENDMDL
MODEL 3
REMARK VINA RESULT:      -5.6     19.307     20.435
REMARK  Name = 
REMARK  5 active torsions:
REMARK  status: ('A' for Active; 'I' for Inactive)
REMARK    1  A    between atoms: N_2  and  C_4
REMARK    2  A    between atoms: C_9  and  N_10
REMARK    3  A    between atoms: N_10  and  C_11
REMARK    4  A    between atoms: C_11  and  N_13
REMARK    5  A    between atoms: N_13  and  C_14
REMARK                            x       y       z     vdW  Elec       q    Type
REMARK                         _______ _______ _______ _____ _____    ______ ____
ROOT
ATOM      1  N   UNL     1      19.124  11.117  38.288  0.00  0.00    +0.000 NA
ENDROOT
BRANCH   1   7
ATOM      2  C   UNL     1      16.259  11.449  35.978  0.00  0.00    +0.000 A 
ATOM      3  C   UNL     1      16.599  10.494  35.024  0.00  0.00    +0.000 A 
ATOM      4  C   UNL     1      17.762   9.763  35.163  0.00  0.00    +0.000 A 
ATOM      5  C   UNL     1      18.584   9.958  36.216  0.00  0.00    +0.000 A 
ATOM      6  F   UNL     1      19.723   9.261  36.378  0.00  0.00    +0.000 F 
ATOM      7  C   UNL     1      18.277  10.908  37.195  0.00  0.00    +0.000 A 
ATOM      8  C   UNL     1      17.128  11.609  37.029  0.00  0.00    +0.000 A 
BRANCH   2  10
ATOM      9  O   UNL     1      14.752  12.644  34.723  0.00  0.00    +0.000 OA
ATOM     10  N   UNL     1      15.064  12.208  35.846  0.00  0.00    +0.000 N 
ATOM     11  O   UNL     1      14.266  12.457  36.930  0.00  0.00    +0.000 OA
ENDBRANCH   2  10
ENDBRANCH   1   7
BRANCH   1  12
ATOM     12  C   UNL     1      20.276  11.998  38.160  0.00  0.00    +0.000 C 
ATOM     13  S   UNL     1      19.970  13.567  38.541  0.00  0.00    +0.000 S 
BRANCH  12  14
ATOM     14  N   UNL     1      21.438  11.440  37.753  0.00  0.00    +0.000 NA
BRANCH  14  15
ATOM     15  C   UNL     1      22.582  10.738  38.214  0.00  0.00    +0.000 C 
ATOM     16  C   UNL     1      23.797  11.636  37.722  0.00  0.00    +0.000 C 
ATOM     17  C   UNL     1      25.025  10.513  37.690  0.00  0.00    +0.000 C 
ATOM     18  C   UNL     1      24.963  10.269  36.063  0.00  0.00    +0.000 C 
ATOM     19  C   UNL     1      23.566  10.376  35.888  0.00  0.00    +0.000 C 
ATOM     20  C   UNL     1      22.797   9.548  37.041  0.00  0.00    +0.000 C 
ATOM     21  C   UNL     1      24.133   9.155  37.918  0.00  0.00    +0.000 C 
ENDBRANCH  14  15
ENDBRANCH  12  14
ENDBRANCH   1  12
TORSDOF 5
ENDMDL
MODEL 4
REMARK VINA RESULT:      -5.5     28.157     30.149
REMARK  Name = 
REMARK  5 active torsions:
REMARK  status: ('A' for Active; 'I' for Inactive)
REMARK    1  A    between atoms: N_2  and  C_4
REMARK    2  A    between atoms: C_9  and  N_10
REMARK    3  A    between atoms: N_10  and  C_11
REMARK    4  A    between atoms: C_11  and  N_13
REMARK    5  A    between atoms: N_13  and  C_14
REMARK                            x       y       z     vdW  Elec       q    Type
REMARK                         _______ _______ _______ _____ _____    ______ ____
ROOT
ATOM      1  N   UNL     1      33.671  -4.359  33.668  0.00  0.00    +0.000 NA
ENDROOT
BRANCH   1   7
ATOM      2  C   UNL     1      33.307  -0.685  33.823  0.00  0.00    +0.000 A 
ATOM      3  C   UNL     1      32.469  -0.567  34.928  0.00  0.00    +0.000 A 
ATOM      4  C   UNL     1      32.043  -1.698  35.597  0.00  0.00    +0.000 A 
ATOM      5  C   UNL     1      32.427  -2.929  35.196  0.00  0.00    +0.000 A 
ATOM      6  F   UNL     1      32.029  -4.048  35.827  0.00  0.00    +0.000 F 
ATOM      7  C   UNL     1      33.269  -3.088  34.090  0.00  0.00    +0.000 A 
ATOM      8  C   UNL     1      33.668  -1.958  33.456  0.00  0.00    +0.000 A 
BRANCH   2  10
ATOM      9  O   UNL     1      33.361   1.589  33.512  0.00  0.00    +0.000 OA
ATOM     10  N   UNL     1      33.751   0.472  33.127  0.00  0.00    +0.000 N 
ATOM     11  O   UNL     1      34.594   0.365  32.054  0.00  0.00    +0.000 OA
ENDBRANCH   2  10
ENDBRANCH   1   7
BRANCH   1  12
ATOM     12  C   UNL     1      32.861  -5.100  32.711  0.00  0.00    +0.000 C 
ATOM     13  S   UNL     1      31.688  -6.026  33.394  0.00  0.00    +0.000 S 
BRANCH  12  14
ATOM     14  N   UNL     1      33.158  -4.945  31.401  0.00  0.00    +0.000 NA
BRANCH  14  15
ATOM     15  C   UNL     1      32.867  -5.446  30.105  0.00  0.00    +0.000 C 
ATOM     16  C   UNL     1      32.667  -7.006  30.343  0.00  0.00    +0.000 C 
ATOM     17  C   UNL     1      32.982  -7.598  28.820  0.00  0.00    +0.000 C 
ATOM     18  C   UNL     1      34.523  -8.069  29.159  0.00  0.00    +0.000 C 
ATOM     19  C   UNL     1      34.881  -7.012  30.023  0.00  0.00    +0.000 C 
ATOM     20  C   UNL     1      34.393  -5.602  29.406  0.00  0.00    +0.000 C 
ATOM     21  C   UNL     1      33.564  -6.228  28.130  0.00  0.00    +0.000 C 
ENDBRANCH  14  15
ENDBRANCH  12  14
ENDBRANCH   1  12
TORSDOF 5
ENDMDL
MODEL 5
REMARK VINA RESULT:      -5.4     32.568     33.696
REMARK  Name = 
REMARK  5 active torsions:
REMARK  status: ('A' for Active; 'I' for Inactive)
REMARK    1  A    between atoms: N_2  and  C_4
REMARK    2  A    between atoms: C_9  and  N_10
REMARK    3  A    between atoms: N_10  and  C_11
REMARK    4  A    between atoms: C_11  and  N_13
REMARK    5  A    between atoms: N_13  and  C_14
REMARK                            x       y       z     vdW  Elec       q    Type
REMARK                         _______ _______ _______ _____ _____    ______ ____
ROOT
ATOM      1  N   UNL     1      20.626 -10.101  26.058  0.00  0.00    +0.000 NA
ENDROOT
BRANCH   1   7
ATOM      2  C   UNL     1      18.889  -6.899  26.679  0.00  0.00    +0.000 A 
ATOM      3  C   UNL     1      17.941  -7.311  27.613  0.00  0.00    +0.000 A 
ATOM      4  C   UNL     1      17.896  -8.630  28.017  0.00  0.00    +0.000 A 
ATOM      5  C   UNL     1      18.762  -9.539  27.518  0.00  0.00    +0.000 A 
ATOM      6  F   UNL     1      18.742 -10.831  27.893  0.00  0.00    +0.000 F 
ATOM      7  C   UNL     1      19.727  -9.165  26.579  0.00  0.00    +0.000 A 
ATOM      8  C   UNL     1      19.744  -7.862  26.204  0.00  0.00    +0.000 A 
BRANCH   2  10
ATOM      9  O   UNL     1      19.858  -5.192  25.488  0.00  0.00    +0.000 OA
ATOM     10  N   UNL     1      18.944  -5.543  26.256  0.00  0.00    +0.000 N 
ATOM     11  O   UNL     1      18.011  -4.636  26.681  0.00  0.00    +0.000 OA
ENDBRANCH   2  10
ENDBRANCH   1   7
BRANCH   1  12
ATOM     12  C   UNL     1      22.052  -9.967  26.321  0.00  0.00    +0.000 C 
ATOM     13  S   UNL     1      22.572 -10.789  27.646  0.00  0.00    +0.000 S 
BRANCH  12  14
ATOM     14  N   UNL     1      22.769  -9.202  25.468  0.00  0.00    +0.000 NA
BRANCH  14  15
ATOM     15  C   UNL     1      23.170  -9.088  24.111  0.00  0.00    +0.000 C 
ATOM     16  C   UNL     1      24.747  -8.900  24.202  0.00  0.00    +0.000 C 
ATOM     17  C   UNL     1      25.056  -8.145  22.750  0.00  0.00    +0.000 C 
ATOM     18  C   UNL     1      25.160  -6.631  23.389  0.00  0.00    +0.000 C 
ATOM     19  C   UNL     1      24.156  -6.749  24.375  0.00  0.00    +0.000 C 
ATOM     20  C   UNL     1      22.853  -7.472  23.755  0.00  0.00    +0.000 C 
ATOM     21  C   UNL     1      23.512  -7.834  22.292  0.00  0.00    +0.000 C 
ENDBRANCH  14  15
ENDBRANCH  12  14
ENDBRANCH   1  12
TORSDOF 5
ENDMDL
MODEL 6
REMARK VINA RESULT:      -5.4      4.182      5.609
REMARK  Name = 
REMARK  5 active torsions:
REMARK  status: ('A' for Active; 'I' for Inactive)
REMARK    1  A    between atoms: N_2  and  C_4
REMARK    2  A    between atoms: C_9  and  N_10
REMARK    3  A    between atoms: N_10  and  C_11
REMARK    4  A    between atoms: C_11  and  N_13
REMARK    5  A    between atoms: N_13  and  C_14
REMARK                            x       y       z     vdW  Elec       q    Type
REMARK                         _______ _______ _______ _____ _____    ______ ____
ROOT
ATOM      1  N   UNL     1      25.699  24.623  26.179  0.00  0.00    +0.000 NA
ENDROOT
BRANCH   1   7
ATOM      2  C   UNL     1      26.167  23.445  29.650  0.00  0.00    +0.000 A 
ATOM      3  C   UNL     1      25.705  24.555  30.351  0.00  0.00    +0.000 A 
ATOM      4  C   UNL     1      25.249  25.665  29.667  0.00  0.00    +0.000 A 
ATOM      5  C   UNL     1      25.244  25.694  28.317  0.00  0.00    +0.000 A 
ATOM      6  F   UNL     1      24.807  26.760  27.623  0.00  0.00    +0.000 F 
ATOM      7  C   UNL     1      25.701  24.599  27.577  0.00  0.00    +0.000 A 
ATOM      8  C   UNL     1      26.141  23.526  28.280  0.00  0.00    +0.000 A 
BRANCH   2  10
ATOM      9  O   UNL     1      27.865  22.093  30.401  0.00  0.00    +0.000 OA
ATOM     10  N   UNL     1      26.639  22.298  30.345  0.00  0.00    +0.000 N 
ATOM     11  O   UNL     1      25.765  21.431  30.943  0.00  0.00    +0.000 OA
ENDBRANCH   2  10
ENDBRANCH   1   7
BRANCH   1  12
ATOM     12  C   UNL     1      26.710  25.385  25.461  0.00  0.00    +0.000 C 
ATOM     13  S   UNL     1      26.100  26.513  24.434  0.00  0.00    +0.000 S 
BRANCH  12  14
ATOM     14  N   UNL     1      28.005  25.088  25.715  0.00  0.00    +0.000 NA
BRANCH  14  15
ATOM     15  C   UNL     1      29.147  24.443  25.174  0.00  0.00    +0.000 C 
ATOM     16  C   UNL     1      28.810  22.897  25.320  0.00  0.00    +0.000 C 
ATOM     17  C   UNL     1      30.340  22.240  25.305  0.00  0.00    +0.000 C 
ATOM     18  C   UNL     1      30.435  22.046  26.938  0.00  0.00    +0.000 C 
ATOM     19  C   UNL     1      29.744  23.213  27.328  0.00  0.00    +0.000 C 
ATOM     20  C   UNL     1      30.244  24.474  26.453  0.00  0.00    +0.000 C 
ATOM     21  C   UNL     1      31.212  23.624  25.429  0.00  0.00    +0.000 C 
ENDBRANCH  14  15
ENDBRANCH  12  14
ENDBRANCH   1  12
TORSDOF 5
ENDMDL
MODEL 7
REMARK VINA RESULT:      -5.3      4.047      5.813
REMARK  Name = 
REMARK  5 active torsions:
REMARK  status: ('A' for Active; 'I' for Inactive)
REMARK    1  A    between atoms: N_2  and  C_4
REMARK    2  A    between atoms: C_9  and  N_10
REMARK    3  A    between atoms: N_10  and  C_11
REMARK    4  A    between atoms: C_11  and  N_13
REMARK    5  A    between atoms: N_13  and  C_14
REMARK                            x       y       z     vdW  Elec       q    Type
REMARK                         _______ _______ _______ _____ _____    ______ ____
ROOT
ATOM      1  N   UNL     1      25.458  24.425  25.492  0.00  0.00    +0.000 NA
ENDROOT
BRANCH   1   7
ATOM      2  C   UNL     1      26.479  23.141  28.803  0.00  0.00    +0.000 A 
ATOM      3  C   UNL     1      27.589  22.382  28.441  0.00  0.00    +0.000 A 
ATOM      4  C   UNL     1      27.976  22.311  27.117  0.00  0.00    +0.000 A 
ATOM      5  C   UNL     1      27.292  22.969  26.157  0.00  0.00    +0.000 A 
ATOM      6  F   UNL     1      27.645  22.919  24.860  0.00  0.00    +0.000 F 
ATOM      7  C   UNL     1      26.172  23.741  26.481  0.00  0.00    +0.000 A 
ATOM      8  C   UNL     1      25.819  23.790  27.790  0.00  0.00    +0.000 A 
BRANCH   2  10
ATOM      9  O   UNL     1      26.069  22.183  30.849  0.00  0.00    +0.000 OA
ATOM     10  N   UNL     1      26.072  23.221  30.162  0.00  0.00    +0.000 N 
ATOM     11  O   UNL     1      25.690  24.415  30.712  0.00  0.00    +0.000 OA
ENDBRANCH   2  10
ENDBRANCH   1   7
BRANCH   1  12
ATOM     12  C   UNL     1      25.755  25.824  25.214  0.00  0.00    +0.000 C 
ATOM     13  S   UNL     1      24.606  26.874  25.741  0.00  0.00    +0.000 S 
BRANCH  12  14
ATOM     14  N   UNL     1      26.912  26.093  24.569  0.00  0.00    +0.000 NA
BRANCH  14  15
ATOM     15  C   UNL     1      27.443  26.653  23.378  0.00  0.00    +0.000 C 
ATOM     16  C   UNL     1      27.265  25.492  22.306  0.00  0.00    +0.000 C 
ATOM     17  C   UNL     1      28.430  25.911  21.193  0.00  0.00    +0.000 C 
ATOM     18  C   UNL     1      29.541  24.817  21.721  0.00  0.00    +0.000 C 
ATOM     19  C   UNL     1      29.266  24.888  23.104  0.00  0.00    +0.000 C 
ATOM     20  C   UNL     1      29.103  26.428  23.559  0.00  0.00    +0.000 C 
ATOM     21  C   UNL     1      29.191  27.083  22.052  0.00  0.00    +0.000 C 
ENDBRANCH  14  15
ENDBRANCH  12  14
ENDBRANCH   1  12
TORSDOF 5
ENDMDL
MODEL 8
REMARK VINA RESULT:      -5.2      4.437      5.617
REMARK  Name = 
REMARK  5 active torsions:
REMARK  status: ('A' for Active; 'I' for Inactive)
REMARK    1  A    between atoms: N_2  and  C_4
REMARK    2  A    between atoms: C_9  and  N_10
REMARK    3  A    between atoms: N_10  and  C_11
REMARK    4  A    between atoms: C_11  and  N_13
REMARK    5  A    between atoms: N_13  and  C_14
REMARK                            x       y       z     vdW  Elec       q    Type
REMARK                         _______ _______ _______ _____ _____    ______ ____
ROOT
ATOM      1  N   UNL     1      27.612  22.358  28.464  0.00  0.00    +0.000 NA
ENDROOT
BRANCH   1   7
ATOM      2  C   UNL     1      25.221  25.066  29.240  0.00  0.00    +0.000 A 
ATOM      3  C   UNL     1      24.760  25.362  27.960  0.00  0.00    +0.000 A 
ATOM      4  C   UNL     1      25.245  24.664  26.872  0.00  0.00    +0.000 A 
ATOM      5  C   UNL     1      26.168  23.690  27.026  0.00  0.00    +0.000 A 
ATOM      6  F   UNL     1      26.659  22.993  25.986  0.00  0.00    +0.000 F 
ATOM      7  C   UNL     1      26.656  23.364  28.296  0.00  0.00    +0.000 A 
ATOM      8  C   UNL     1      26.159  24.069  29.343  0.00  0.00    +0.000 A 
BRANCH   2  10
ATOM      9  O   UNL     1      23.939  26.722  30.182  0.00  0.00    +0.000 OA
ATOM     10  N   UNL     1      24.729  25.778  30.367  0.00  0.00    +0.000 N 
ATOM     11  O   UNL     1      25.111  25.436  31.636  0.00  0.00    +0.000 OA
ENDBRANCH   2  10
ENDBRANCH   1   7
BRANCH   1  12
ATOM     12  C   UNL     1      29.031  22.681  28.397  0.00  0.00    +0.000 C 
ATOM     13  S   UNL     1      29.721  22.986  29.856  0.00  0.00    +0.000 S 
BRANCH  12  14
ATOM     14  N   UNL     1      29.604  22.692  27.173  0.00  0.00    +0.000 NA
BRANCH  14  15
ATOM     15  C   UNL     1      30.576  23.359  26.382  0.00  0.00    +0.000 C 
ATOM     16  C   UNL     1      29.763  24.553  25.717  0.00  0.00    +0.000 C 
ATOM     17  C   UNL     1      30.703  24.864  24.378  0.00  0.00    +0.000 C 
ATOM     18  C   UNL     1      29.738  24.045  23.325  0.00  0.00    +0.000 C 
ATOM     19  C   UNL     1      29.352  22.985  24.174  0.00  0.00    +0.000 C 
ATOM     20  C   UNL     1      30.633  22.425  24.981  0.00  0.00    +0.000 C 
ATOM     21  C   UNL     1      31.700  23.564  24.460  0.00  0.00    +0.000 C 
ENDBRANCH  14  15
ENDBRANCH  12  14
ENDBRANCH   1  12
TORSDOF 5
ENDMDL
MODEL 9
REMARK VINA RESULT:      -5.2      3.422      4.283
REMARK  Name = 
REMARK  5 active torsions:
REMARK  status: ('A' for Active; 'I' for Inactive)
REMARK    1  A    between atoms: N_2  and  C_4
REMARK    2  A    between atoms: C_9  and  N_10
REMARK    3  A    between atoms: N_10  and  C_11
REMARK    4  A    between atoms: C_11  and  N_13
REMARK    5  A    between atoms: N_13  and  C_14
REMARK                            x       y       z     vdW  Elec       q    Type
REMARK                         _______ _______ _______ _____ _____    ______ ____
ROOT
ATOM      1  N   UNL     1      29.473  25.068  25.864  0.00  0.00    +0.000 NA
ENDROOT
BRANCH   1   7
ATOM      2  C   UNL     1      27.185  23.690  23.312  0.00  0.00    +0.000 A 
ATOM      3  C   UNL     1      27.998  23.766  22.184  0.00  0.00    +0.000 A 
ATOM      4  C   UNL     1      29.280  24.268  22.290  0.00  0.00    +0.000 A 
ATOM      5  C   UNL     1      29.765  24.692  23.477  0.00  0.00    +0.000 A 
ATOM      6  F   UNL     1      31.009  25.185  23.611  0.00  0.00    +0.000 F 
ATOM      7  C   UNL     1      28.978  24.631  24.632  0.00  0.00    +0.000 A 
ATOM      8  C   UNL     1      27.725  24.133  24.493  0.00  0.00    +0.000 A 
BRANCH   2  10
ATOM      9  O   UNL     1      25.435  22.829  22.098  0.00  0.00    +0.000 OA
ATOM     10  N   UNL     1      25.863  23.175  23.215  0.00  0.00    +0.000 N 
ATOM     11  O   UNL     1      25.072  23.057  24.325  0.00  0.00    +0.000 OA
ENDBRANCH   2  10
ENDBRANCH   1   7
BRANCH   1  12
ATOM     12  C   UNL     1      29.592  24.134  26.975  0.00  0.00    +0.000 C 
ATOM     13  S   UNL     1      30.325  22.715  26.588  0.00  0.00    +0.000 S 
BRANCH  12  14
ATOM     14  N   UNL     1      29.098  24.530  28.170  0.00  0.00    +0.000 NA
BRANCH  14  15
ATOM     15  C   UNL     1      27.890  24.726  28.889  0.00  0.00    +0.000 C 
ATOM     16  C   UNL     1      28.134  23.944  30.252  0.00  0.00    +0.000 C 
ATOM     17  C   UNL     1      26.566  23.651  30.729  0.00  0.00    +0.000 C 
ATOM     18  C   UNL     1      26.541  22.089  30.208  0.00  0.00    +0.000 C 
ATOM     19  C   UNL     1      27.325  22.243  29.044  0.00  0.00    +0.000 C 
ATOM     20  C   UNL     1      26.864  23.561  28.235  0.00  0.00    +0.000 C 
ATOM     21  C   UNL     1      25.792  24.110  29.357  0.00  0.00    +0.000 C 
ENDBRANCH  14  15
ENDBRANCH  12  14
ENDBRANCH   1  12
TORSDOF 5
ENDMDL
MODEL 10
REMARK VINA RESULT:      -5.2      3.458      4.416
REMARK  Name = 
REMARK  5 active torsions:
REMARK  status: ('A' for Active; 'I' for Inactive)
REMARK    1  A    between atoms: N_2  and  C_4
REMARK    2  A    between atoms: C_9  and  N_10
REMARK    3  A    between atoms: N_10  and  C_11
REMARK    4  A    between atoms: C_11  and  N_13
REMARK    5  A    between atoms: N_13  and  C_14
REMARK                            x       y       z     vdW  Elec       q    Type
REMARK                         _______ _______ _______ _____ _____    ______ ____
ROOT
ATOM      1  N   UNL     1      28.377  22.195  27.723  0.00  0.00    +0.000 NA
ENDROOT
BRANCH   1   7
ATOM      2  C   UNL     1      27.654  23.143  24.226  0.00  0.00    +0.000 A 
ATOM      3  C   UNL     1      28.929  23.044  23.675  0.00  0.00    +0.000 A 
ATOM      4  C   UNL     1      29.996  22.667  24.466  0.00  0.00    +0.000 A 
ATOM      5  C   UNL     1      29.826  22.391  25.777  0.00  0.00    +0.000 A 
ATOM      6  F   UNL     1      30.846  22.021  26.572  0.00  0.00    +0.000 F 
ATOM      7  C   UNL     1      28.561  22.479  26.366  0.00  0.00    +0.000 A 
ATOM      8  C   UNL     1      27.535  22.851  25.562  0.00  0.00    +0.000 A 
BRANCH   2  10
ATOM      9  O   UNL     1      26.613  23.358  22.190  0.00  0.00    +0.000 OA
ATOM     10  N   UNL     1      26.548  23.530  23.421  0.00  0.00    +0.000 N 
ATOM     11  O   UNL     1      25.428  24.081  23.984  0.00  0.00    +0.000 OA
ENDBRANCH   2  10
ENDBRANCH   1   7
BRANCH   1  12
ATOM     12  C   UNL     1      28.852  23.128  28.735  0.00  0.00    +0.000 C 
ATOM     13  S   UNL     1      28.085  24.582  28.724  0.00  0.00    +0.000 S 
BRANCH  12  14
ATOM     14  N   UNL     1      29.846  22.705  29.548  0.00  0.00    +0.000 NA
BRANCH  14  15
ATOM     15  C   UNL     1      30.938  23.156  30.334  0.00  0.00    +0.000 C 
ATOM     16  C   UNL     1      32.013  23.613  29.256  0.00  0.00    +0.000 C 
ATOM     17  C   UNL     1      33.416  23.498  30.144  0.00  0.00    +0.000 C 
ATOM     18  C   UNL     1      33.873  22.046  29.515  0.00  0.00    +0.000 C 
ATOM     19  C   UNL     1      32.595  21.457  29.398  0.00  0.00    +0.000 C 
ATOM     20  C   UNL     1      31.734  21.727  30.736  0.00  0.00    +0.000 C 
ATOM     21  C   UNL     1      32.819  22.727  31.463  0.00  0.00    +0.000 C 
ENDBRANCH  14  15
ENDBRANCH  12  14
ENDBRANCH   1  12
TORSDOF 5
ENDMDL
