MODEL 1
REMARK VINA RESULT:      -8.7      0.000      0.000
REMARK  Name = 
REMARK  5 active torsions:
REMARK  status: ('A' for Active; 'I' for Inactive)
REMARK    1  A    between atoms: O_2  and  C_3
REMARK    2  A    between atoms: C_7  and  C_8
REMARK    3  A    between atoms: C_10  and  N_11
REMARK    4  A    between atoms: C_14  and  C_15
REMARK    5  A    between atoms: C_15  and  C_16
REMARK                            x       y       z     vdW  Elec       q    Type
REMARK                         _______ _______ _______ _____ _____    ______ ____
ROOT
ATOM      1  C   UNL     1      38.595  -0.794  14.749  0.00  0.00    +0.000 A 
ATOM      2  N   UNL     1      38.366   0.507  14.969  0.00  0.00    +0.000 NA
ATOM      3  C   UNL     1      37.286   0.982  15.615  0.00  0.00    +0.000 A 
ATOM      4  C   UNL     1      36.371   0.050  16.070  0.00  0.00    +0.000 A 
ATOM      5  C   UNL     1      35.246   0.468  16.738  0.00  0.00    +0.000 A 
ATOM      6  C   UNL     1      34.358  -0.468  17.177  0.00  0.00    +0.000 A 
ATOM      7  C   UNL     1      34.521  -1.826  16.992  0.00  0.00    +0.000 A 
ATOM      8  C   UNL     1      35.650  -2.247  16.321  0.00  0.00    +0.000 A 
ATOM      9  C   UNL     1      36.565  -1.308  15.866  0.00  0.00    +0.000 A 
ATOM     10  N   UNL     1      37.678  -1.663  15.209  0.00  0.00    +0.000 NA
ENDROOT
BRANCH   1  15
ATOM     11  C   UNL     1      40.946  -1.809  11.988  0.00  0.00    +0.000 A 
ATOM     12  C   UNL     1      42.069  -2.196  12.691  0.00  0.00    +0.000 A 
ATOM     13  C   UNL     1      42.049  -2.122  14.075  0.00  0.00    +0.000 A 
ATOM     14  C   UNL     1      40.907  -1.661  14.739  0.00  0.00    +0.000 A 
ATOM     15  C   UNL     1      39.784  -1.274  14.041  0.00  0.00    +0.000 A 
ATOM     16  C   UNL     1      39.825  -1.356  12.666  0.00  0.00    +0.000 A 
ATOM     17  O   UNL     1      38.700  -0.968  11.953  0.00  0.00    +0.000 OA
BRANCH  11  19
ATOM     18  C   UNL     1      40.552  -3.028   9.894  0.00  0.00    +0.000 C 
ATOM     19  O   UNL     1      40.904  -1.860  10.591  0.00  0.00    +0.000 OA
ENDBRANCH  11  19
ENDBRANCH   1  15
BRANCH   3  20
ATOM     20  N   UNL     1      37.056   2.358  15.841  0.00  0.00    +0.000 N 
ATOM     21  C   UNL     1      36.965   2.861  17.170  0.00  0.00    +0.000 C 
ATOM     22  C   UNL     1      37.668   4.150  17.412  0.00  0.00    +0.000 C 
ATOM     23  C   UNL     1      38.298   4.686  16.171  0.00  0.00    +0.000 C 
ATOM     24  C   UNL     1      37.288   4.658  15.041  0.00  0.00    +0.000 C 
ATOM     25  C   UNL     1      36.917   3.236  14.709  0.00  0.00    +0.000 C 
BRANCH  23  26
ATOM     26  C   UNL     1      38.748   6.120  16.326  0.00  0.00    +0.000 C 
BRANCH  26  27
ATOM     27  C   UNL     1      39.422   6.349  17.627  0.00  0.00    +0.000 A 
ATOM     28  C   UNL     1      40.787   6.172  17.691  0.00  0.00    +0.000 A 
ATOM     29  C   UNL     1      41.501   6.355  18.832  0.00  0.00    +0.000 A 
ATOM     30  C   UNL     1      40.853   6.733  19.978  0.00  0.00    +0.000 A 
ATOM     31  C   UNL     1      39.488   6.919  19.948  0.00  0.00    +0.000 A 
ATOM     32  C   UNL     1      38.780   6.728  18.782  0.00  0.00    +0.000 A 
ENDBRANCH  26  27
ENDBRANCH  23  26
ENDBRANCH   3  20
TORSDOF 5
ENDMDL
MODEL 2
REMARK VINA RESULT:      -8.6      3.692      8.249
REMARK  Name = 
REMARK  5 active torsions:
REMARK  status: ('A' for Active; 'I' for Inactive)
REMARK    1  A    between atoms: O_2  and  C_3
REMARK    2  A    between atoms: C_7  and  C_8
REMARK    3  A    between atoms: C_10  and  N_11
REMARK    4  A    between atoms: C_14  and  C_15
REMARK    5  A    between atoms: C_15  and  C_16
REMARK                            x       y       z     vdW  Elec       q    Type
REMARK                         _______ _______ _______ _____ _____    ______ ____
ROOT
ATOM      1  C   UNL     1      38.456   6.165  16.528  0.00  0.00    +0.000 A 
ATOM      2  N   UNL     1      37.974   4.975  16.149  0.00  0.00    +0.000 NA
ATOM      3  C   UNL     1      37.050   4.811  15.185  0.00  0.00    +0.000 A 
ATOM      4  C   UNL     1      36.586   5.956  14.565  0.00  0.00    +0.000 A 
ATOM      5  C   UNL     1      35.642   5.859  13.572  0.00  0.00    +0.000 A 
ATOM      6  C   UNL     1      35.198   7.000  12.974  0.00  0.00    +0.000 A 
ATOM      7  C   UNL     1      35.645   8.263  13.307  0.00  0.00    +0.000 A 
ATOM      8  C   UNL     1      36.592   8.362  14.303  0.00  0.00    +0.000 A 
ATOM      9  C   UNL     1      37.056   7.210  14.923  0.00  0.00    +0.000 A 
ATOM     10  N   UNL     1      37.975   7.250  15.897  0.00  0.00    +0.000 NA
ENDROOT
BRANCH   1  15
ATOM     11  C   UNL     1      41.768   6.505  18.289  0.00  0.00    +0.000 A 
ATOM     12  C   UNL     1      41.387   6.573  19.614  0.00  0.00    +0.000 A 
ATOM     13  C   UNL     1      40.038   6.506  19.925  0.00  0.00    +0.000 A 
ATOM     14  C   UNL     1      39.087   6.372  18.907  0.00  0.00    +0.000 A 
ATOM     15  C   UNL     1      39.463   6.304  17.583  0.00  0.00    +0.000 A 
ATOM     16  C   UNL     1      40.809   6.373  17.297  0.00  0.00    +0.000 A 
ATOM     17  O   UNL     1      41.200   6.306  15.968  0.00  0.00    +0.000 OA
BRANCH  11  19
ATOM     18  C   UNL     1      44.134   6.881  18.824  0.00  0.00    +0.000 C 
ATOM     19  O   UNL     1      43.114   6.568  17.911  0.00  0.00    +0.000 OA
ENDBRANCH  11  19
ENDBRANCH   1  15
BRANCH   3  20
ATOM     20  N   UNL     1      36.549   3.549  14.794  0.00  0.00    +0.000 N 
ATOM     21  C   UNL     1      37.264   2.755  13.851  0.00  0.00    +0.000 C 
ATOM     22  C   UNL     1      37.342   1.304  14.173  0.00  0.00    +0.000 C 
ATOM     23  C   UNL     1      36.597   0.964  15.419  0.00  0.00    +0.000 C 
ATOM     24  C   UNL     1      35.213   1.580  15.362  0.00  0.00    +0.000 C 
ATOM     25  C   UNL     1      35.311   3.084  15.361  0.00  0.00    +0.000 C 
BRANCH  23  26
ATOM     26  C   UNL     1      36.411  -0.525  15.593  0.00  0.00    +0.000 C 
BRANCH  26  27
ATOM     27  C   UNL     1      36.820  -0.977  16.945  0.00  0.00    +0.000 A 
ATOM     28  C   UNL     1      36.058  -0.577  18.021  0.00  0.00    +0.000 A 
ATOM     29  C   UNL     1      36.343  -0.934  19.300  0.00  0.00    +0.000 A 
ATOM     30  C   UNL     1      37.432  -1.726  19.550  0.00  0.00    +0.000 A 
ATOM     31  C   UNL     1      38.215  -2.144  18.496  0.00  0.00    +0.000 A 
ATOM     32  C   UNL     1      37.911  -1.772  17.205  0.00  0.00    +0.000 A 
ENDBRANCH  26  27
ENDBRANCH  23  26
ENDBRANCH   3  20
TORSDOF 5
ENDMDL
MODEL 3
REMARK VINA RESULT:      -8.4      3.261      7.989
REMARK  Name = 
REMARK  5 active torsions:
REMARK  status: ('A' for Active; 'I' for Inactive)
REMARK    1  A    between atoms: O_2  and  C_3
REMARK    2  A    between atoms: C_7  and  C_8
REMARK    3  A    between atoms: C_10  and  N_11
REMARK    4  A    between atoms: C_14  and  C_15
REMARK    5  A    between atoms: C_15  and  C_16
REMARK                            x       y       z     vdW  Elec       q    Type
REMARK                         _______ _______ _______ _____ _____    ______ ____
ROOT
ATOM      1  C   UNL     1      36.966   0.643  16.173  0.00  0.00    +0.000 A 
ATOM      2  N   UNL     1      37.705  -0.136  15.375  0.00  0.00    +0.000 NA
ATOM      3  C   UNL     1      38.278  -1.288  15.768  0.00  0.00    +0.000 A 
ATOM      4  C   UNL     1      38.076  -1.667  17.082  0.00  0.00    +0.000 A 
ATOM      5  C   UNL     1      38.633  -2.833  17.549  0.00  0.00    +0.000 A 
ATOM      6  C   UNL     1      38.422  -3.188  18.847  0.00  0.00    +0.000 A 
ATOM      7  C   UNL     1      37.673  -2.441  19.733  0.00  0.00    +0.000 A 
ATOM      8  C   UNL     1      37.114  -1.271  19.267  0.00  0.00    +0.000 A 
ATOM      9  C   UNL     1      37.319  -0.893  17.947  0.00  0.00    +0.000 A 
ATOM     10  N   UNL     1      36.798   0.234  17.443  0.00  0.00    +0.000 NA
ENDROOT
BRANCH   1  15
ATOM     11  C   UNL     1      36.542   4.209  15.036  0.00  0.00    +0.000 A 
ATOM     12  C   UNL     1      35.181   4.284  14.818  0.00  0.00    +0.000 A 
ATOM     13  C   UNL     1      34.405   3.158  15.047  0.00  0.00    +0.000 A 
ATOM     14  C   UNL     1      34.999   1.972  15.490  0.00  0.00    +0.000 A 
ATOM     15  C   UNL     1      36.358   1.892  15.709  0.00  0.00    +0.000 A 
ATOM     16  C   UNL     1      37.110   3.023  15.476  0.00  0.00    +0.000 A 
ATOM     17  O   UNL     1      38.478   2.955  15.692  0.00  0.00    +0.000 OA
BRANCH  11  19
ATOM     18  C   UNL     1      36.875   6.603  14.608  0.00  0.00    +0.000 C 
ATOM     19  O   UNL     1      37.378   5.309  14.823  0.00  0.00    +0.000 OA
ENDBRANCH  11  19
ENDBRANCH   1  15
BRANCH   3  20
ATOM     20  N   UNL     1      39.056  -2.102  14.914  0.00  0.00    +0.000 N 
ATOM     21  C   UNL     1      38.423  -2.980  13.989  0.00  0.00    +0.000 C 
ATOM     22  C   UNL     1      39.034  -3.021  12.632  0.00  0.00    +0.000 C 
ATOM     23  C   UNL     1      40.240  -2.149  12.533  0.00  0.00    +0.000 C 
ATOM     24  C   UNL     1      41.159  -2.427  13.707  0.00  0.00    +0.000 C 
ATOM     25  C   UNL     1      40.491  -2.027  14.997  0.00  0.00    +0.000 C 
BRANCH  23  26
ATOM     26  C   UNL     1      41.038  -2.408  11.277  0.00  0.00    +0.000 C 
BRANCH  26  27
ATOM     27  C   UNL     1      40.582  -1.559  10.149  0.00  0.00    +0.000 A 
ATOM     28  C   UNL     1      40.030  -0.332  10.444  0.00  0.00    +0.000 A 
ATOM     29  C   UNL     1      39.580   0.522   9.488  0.00  0.00    +0.000 A 
ATOM     30  C   UNL     1      39.673   0.165   8.169  0.00  0.00    +0.000 A 
ATOM     31  C   UNL     1      40.220  -1.056   7.841  0.00  0.00    +0.000 A 
ATOM     32  C   UNL     1      40.671  -1.909   8.823  0.00  0.00    +0.000 A 
ENDBRANCH  26  27
ENDBRANCH  23  26
ENDBRANCH   3  20
TORSDOF 5
ENDMDL
MODEL 4
REMARK VINA RESULT:      -8.4      3.032      8.342
REMARK  Name = 
REMARK  5 active torsions:
REMARK  status: ('A' for Active; 'I' for Inactive)
REMARK    1  A    between atoms: O_2  and  C_3
REMARK    2  A    between atoms: C_7  and  C_8
REMARK    3  A    between atoms: C_10  and  N_11
REMARK    4  A    between atoms: C_14  and  C_15
REMARK    5  A    between atoms: C_15  and  C_16
REMARK                            x       y       z     vdW  Elec       q    Type
REMARK                         _______ _______ _______ _____ _____    ______ ____
ROOT
ATOM      1  C   UNL     1      38.307   5.858  16.380  0.00  0.00    +0.000 A 
ATOM      2  N   UNL     1      37.812   4.648  16.092  0.00  0.00    +0.000 NA
ATOM      3  C   UNL     1      36.846   4.428  15.182  0.00  0.00    +0.000 A 
ATOM      4  C   UNL     1      36.351   5.536  14.518  0.00  0.00    +0.000 A 
ATOM      5  C   UNL     1      35.364   5.382  13.575  0.00  0.00    +0.000 A 
ATOM      6  C   UNL     1      34.891   6.486  12.933  0.00  0.00    +0.000 A 
ATOM      7  C   UNL     1      35.349   7.766  13.171  0.00  0.00    +0.000 A 
ATOM      8  C   UNL     1      36.340   7.923  14.117  0.00  0.00    +0.000 A 
ATOM      9  C   UNL     1      36.833   6.808  14.782  0.00  0.00    +0.000 A 
ATOM     10  N   UNL     1      37.796   6.905  15.709  0.00  0.00    +0.000 NA
ENDROOT
BRANCH   1  15
ATOM     11  C   UNL     1      41.684   6.398  17.959  0.00  0.00    +0.000 A 
ATOM     12  C   UNL     1      41.372   6.443  19.302  0.00  0.00    +0.000 A 
ATOM     13  C   UNL     1      40.048   6.294  19.686  0.00  0.00    +0.000 A 
ATOM     14  C   UNL     1      39.053   6.103  18.721  0.00  0.00    +0.000 A 
ATOM     15  C   UNL     1      39.360   6.058  17.379  0.00  0.00    +0.000 A 
ATOM     16  C   UNL     1      40.682   6.208  17.020  0.00  0.00    +0.000 A 
ATOM     17  O   UNL     1      41.003   6.165  15.671  0.00  0.00    +0.000 OA
BRANCH  11  19
ATOM     18  C   UNL     1      44.034   6.992  18.346  0.00  0.00    +0.000 C 
ATOM     19  O   UNL     1      43.000   6.542  17.508  0.00  0.00    +0.000 OA
ENDBRANCH  11  19
ENDBRANCH   1  15
BRANCH   3  20
ATOM     20  N   UNL     1      36.331   3.146  14.887  0.00  0.00    +0.000 N 
ATOM     21  C   UNL     1      36.701   2.485  13.680  0.00  0.00    +0.000 C 
ATOM     22  C   UNL     1      37.001   1.034  13.817  0.00  0.00    +0.000 C 
ATOM     23  C   UNL     1      36.801   0.548  15.213  0.00  0.00    +0.000 C 
ATOM     24  C   UNL     1      35.453   1.020  15.721  0.00  0.00    +0.000 C 
ATOM     25  C   UNL     1      35.431   2.523  15.822  0.00  0.00    +0.000 C 
BRANCH  23  26
ATOM     26  C   UNL     1      36.805  -0.959  15.306  0.00  0.00    +0.000 C 
BRANCH  26  27
ATOM     27  C   UNL     1      38.088  -1.537  14.835  0.00  0.00    +0.000 A 
ATOM     28  C   UNL     1      38.081  -2.261  13.663  0.00  0.00    +0.000 A 
ATOM     29  C   UNL     1      39.199  -2.833  13.144  0.00  0.00    +0.000 A 
ATOM     30  C   UNL     1      40.392  -2.693  13.800  0.00  0.00    +0.000 A 
ATOM     31  C   UNL     1      40.433  -1.975  14.975  0.00  0.00    +0.000 A 
ATOM     32  C   UNL     1      39.290  -1.402  15.487  0.00  0.00    +0.000 A 
ENDBRANCH  26  27
ENDBRANCH  23  26
ENDBRANCH   3  20
TORSDOF 5
ENDMDL
MODEL 5
REMARK VINA RESULT:      -8.3      2.679      7.369
REMARK  Name = 
REMARK  5 active torsions:
REMARK  status: ('A' for Active; 'I' for Inactive)
REMARK    1  A    between atoms: O_2  and  C_3
REMARK    2  A    between atoms: C_7  and  C_8
REMARK    3  A    between atoms: C_10  and  N_11
REMARK    4  A    between atoms: C_14  and  C_15
REMARK    5  A    between atoms: C_15  and  C_16
REMARK                            x       y       z     vdW  Elec       q    Type
REMARK                         _______ _______ _______ _____ _____    ______ ____
ROOT
ATOM      1  C   UNL     1      37.242   2.110  15.933  0.00  0.00    +0.000 A 
ATOM      2  N   UNL     1      38.007   1.178  15.353  0.00  0.00    +0.000 NA
ATOM      3  C   UNL     1      37.713  -0.134  15.335  0.00  0.00    +0.000 A 
ATOM      4  C   UNL     1      36.542  -0.519  15.963  0.00  0.00    +0.000 A 
ATOM      5  C   UNL     1      36.182  -1.844  15.982  0.00  0.00    +0.000 A 
ATOM      6  C   UNL     1      35.024  -2.200  16.606  0.00  0.00    +0.000 A 
ATOM      7  C   UNL     1      34.180  -1.302  17.226  0.00  0.00    +0.000 A 
ATOM      8  C   UNL     1      34.540   0.028  17.209  0.00  0.00    +0.000 A 
ATOM      9  C   UNL     1      35.717   0.410  16.577  0.00  0.00    +0.000 A 
ATOM     10  N   UNL     1      36.113   1.689  16.531  0.00  0.00    +0.000 NA
ENDROOT
BRANCH   1  15
ATOM     11  C   UNL     1      38.228   5.551  17.103  0.00  0.00    +0.000 A 
ATOM     12  C   UNL     1      38.275   6.258  15.918  0.00  0.00    +0.000 A 
ATOM     13  C   UNL     1      37.980   5.598  14.735  0.00  0.00    +0.000 A 
ATOM     14  C   UNL     1      37.643   4.240  14.751  0.00  0.00    +0.000 A 
ATOM     15  C   UNL     1      37.596   3.531  15.932  0.00  0.00    +0.000 A 
ATOM     16  C   UNL     1      37.892   4.207  17.096  0.00  0.00    +0.000 A 
ATOM     17  O   UNL     1      37.848   3.503  18.290  0.00  0.00    +0.000 OA
BRANCH  11  19
ATOM     18  C   UNL     1      39.807   6.160  18.881  0.00  0.00    +0.000 C 
ATOM     19  O   UNL     1      38.515   6.160  18.329  0.00  0.00    +0.000 OA
ENDBRANCH  11  19
ENDBRANCH   1  15
BRANCH   3  20
ATOM     20  N   UNL     1      38.531  -1.108  14.719  0.00  0.00    +0.000 N 
ATOM     21  C   UNL     1      38.504  -1.275  13.305  0.00  0.00    +0.000 C 
ATOM     22  C   UNL     1      39.833  -1.464  12.662  0.00  0.00    +0.000 C 
ATOM     23  C   UNL     1      40.941  -1.487  13.660  0.00  0.00    +0.000 C 
ATOM     24  C   UNL     1      40.584  -2.437  14.786  0.00  0.00    +0.000 C 
ATOM     25  C   UNL     1      39.386  -1.923  15.542  0.00  0.00    +0.000 C 
BRANCH  23  26
ATOM     26  C   UNL     1      42.242  -1.975  13.067  0.00  0.00    +0.000 C 
BRANCH  26  27
ATOM     27  C   UNL     1      43.406  -1.589  13.901  0.00  0.00    +0.000 A 
ATOM     28  C   UNL     1      44.459  -2.474  13.993  0.00  0.00    +0.000 A 
ATOM     29  C   UNL     1      45.572  -2.220  14.728  0.00  0.00    +0.000 A 
ATOM     30  C   UNL     1      45.671  -1.039  15.414  0.00  0.00    +0.000 A 
ATOM     31  C   UNL     1      44.635  -0.132  15.343  0.00  0.00    +0.000 A 
ATOM     32  C   UNL     1      43.514  -0.406  14.592  0.00  0.00    +0.000 A 
ENDBRANCH  26  27
ENDBRANCH  23  26
ENDBRANCH   3  20
TORSDOF 5
ENDMDL
MODEL 6
REMARK VINA RESULT:      -8.2      3.526      7.483
REMARK  Name = 
REMARK  5 active torsions:
REMARK  status: ('A' for Active; 'I' for Inactive)
REMARK    1  A    between atoms: O_2  and  C_3
REMARK    2  A    between atoms: C_7  and  C_8
REMARK    3  A    between atoms: C_10  and  N_11
REMARK    4  A    between atoms: C_14  and  C_15
REMARK    5  A    between atoms: C_15  and  C_16
REMARK                            x       y       z     vdW  Elec       q    Type
REMARK                         _______ _______ _______ _____ _____    ______ ____
ROOT
ATOM      1  C   UNL     1      36.800   2.597  16.257  0.00  0.00    +0.000 A 
ATOM      2  N   UNL     1      36.652   3.337  15.152  0.00  0.00    +0.000 NA
ATOM      3  C   UNL     1      37.134   4.584  15.011  0.00  0.00    +0.000 A 
ATOM      4  C   UNL     1      37.821   5.112  16.089  0.00  0.00    +0.000 A 
ATOM      5  C   UNL     1      38.341   6.382  16.012  0.00  0.00    +0.000 A 
ATOM      6  C   UNL     1      39.013   6.882  17.086  0.00  0.00    +0.000 A 
ATOM      7  C   UNL     1      39.210   6.184  18.260  0.00  0.00    +0.000 A 
ATOM      8  C   UNL     1      38.690   4.910  18.339  0.00  0.00    +0.000 A 
ATOM      9  C   UNL     1      38.001   4.384  17.255  0.00  0.00    +0.000 A 
ATOM     10  N   UNL     1      37.475   3.151  17.279  0.00  0.00    +0.000 NA
ENDROOT
BRANCH   1  15
ATOM     11  C   UNL     1      36.458  -1.148  16.040  0.00  0.00    +0.000 A 
ATOM     12  C   UNL     1      35.214  -1.358  16.601  0.00  0.00    +0.000 A 
ATOM     13  C   UNL     1      34.490  -0.265  17.049  0.00  0.00    +0.000 A 
ATOM     14  C   UNL     1      35.018   1.026  16.931  0.00  0.00    +0.000 A 
ATOM     15  C   UNL     1      36.260   1.240  16.373  0.00  0.00    +0.000 A 
ATOM     16  C   UNL     1      36.962   0.139  15.933  0.00  0.00    +0.000 A 
ATOM     17  O   UNL     1      38.213   0.343  15.370  0.00  0.00    +0.000 OA
BRANCH  11  19
ATOM     18  C   UNL     1      37.044  -2.776  14.299  0.00  0.00    +0.000 C 
ATOM     19  O   UNL     1      37.238  -2.210  15.570  0.00  0.00    +0.000 OA
ENDBRANCH  11  19
ENDBRANCH   1  15
BRANCH   3  20
ATOM     20  N   UNL     1      36.971   5.356  13.838  0.00  0.00    +0.000 N 
ATOM     21  C   UNL     1      38.094   5.655  13.015  0.00  0.00    +0.000 C 
ATOM     22  C   UNL     1      37.857   5.538  11.551  0.00  0.00    +0.000 C 
ATOM     23  C   UNL     1      36.447   5.170  11.237  0.00  0.00    +0.000 C 
ATOM     24  C   UNL     1      35.507   6.071  12.013  0.00  0.00    +0.000 C 
ATOM     25  C   UNL     1      35.656   5.830  13.493  0.00  0.00    +0.000 C 
BRANCH  23  26
ATOM     26  C   UNL     1      36.116   5.342   9.774  0.00  0.00    +0.000 C 
BRANCH  26  27
ATOM     27  C   UNL     1      36.309   4.084   9.012  0.00  0.00    +0.000 A 
ATOM     28  C   UNL     1      35.873   4.043   7.706  0.00  0.00    +0.000 A 
ATOM     29  C   UNL     1      36.001   2.942   6.921  0.00  0.00    +0.000 A 
ATOM     30  C   UNL     1      36.588   1.816   7.433  0.00  0.00    +0.000 A 
ATOM     31  C   UNL     1      37.035   1.823   8.736  0.00  0.00    +0.000 A 
ATOM     32  C   UNL     1      36.896   2.949   9.518  0.00  0.00    +0.000 A 
ENDBRANCH  26  27
ENDBRANCH  23  26
ENDBRANCH   3  20
TORSDOF 5
ENDMDL
MODEL 7
REMARK VINA RESULT:      -8.2      2.738      5.435
REMARK  Name = 
REMARK  5 active torsions:
REMARK  status: ('A' for Active; 'I' for Inactive)
REMARK    1  A    between atoms: O_2  and  C_3
REMARK    2  A    between atoms: C_7  and  C_8
REMARK    3  A    between atoms: C_10  and  N_11
REMARK    4  A    between atoms: C_14  and  C_15
REMARK    5  A    between atoms: C_15  and  C_16
REMARK                            x       y       z     vdW  Elec       q    Type
REMARK                         _______ _______ _______ _____ _____    ______ ____
ROOT
ATOM      1  C   UNL     1      36.375   2.473  15.806  0.00  0.00    +0.000 A 
ATOM      2  N   UNL     1      37.419   3.008  16.451  0.00  0.00    +0.000 NA
ATOM      3  C   UNL     1      37.822   4.283  16.305  0.00  0.00    +0.000 A 
ATOM      4  C   UNL     1      37.096   5.068  15.428  0.00  0.00    +0.000 A 
ATOM      5  C   UNL     1      37.453   6.381  15.232  0.00  0.00    +0.000 A 
ATOM      6  C   UNL     1      36.725   7.137  14.364  0.00  0.00    +0.000 A 
ATOM      7  C   UNL     1      35.635   6.662  13.663  0.00  0.00    +0.000 A 
ATOM      8  C   UNL     1      35.275   5.346  13.858  0.00  0.00    +0.000 A 
ATOM      9  C   UNL     1      36.007   4.560  14.738  0.00  0.00    +0.000 A 
ATOM     10  N   UNL     1      35.700   3.275  14.964  0.00  0.00    +0.000 NA
ENDROOT
BRANCH   1  15
ATOM     11  C   UNL     1      36.098  -1.259  15.383  0.00  0.00    +0.000 A 
ATOM     12  C   UNL     1      35.177  -1.594  16.355  0.00  0.00    +0.000 A 
ATOM     13  C   UNL     1      34.648  -0.587  17.148  0.00  0.00    +0.000 A 
ATOM     14  C   UNL     1      35.047   0.741  16.960  0.00  0.00    +0.000 A 
ATOM     15  C   UNL     1      35.967   1.079  15.991  0.00  0.00    +0.000 A 
ATOM     16  C   UNL     1      36.479   0.063  15.214  0.00  0.00    +0.000 A 
ATOM     17  O   UNL     1      37.407   0.391  14.236  0.00  0.00    +0.000 OA
BRANCH  11  19
ATOM     18  C   UNL     1      37.675  -3.101  14.999  0.00  0.00    +0.000 C 
ATOM     19  O   UNL     1      36.669  -2.228  14.552  0.00  0.00    +0.000 OA
ENDBRANCH  11  19
ENDBRANCH   1  15
BRANCH   3  20
ATOM     20  N   UNL     1      38.926   4.835  16.991  0.00  0.00    +0.000 N 
ATOM     21  C   UNL     1      40.070   5.279  16.269  0.00  0.00    +0.000 C 
ATOM     22  C   UNL     1      40.648   6.572  16.725  0.00  0.00    +0.000 C 
ATOM     23  C   UNL     1      39.923   7.125  17.905  0.00  0.00    +0.000 C 
ATOM     24  C   UNL     1      39.760   6.040  18.950  0.00  0.00    +0.000 C 
ATOM     25  C   UNL     1      38.875   4.939  18.426  0.00  0.00    +0.000 C 
BRANCH  23  26
ATOM     26  C   UNL     1      40.670   8.262  18.561  0.00  0.00    +0.000 C 
BRANCH  26  27
ATOM     27  C   UNL     1      39.746   9.261  19.152  0.00  0.00    +0.000 A 
ATOM     28  C   UNL     1      39.009  10.049  18.296  0.00  0.00    +0.000 A 
ATOM     29  C   UNL     1      38.136  10.994  18.732  0.00  0.00    +0.000 A 
ATOM     30  C   UNL     1      37.966  11.183  20.078  0.00  0.00    +0.000 A 
ATOM     31  C   UNL     1      38.688  10.410  20.961  0.00  0.00    +0.000 A 
ATOM     32  C   UNL     1      39.569   9.457  20.501  0.00  0.00    +0.000 A 
ENDBRANCH  26  27
ENDBRANCH  23  26
ENDBRANCH   3  20
TORSDOF 5
ENDMDL
MODEL 8
REMARK VINA RESULT:      -8.1      4.154      6.983
REMARK  Name = 
REMARK  5 active torsions:
REMARK  status: ('A' for Active; 'I' for Inactive)
REMARK    1  A    between atoms: O_2  and  C_3
REMARK    2  A    between atoms: C_7  and  C_8
REMARK    3  A    between atoms: C_10  and  N_11
REMARK    4  A    between atoms: C_14  and  C_15
REMARK    5  A    between atoms: C_15  and  C_16
REMARK                            x       y       z     vdW  Elec       q    Type
REMARK                         _______ _______ _______ _____ _____    ______ ____
ROOT
ATOM      1  C   UNL     1      43.290  -2.614  12.753  0.00  0.00    +0.000 A 
ATOM      2  N   UNL     1      42.131  -3.040  13.269  0.00  0.00    +0.000 NA
ATOM      3  C   UNL     1      41.127  -2.224  13.638  0.00  0.00    +0.000 A 
ATOM      4  C   UNL     1      41.330  -0.868  13.465  0.00  0.00    +0.000 A 
ATOM      5  C   UNL     1      40.345   0.021  13.822  0.00  0.00    +0.000 A 
ATOM      6  C   UNL     1      40.566   1.353  13.642  0.00  0.00    +0.000 A 
ATOM      7  C   UNL     1      41.732   1.872  13.116  0.00  0.00    +0.000 A 
ATOM      8  C   UNL     1      42.722   0.982  12.758  0.00  0.00    +0.000 A 
ATOM      9  C   UNL     1      42.514  -0.379  12.934  0.00  0.00    +0.000 A 
ATOM     10  N   UNL     1      43.442  -1.287  12.603  0.00  0.00    +0.000 NA
ENDROOT
BRANCH   1  15
ATOM     11  C   UNL     1      46.474  -4.625  12.805  0.00  0.00    +0.000 A 
ATOM     12  C   UNL     1      46.411  -5.300  11.603  0.00  0.00    +0.000 A 
ATOM     13  C   UNL     1      45.318  -5.091  10.776  0.00  0.00    +0.000 A 
ATOM     14  C   UNL     1      44.302  -4.209  11.162  0.00  0.00    +0.000 A 
ATOM     15  C   UNL     1      44.361  -3.533  12.362  0.00  0.00    +0.000 A 
ATOM     16  C   UNL     1      45.457  -3.756  13.168  0.00  0.00    +0.000 A 
ATOM     17  O   UNL     1      45.527  -3.082  14.378  0.00  0.00    +0.000 OA
BRANCH  11  19
ATOM     18  C   UNL     1      48.886  -4.729  13.252  0.00  0.00    +0.000 C 
ATOM     19  O   UNL     1      47.550  -4.793  13.683  0.00  0.00    +0.000 OA
ENDBRANCH  11  19
ENDBRANCH   1  15
BRANCH   3  20
ATOM     20  N   UNL     1      39.908  -2.687  14.182  0.00  0.00    +0.000 N 
ATOM     21  C   UNL     1      39.776  -2.876  15.588  0.00  0.00    +0.000 C 
ATOM     22  C   UNL     1      38.493  -2.403  16.175  0.00  0.00    +0.000 C 
ATOM     23  C   UNL     1      37.567  -1.861  15.139  0.00  0.00    +0.000 C 
ATOM     24  C   UNL     1      37.474  -2.840  13.986  0.00  0.00    +0.000 C 
ATOM     25  C   UNL     1      38.808  -2.961  13.295  0.00  0.00    +0.000 C 
BRANCH  23  26
ATOM     26  C   UNL     1      36.165  -1.662  15.665  0.00  0.00    +0.000 C 
BRANCH  26  27
ATOM     27  C   UNL     1      35.804  -0.225  15.741  0.00  0.00    +0.000 A 
ATOM     28  C   UNL     1      36.206   0.600  14.714  0.00  0.00    +0.000 A 
ATOM     29  C   UNL     1      35.929   1.930  14.686  0.00  0.00    +0.000 A 
ATOM     30  C   UNL     1      35.218   2.490  15.714  0.00  0.00    +0.000 A 
ATOM     31  C   UNL     1      34.801   1.692  16.756  0.00  0.00    +0.000 A 
ATOM     32  C   UNL     1      35.091   0.346  16.769  0.00  0.00    +0.000 A 
ENDBRANCH  26  27
ENDBRANCH  23  26
ENDBRANCH   3  20
TORSDOF 5
ENDMDL
MODEL 9
REMARK VINA RESULT:      -8.1      3.819      6.483
REMARK  Name = 
REMARK  5 active torsions:
REMARK  status: ('A' for Active; 'I' for Inactive)
REMARK    1  A    between atoms: O_2  and  C_3
REMARK    2  A    between atoms: C_7  and  C_8
REMARK    3  A    between atoms: C_10  and  N_11
REMARK    4  A    between atoms: C_14  and  C_15
REMARK    5  A    between atoms: C_15  and  C_16
REMARK                            x       y       z     vdW  Elec       q    Type
REMARK                         _______ _______ _______ _____ _____    ______ ____
ROOT
ATOM      1  C   UNL     1      36.329   2.454  15.697  0.00  0.00    +0.000 A 
ATOM      2  N   UNL     1      35.682   3.257  14.845  0.00  0.00    +0.000 NA
ATOM      3  C   UNL     1      36.014   4.541  14.621  0.00  0.00    +0.000 A 
ATOM      4  C   UNL     1      37.094   5.038  15.328  0.00  0.00    +0.000 A 
ATOM      5  C   UNL     1      37.487   6.341  15.146  0.00  0.00    +0.000 A 
ATOM      6  C   UNL     1      38.553   6.810  15.853  0.00  0.00    +0.000 A 
ATOM      7  C   UNL     1      39.274   6.047  16.749  0.00  0.00    +0.000 A 
ATOM      8  C   UNL     1      38.881   4.739  16.933  0.00  0.00    +0.000 A 
ATOM      9  C   UNL     1      37.796   4.244  16.222  0.00  0.00    +0.000 A 
ATOM     10  N   UNL     1      37.373   2.980  16.362  0.00  0.00    +0.000 NA
ENDROOT
BRANCH   1  15
ATOM     11  C   UNL     1      36.067  -1.286  15.336  0.00  0.00    +0.000 A 
ATOM     12  C   UNL     1      35.180  -1.613  16.341  0.00  0.00    +0.000 A 
ATOM     13  C   UNL     1      34.668  -0.600  17.137  0.00  0.00    +0.000 A 
ATOM     14  C   UNL     1      35.051   0.728  16.917  0.00  0.00    +0.000 A 
ATOM     15  C   UNL     1      35.937   1.059  15.915  0.00  0.00    +0.000 A 
ATOM     16  C   UNL     1      36.432   0.036  15.136  0.00  0.00    +0.000 A 
ATOM     17  O   UNL     1      37.326   0.357  14.125  0.00  0.00    +0.000 OA
BRANCH  11  19
ATOM     18  C   UNL     1      36.384  -3.634  14.695  0.00  0.00    +0.000 C 
ATOM     19  O   UNL     1      36.618  -2.263  14.500  0.00  0.00    +0.000 OA
ENDBRANCH  11  19
ENDBRANCH   1  15
BRANCH   3  20
ATOM     20  N   UNL     1      35.322   5.379  13.718  0.00  0.00    +0.000 N 
ATOM     21  C   UNL     1      34.102   6.000  14.108  0.00  0.00    +0.000 C 
ATOM     22  C   UNL     1      33.953   7.423  13.698  0.00  0.00    +0.000 C 
ATOM     23  C   UNL     1      35.119   7.902  12.901  0.00  0.00    +0.000 C 
ATOM     24  C   UNL     1      35.425   6.901  11.805  0.00  0.00    +0.000 C 
ATOM     25  C   UNL     1      35.870   5.591  12.404  0.00  0.00    +0.000 C 
BRANCH  23  26
ATOM     26  C   UNL     1      34.853   9.227  12.227  0.00  0.00    +0.000 C 
BRANCH  26  27
ATOM     27  C   UNL     1      34.864  10.351  13.195  0.00  0.00    +0.000 A 
ATOM     28  C   UNL     1      35.955  10.479  14.026  0.00  0.00    +0.000 A 
ATOM     29  C   UNL     1      36.066  11.471  14.948  0.00  0.00    +0.000 A 
ATOM     30  C   UNL     1      35.060  12.392  15.070  0.00  0.00    +0.000 A 
ATOM     31  C   UNL     1      33.955  12.291  14.254  0.00  0.00    +0.000 A 
ATOM     32  C   UNL     1      33.859  11.279  13.324  0.00  0.00    +0.000 A 
ENDBRANCH  26  27
ENDBRANCH  23  26
ENDBRANCH   3  20
TORSDOF 5
ENDMDL
MODEL 10
REMARK VINA RESULT:      -8.0      3.880      9.050
REMARK  Name = 
REMARK  5 active torsions:
REMARK  status: ('A' for Active; 'I' for Inactive)
REMARK    1  A    between atoms: O_2  and  C_3
REMARK    2  A    between atoms: C_7  and  C_8
REMARK    3  A    between atoms: C_10  and  N_11
REMARK    4  A    between atoms: C_14  and  C_15
REMARK    5  A    between atoms: C_15  and  C_16
REMARK                            x       y       z     vdW  Elec       q    Type
REMARK                         _______ _______ _______ _____ _____    ______ ____
ROOT
ATOM      1  C   UNL     1      38.795   5.431  17.122  0.00  0.00    +0.000 A 
ATOM      2  N   UNL     1      37.826   4.508  17.091  0.00  0.00    +0.000 NA
ATOM      3  C   UNL     1      37.699   3.582  16.124  0.00  0.00    +0.000 A 
ATOM      4  C   UNL     1      38.639   3.608  15.110  0.00  0.00    +0.000 A 
ATOM      5  C   UNL     1      38.568   2.690  14.090  0.00  0.00    +0.000 A 
ATOM      6  C   UNL     1      39.505   2.733  13.102  0.00  0.00    +0.000 A 
ATOM      7  C   UNL     1      40.534   3.651  13.061  0.00  0.00    +0.000 A 
ATOM      8  C   UNL     1      40.607   4.573  14.083  0.00  0.00    +0.000 A 
ATOM      9  C   UNL     1      39.661   4.544  15.099  0.00  0.00    +0.000 A 
ATOM     10  N   UNL     1      39.686   5.417  16.116  0.00  0.00    +0.000 NA
ENDROOT
BRANCH   1  15
ATOM     11  C   UNL     1      38.336   8.578  19.141  0.00  0.00    +0.000 A 
ATOM     12  C   UNL     1      39.109   8.323  20.255  0.00  0.00    +0.000 A 
ATOM     13  C   UNL     1      39.781   7.113  20.340  0.00  0.00    +0.000 A 
ATOM     14  C   UNL     1      39.671   6.173  19.308  0.00  0.00    +0.000 A 
ATOM     15  C   UNL     1      38.900   6.424  18.194  0.00  0.00    +0.000 A 
ATOM     16  C   UNL     1      38.242   7.633  18.131  0.00  0.00    +0.000 A 
ATOM     17  O   UNL     1      37.462   7.896  17.014  0.00  0.00    +0.000 OA
BRANCH  11  19
ATOM     18  C   UNL     1      37.930  10.917  19.766  0.00  0.00    +0.000 C 
ATOM     19  O   UNL     1      37.634   9.779  18.997  0.00  0.00    +0.000 OA
ENDBRANCH  11  19
ENDBRANCH   1  15
BRANCH   3  20
ATOM     20  N   UNL     1      36.671   2.613  16.103  0.00  0.00    +0.000 N 
ATOM     21  C   UNL     1      36.042   2.263  14.874  0.00  0.00    +0.000 C 
ATOM     22  C   UNL     1      35.797   0.808  14.678  0.00  0.00    +0.000 C 
ATOM     23  C   UNL     1      36.227   0.002  15.857  0.00  0.00    +0.000 C 
ATOM     24  C   UNL     1      35.672   0.626  17.122  0.00  0.00    +0.000 C 
ATOM     25  C   UNL     1      36.274   1.990  17.338  0.00  0.00    +0.000 C 
BRANCH  23  26
ATOM     26  C   UNL     1      35.715  -1.418  15.803  0.00  0.00    +0.000 C 
BRANCH  26  27
ATOM     27  C   UNL     1      36.739  -2.390  16.258  0.00  0.00    +0.000 A 
ATOM     28  C   UNL     1      36.476  -3.733  16.093  0.00  0.00    +0.000 A 
ATOM     29  C   UNL     1      37.344  -4.705  16.474  0.00  0.00    +0.000 A 
ATOM     30  C   UNL     1      38.537  -4.355  17.047  0.00  0.00    +0.000 A 
ATOM     31  C   UNL     1      38.831  -3.021  17.227  0.00  0.00    +0.000 A 
ATOM     32  C   UNL     1      37.939  -2.048  16.834  0.00  0.00    +0.000 A 
ENDBRANCH  26  27
ENDBRANCH  23  26
ENDBRANCH   3  20
TORSDOF 5
ENDMDL
