MODEL 1
REMARK VINA RESULT:      -6.5      0.000      0.000
REMARK  Name = 
REMARK  2 active torsions:
REMARK  status: ('A' for Active; 'I' for Inactive)
REMARK    1  A    between atoms: C_11  and  C_12
REMARK    2  A    between atoms: N_15  and  C_16
REMARK                            x       y       z     vdW  Elec       q    Type
REMARK                         _______ _______ _______ _____ _____    ______ ____
ROOT
ATOM      1  C   UNL     1      31.732  24.904  24.938  0.00  0.00    +0.000 C 
ATOM      2  C   UNL     1      30.245  24.890  24.955  0.00  0.00    +0.000 C 
ATOM      3  C   UNL     1      29.643  26.247  24.705  0.00  0.00    +0.000 C 
ATOM      4  C   UNL     1      29.771  23.959  23.681  0.00  0.00    +0.000 C 
ATOM      5  C   UNL     1      30.306  22.593  24.302  0.00  0.00    +0.000 C 
ATOM      6  C   UNL     1      30.260  22.750  25.770  0.00  0.00    +0.000 C 
ATOM      7  C   UNL     1      29.603  24.113  26.009  0.00  0.00    +0.000 C 
ATOM      8  C   UNL     1      29.725  24.583  27.395  0.00  0.00    +0.000 C 
ATOM      9  C   UNL     1      28.221  23.998  25.508  0.00  0.00    +0.000 A 
ATOM     10  C   UNL     1      28.284  23.850  24.193  0.00  0.00    +0.000 A 
ATOM     11  C   UNL     1      26.997  23.696  23.733  0.00  0.00    +0.000 A 
ATOM     12  N   UNL     1      26.188  23.765  24.824  0.00  0.00    +0.000 NA
ATOM     13  N   UNL     1      26.903  23.949  25.915  0.00  0.00    +0.000 N 
ENDROOT
BRANCH  13  14
ATOM     14  C   UNL     1      26.502  24.080  27.274  0.00  0.00    +0.000 A 
ATOM     15  C   UNL     1      25.862  25.155  27.795  0.00  0.00    +0.000 A 
ATOM     16  C   UNL     1      25.512  25.190  29.129  0.00  0.00    +0.000 A 
ATOM     17  C   UNL     1      25.804  24.134  29.965  0.00  0.00    +0.000 A 
ATOM     18  C   UNL     1      26.454  23.036  29.448  0.00  0.00    +0.000 A 
ATOM     19  C   UNL     1      26.787  23.024  28.136  0.00  0.00    +0.000 A 
ENDBRANCH  13  14
BRANCH  11  20
ATOM     20  C   UNL     1      26.511  23.495  22.353  0.00  0.00    +0.000 C 
ATOM     21  O   UNL     1      25.324  22.790  22.340  0.00  0.00    +0.000 OA
ENDBRANCH  11  20
TORSDOF 2
ENDMDL
MODEL 2
REMARK VINA RESULT:      -6.5      1.970      3.004
REMARK  Name = 
REMARK  2 active torsions:
REMARK  status: ('A' for Active; 'I' for Inactive)
REMARK    1  A    between atoms: C_11  and  C_12
REMARK    2  A    between atoms: N_15  and  C_16
REMARK                            x       y       z     vdW  Elec       q    Type
REMARK                         _______ _______ _______ _____ _____    ______ ____
ROOT
ATOM      1  C   UNL     1      29.306  27.199  22.526  0.00  0.00    +0.000 C 
ATOM      2  C   UNL     1      28.613  26.269  23.458  0.00  0.00    +0.000 C 
ATOM      3  C   UNL     1      27.691  26.976  24.414  0.00  0.00    +0.000 C 
ATOM      4  C   UNL     1      27.639  25.319  22.530  0.00  0.00    +0.000 C 
ATOM      5  C   UNL     1      28.836  24.541  21.823  0.00  0.00    +0.000 C 
ATOM      6  C   UNL     1      29.967  24.553  22.773  0.00  0.00    +0.000 C 
ATOM      7  C   UNL     1      29.416  25.204  24.047  0.00  0.00    +0.000 C 
ATOM      8  C   UNL     1      30.461  25.569  25.011  0.00  0.00    +0.000 C 
ATOM      9  C   UNL     1      28.382  24.288  24.562  0.00  0.00    +0.000 A 
ATOM     10  C   UNL     1      27.381  24.285  23.693  0.00  0.00    +0.000 A 
ATOM     11  C   UNL     1      26.438  23.396  24.154  0.00  0.00    +0.000 A 
ATOM     12  N   UNL     1      26.923  22.889  25.318  0.00  0.00    +0.000 NA
ATOM     13  N   UNL     1      28.101  23.413  25.592  0.00  0.00    +0.000 N 
ENDROOT
BRANCH  13  14
ATOM     14  C   UNL     1      28.981  23.191  26.688  0.00  0.00    +0.000 A 
ATOM     15  C   UNL     1      28.869  23.777  27.905  0.00  0.00    +0.000 A 
ATOM     16  C   UNL     1      29.774  23.497  28.908  0.00  0.00    +0.000 A 
ATOM     17  C   UNL     1      30.812  22.616  28.699  0.00  0.00    +0.000 A 
ATOM     18  C   UNL     1      30.937  22.014  27.467  0.00  0.00    +0.000 A 
ATOM     19  C   UNL     1      30.037  22.303  26.498  0.00  0.00    +0.000 A 
ENDBRANCH  13  14
BRANCH  11  20
ATOM     20  C   UNL     1      25.139  23.017  23.562  0.00  0.00    +0.000 C 
ATOM     21  O   UNL     1      25.271  22.718  22.220  0.00  0.00    +0.000 OA
ENDBRANCH  11  20
TORSDOF 2
ENDMDL
MODEL 3
REMARK VINA RESULT:      -6.2     31.847     33.239
REMARK  Name = 
REMARK  2 active torsions:
REMARK  status: ('A' for Active; 'I' for Inactive)
REMARK    1  A    between atoms: C_11  and  C_12
REMARK    2  A    between atoms: N_15  and  C_16
REMARK                            x       y       z     vdW  Elec       q    Type
REMARK                         _______ _______ _______ _____ _____    ______ ____
ROOT
ATOM      1  C   UNL     1      19.029 -11.476  26.495  0.00  0.00    +0.000 C 
ATOM      2  C   UNL     1      19.288 -10.117  25.947  0.00  0.00    +0.000 C 
ATOM      3  C   UNL     1      18.537  -9.846  24.672  0.00  0.00    +0.000 C 
ATOM      4  C   UNL     1      18.687  -9.048  27.046  0.00  0.00    +0.000 C 
ATOM      5  C   UNL     1      19.777  -9.369  28.163  0.00  0.00    +0.000 C 
ATOM      6  C   UNL     1      20.990  -9.821  27.450  0.00  0.00    +0.000 C 
ATOM      7  C   UNL     1      20.670  -9.652  25.962  0.00  0.00    +0.000 C 
ATOM      8  C   UNL     1      21.639 -10.314  25.080  0.00  0.00    +0.000 C 
ATOM      9  C   UNL     1      20.509  -8.204  25.738  0.00  0.00    +0.000 A 
ATOM     10  C   UNL     1      19.422  -7.817  26.390  0.00  0.00    +0.000 A 
ATOM     11  C   UNL     1      19.300  -6.458  26.216  0.00  0.00    +0.000 A 
ATOM     12  N   UNL     1      20.347  -6.073  25.440  0.00  0.00    +0.000 NA
ATOM     13  N   UNL     1      21.097  -7.111  25.133  0.00  0.00    +0.000 N 
ENDROOT
BRANCH  13  14
ATOM     14  C   UNL     1      22.285  -7.198  24.352  0.00  0.00    +0.000 A 
ATOM     15  C   UNL     1      22.390  -7.847  23.167  0.00  0.00    +0.000 A 
ATOM     16  C   UNL     1      23.587  -7.875  22.483  0.00  0.00    +0.000 A 
ATOM     17  C   UNL     1      24.704  -7.245  22.985  0.00  0.00    +0.000 A 
ATOM     18  C   UNL     1      24.611  -6.582  24.188  0.00  0.00    +0.000 A 
ATOM     19  C   UNL     1      23.425  -6.567  24.842  0.00  0.00    +0.000 A 
ENDBRANCH  13  14
BRANCH  11  20
ATOM     20  C   UNL     1      18.269  -5.535  26.734  0.00  0.00    +0.000 C 
ATOM     21  O   UNL     1      18.535  -4.232  26.363  0.00  0.00    +0.000 OA
ENDBRANCH  11  20
TORSDOF 2
ENDMDL
MODEL 4
REMARK VINA RESULT:      -6.2      2.296      4.456
REMARK  Name = 
REMARK  2 active torsions:
REMARK  status: ('A' for Active; 'I' for Inactive)
REMARK    1  A    between atoms: C_11  and  C_12
REMARK    2  A    between atoms: N_15  and  C_16
REMARK                            x       y       z     vdW  Elec       q    Type
REMARK                         _______ _______ _______ _____ _____    ______ ____
ROOT
ATOM      1  C   UNL     1      24.871  25.247  26.188  0.00  0.00    +0.000 C 
ATOM      2  C   UNL     1      26.059  24.557  25.617  0.00  0.00    +0.000 C 
ATOM      3  C   UNL     1      25.824  23.090  25.373  0.00  0.00    +0.000 C 
ATOM      4  C   UNL     1      26.311  25.214  24.128  0.00  0.00    +0.000 C 
ATOM      5  C   UNL     1      26.759  26.640  24.680  0.00  0.00    +0.000 C 
ATOM      6  C   UNL     1      27.345  26.409  26.017  0.00  0.00    +0.000 C 
ATOM      7  C   UNL     1      27.356  24.888  26.195  0.00  0.00    +0.000 C 
ATOM      8  C   UNL     1      27.635  24.466  27.573  0.00  0.00    +0.000 C 
ATOM      9  C   UNL     1      28.288  24.362  25.180  0.00  0.00    +0.000 A 
ATOM     10  C   UNL     1      27.750  24.584  23.990  0.00  0.00    +0.000 A 
ATOM     11  C   UNL     1      28.641  24.134  23.044  0.00  0.00    +0.000 A 
ATOM     12  N   UNL     1      29.709  23.640  23.725  0.00  0.00    +0.000 NA
ATOM     13  N   UNL     1      29.522  23.764  25.024  0.00  0.00    +0.000 N 
ENDROOT
BRANCH  13  14
ATOM     14  C   UNL     1      30.354  23.394  26.118  0.00  0.00    +0.000 A 
ATOM     15  C   UNL     1      30.322  22.194  26.747  0.00  0.00    +0.000 A 
ATOM     16  C   UNL     1      31.171  21.929  27.802  0.00  0.00    +0.000 A 
ATOM     17  C   UNL     1      32.070  22.875  28.242  0.00  0.00    +0.000 A 
ATOM     18  C   UNL     1      32.112  24.098  27.611  0.00  0.00    +0.000 A 
ATOM     19  C   UNL     1      31.271  24.336  26.578  0.00  0.00    +0.000 A 
ENDBRANCH  13  14
BRANCH  11  20
ATOM     20  C   UNL     1      28.532  24.148  21.571  0.00  0.00    +0.000 C 
ATOM     21  O   UNL     1      29.772  24.289  20.981  0.00  0.00    +0.000 OA
ENDBRANCH  11  20
TORSDOF 2
ENDMDL
MODEL 5
REMARK VINA RESULT:      -6.1      1.599      4.922
REMARK  Name = 
REMARK  2 active torsions:
REMARK  status: ('A' for Active; 'I' for Inactive)
REMARK    1  A    between atoms: C_11  and  C_12
REMARK    2  A    between atoms: N_15  and  C_16
REMARK                            x       y       z     vdW  Elec       q    Type
REMARK                         _______ _______ _______ _____ _____    ______ ____
ROOT
ATOM      1  C   UNL     1      26.121  23.853  27.858  0.00  0.00    +0.000 C 
ATOM      2  C   UNL     1      26.921  23.685  26.616  0.00  0.00    +0.000 C 
ATOM      3  C   UNL     1      27.287  22.251  26.344  0.00  0.00    +0.000 C 
ATOM      4  C   UNL     1      25.946  24.133  25.367  0.00  0.00    +0.000 C 
ATOM      5  C   UNL     1      25.920  25.677  25.758  0.00  0.00    +0.000 C 
ATOM      6  C   UNL     1      27.188  25.955  26.465  0.00  0.00    +0.000 C 
ATOM      7  C   UNL     1      27.988  24.651  26.382  0.00  0.00    +0.000 C 
ATOM      8  C   UNL     1      29.157  24.629  27.271  0.00  0.00    +0.000 C 
ATOM      9  C   UNL     1      28.286  24.440  24.954  0.00  0.00    +0.000 A 
ATOM     10  C   UNL     1      27.138  24.201  24.337  0.00  0.00    +0.000 A 
ATOM     11  C   UNL     1      27.412  24.050  22.998  0.00  0.00    +0.000 A 
ATOM     12  N   UNL     1      28.756  24.205  22.861  0.00  0.00    +0.000 NA
ATOM     13  N   UNL     1      29.313  24.442  24.031  0.00  0.00    +0.000 N 
ENDROOT
BRANCH  13  14
ATOM     14  C   UNL     1      30.674  24.667  24.380  0.00  0.00    +0.000 A 
ATOM     15  C   UNL     1      31.625  23.705  24.465  0.00  0.00    +0.000 A 
ATOM     16  C   UNL     1      32.921  24.023  24.812  0.00  0.00    +0.000 A 
ATOM     17  C   UNL     1      33.282  25.324  25.081  0.00  0.00    +0.000 A 
ATOM     18  C   UNL     1      32.327  26.311  24.999  0.00  0.00    +0.000 A 
ATOM     19  C   UNL     1      31.060  25.976  24.656  0.00  0.00    +0.000 A 
ENDBRANCH  13  14
BRANCH  11  20
ATOM     20  C   UNL     1      26.491  23.774  21.877  0.00  0.00    +0.000 C 
ATOM     21  O   UNL     1      25.535  22.844  22.235  0.00  0.00    +0.000 OA
ENDBRANCH  11  20
TORSDOF 2
ENDMDL
MODEL 6
REMARK VINA RESULT:      -6.0      3.543      6.508
REMARK  Name = 
REMARK  2 active torsions:
REMARK  status: ('A' for Active; 'I' for Inactive)
REMARK    1  A    between atoms: C_11  and  C_12
REMARK    2  A    between atoms: N_15  and  C_16
REMARK                            x       y       z     vdW  Elec       q    Type
REMARK                         _______ _______ _______ _____ _____    ______ ____
ROOT
ATOM      1  C   UNL     1      25.969  25.407  29.677  0.00  0.00    +0.000 C 
ATOM      2  C   UNL     1      27.358  24.877  29.639  0.00  0.00    +0.000 C 
ATOM      3  C   UNL     1      28.385  25.893  30.062  0.00  0.00    +0.000 C 
ATOM      4  C   UNL     1      27.434  23.681  30.768  0.00  0.00    +0.000 C 
ATOM      5  C   UNL     1      26.480  22.681  29.975  0.00  0.00    +0.000 C 
ATOM      6  C   UNL     1      26.629  23.005  28.541  0.00  0.00    +0.000 C 
ATOM      7  C   UNL     1      27.727  24.072  28.480  0.00  0.00    +0.000 C 
ATOM      8  C   UNL     1      27.824  24.732  27.173  0.00  0.00    +0.000 C 
ATOM      9  C   UNL     1      28.963  23.416  28.942  0.00  0.00    +0.000 A 
ATOM     10  C   UNL     1      28.807  23.127  30.226  0.00  0.00    +0.000 A 
ATOM     11  C   UNL     1      29.944  22.475  30.643  0.00  0.00    +0.000 A 
ATOM     12  N   UNL     1      30.764  22.401  29.561  0.00  0.00    +0.000 NA
ATOM     13  N   UNL     1      30.196  22.964  28.515  0.00  0.00    +0.000 N 
ENDROOT
BRANCH  13  14
ATOM     14  C   UNL     1      30.665  23.125  27.180  0.00  0.00    +0.000 A 
ATOM     15  C   UNL     1      31.555  24.065  26.777  0.00  0.00    +0.000 A 
ATOM     16  C   UNL     1      31.950  24.141  25.458  0.00  0.00    +0.000 A 
ATOM     17  C   UNL     1      31.452  23.266  24.518  0.00  0.00    +0.000 A 
ATOM     18  C   UNL     1      30.547  22.307  24.914  0.00  0.00    +0.000 A 
ATOM     19  C   UNL     1      30.174  22.250  26.215  0.00  0.00    +0.000 A 
ENDBRANCH  13  14
BRANCH  11  20
ATOM     20  C   UNL     1      30.281  21.937  31.977  0.00  0.00    +0.000 C 
ATOM     21  O   UNL     1      31.303  21.012  31.897  0.00  0.00    +0.000 OA
ENDBRANCH  11  20
TORSDOF 2
ENDMDL
MODEL 7
REMARK VINA RESULT:      -5.9     33.752     35.206
REMARK  Name = 
REMARK  2 active torsions:
REMARK  status: ('A' for Active; 'I' for Inactive)
REMARK    1  A    between atoms: C_11  and  C_12
REMARK    2  A    between atoms: N_15  and  C_16
REMARK                            x       y       z     vdW  Elec       q    Type
REMARK                         _______ _______ _______ _____ _____    ______ ____
ROOT
ATOM      1  C   UNL     1      18.797 -12.383  29.517  0.00  0.00    +0.000 C 
ATOM      2  C   UNL     1      18.222 -11.534  28.440  0.00  0.00    +0.000 C 
ATOM      3  C   UNL     1      18.538 -12.043  27.059  0.00  0.00    +0.000 C 
ATOM      4  C   UNL     1      16.585 -11.643  28.583  0.00  0.00    +0.000 C 
ATOM      5  C   UNL     1      16.512 -10.846  29.960  0.00  0.00    +0.000 C 
ATOM      6  C   UNL     1      17.671  -9.930  29.979  0.00  0.00    +0.000 C 
ATOM      7  C   UNL     1      18.333 -10.089  28.606  0.00  0.00    +0.000 C 
ATOM      8  C   UNL     1      19.666  -9.479  28.529  0.00  0.00    +0.000 C 
ATOM      9  C   UNL     1      17.359  -9.590  27.619  0.00  0.00    +0.000 A 
ATOM     10  C   UNL     1      16.325 -10.419  27.623  0.00  0.00    +0.000 A 
ATOM     11  C   UNL     1      15.398  -9.926  26.735  0.00  0.00    +0.000 A 
ATOM     12  N   UNL     1      15.931  -8.788  26.214  0.00  0.00    +0.000 NA
ATOM     13  N   UNL     1      17.121  -8.560  26.731  0.00  0.00    +0.000 N 
ENDROOT
BRANCH  13  14
ATOM     14  C   UNL     1      18.046  -7.504  26.496  0.00  0.00    +0.000 A 
ATOM     15  C   UNL     1      19.193  -7.620  25.784  0.00  0.00    +0.000 A 
ATOM     16  C   UNL     1      20.028  -6.536  25.610  0.00  0.00    +0.000 A 
ATOM     17  C   UNL     1      19.717  -5.310  26.154  0.00  0.00    +0.000 A 
ATOM     18  C   UNL     1      18.555  -5.178  26.880  0.00  0.00    +0.000 A 
ATOM     19  C   UNL     1      17.750  -6.255  27.037  0.00  0.00    +0.000 A 
ENDBRANCH  13  14
BRANCH  11  20
ATOM     20  C   UNL     1      14.073 -10.465  26.366  0.00  0.00    +0.000 C 
ATOM     21  O   UNL     1      13.304 -10.707  27.487  0.00  0.00    +0.000 OA
ENDBRANCH  11  20
TORSDOF 2
ENDMDL
MODEL 8
REMARK VINA RESULT:      -5.8     21.361     23.198
REMARK  Name = 
REMARK  2 active torsions:
REMARK  status: ('A' for Active; 'I' for Inactive)
REMARK    1  A    between atoms: C_11  and  C_12
REMARK    2  A    between atoms: N_15  and  C_16
REMARK                            x       y       z     vdW  Elec       q    Type
REMARK                         _______ _______ _______ _____ _____    ______ ____
ROOT
ATOM      1  C   UNL     1      26.058   0.128  14.644  0.00  0.00    +0.000 C 
ATOM      2  C   UNL     1      25.382   1.304  15.256  0.00  0.00    +0.000 C 
ATOM      3  C   UNL     1      24.753   2.215  14.237  0.00  0.00    +0.000 C 
ATOM      4  C   UNL     1      24.130   0.712  16.147  0.00  0.00    +0.000 C 
ATOM      5  C   UNL     1      25.056   0.020  17.244  0.00  0.00    +0.000 C 
ATOM      6  C   UNL     1      26.312   0.797  17.287  0.00  0.00    +0.000 C 
ATOM      7  C   UNL     1      26.086   1.980  16.340  0.00  0.00    +0.000 C 
ATOM      8  C   UNL     1      27.318   2.713  16.022  0.00  0.00    +0.000 C 
ATOM      9  C   UNL     1      25.014   2.792  16.943  0.00  0.00    +0.000 A 
ATOM     10  C   UNL     1      23.900   2.076  16.903  0.00  0.00    +0.000 A 
ATOM     11  C   UNL     1      22.912   2.817  17.508  0.00  0.00    +0.000 A 
ATOM     12  N   UNL     1      23.489   3.986  17.894  0.00  0.00    +0.000 NA
ATOM     13  N   UNL     1      24.765   3.999  17.564  0.00  0.00    +0.000 N 
ENDROOT
BRANCH  13  14
ATOM     14  C   UNL     1      25.762   4.995  17.761  0.00  0.00    +0.000 A 
ATOM     15  C   UNL     1      26.658   5.008  18.778  0.00  0.00    +0.000 A 
ATOM     16  C   UNL     1      27.589   6.020  18.885  0.00  0.00    +0.000 A 
ATOM     17  C   UNL     1      27.632   7.041  17.962  0.00  0.00    +0.000 A 
ATOM     18  C   UNL     1      26.728   7.041  16.925  0.00  0.00    +0.000 A 
ATOM     19  C   UNL     1      25.823   6.037  16.840  0.00  0.00    +0.000 A 
ENDBRANCH  13  14
BRANCH  11  20
ATOM     20  C   UNL     1      21.490   2.483  17.729  0.00  0.00    +0.000 C 
ATOM     21  O   UNL     1      21.337   1.150  18.056  0.00  0.00    +0.000 OA
ENDBRANCH  11  20
TORSDOF 2
ENDMDL
MODEL 9
REMARK VINA RESULT:      -5.7      4.133      5.841
REMARK  Name = 
REMARK  2 active torsions:
REMARK  status: ('A' for Active; 'I' for Inactive)
REMARK    1  A    between atoms: C_11  and  C_12
REMARK    2  A    between atoms: N_15  and  C_16
REMARK                            x       y       z     vdW  Elec       q    Type
REMARK                         _______ _______ _______ _____ _____    ______ ____
ROOT
ATOM      1  C   UNL     1      29.641  24.761  25.913  0.00  0.00    +0.000 C 
ATOM      2  C   UNL     1      29.533  24.361  27.341  0.00  0.00    +0.000 C 
ATOM      3  C   UNL     1      29.371  25.535  28.268  0.00  0.00    +0.000 C 
ATOM      4  C   UNL     1      28.138  23.497  27.481  0.00  0.00    +0.000 C 
ATOM      5  C   UNL     1      28.660  22.252  26.636  0.00  0.00    +0.000 C 
ATOM      6  C   UNL     1      30.128  22.217  26.800  0.00  0.00    +0.000 C 
ATOM      7  C   UNL     1      30.447  23.325  27.808  0.00  0.00    +0.000 C 
ATOM      8  C   UNL     1      31.878  23.643  27.889  0.00  0.00    +0.000 C 
ATOM      9  C   UNL     1      29.825  22.917  29.080  0.00  0.00    +0.000 A 
ATOM     10  C   UNL     1      28.511  22.947  28.911  0.00  0.00    +0.000 A 
ATOM     11  C   UNL     1      27.934  22.521  30.084  0.00  0.00    +0.000 A 
ATOM     12  N   UNL     1      28.955  22.249  30.939  0.00  0.00    +0.000 NA
ATOM     13  N   UNL     1      30.115  22.480  30.358  0.00  0.00    +0.000 N 
ENDROOT
BRANCH  13  14
ATOM     14  C   UNL     1      31.442  22.341  30.852  0.00  0.00    +0.000 A 
ATOM     15  C   UNL     1      32.222  21.244  30.687  0.00  0.00    +0.000 A 
ATOM     16  C   UNL     1      33.500  21.204  31.204  0.00  0.00    +0.000 A 
ATOM     17  C   UNL     1      34.016  22.275  31.900  0.00  0.00    +0.000 A 
ATOM     18  C   UNL     1      33.235  23.395  32.074  0.00  0.00    +0.000 A 
ATOM     19  C   UNL     1      31.983  23.413  31.557  0.00  0.00    +0.000 A 
ENDBRANCH  13  14
BRANCH  11  20
ATOM     20  C   UNL     1      26.505  22.366  30.424  0.00  0.00    +0.000 C 
ATOM     21  O   UNL     1      25.926  23.587  30.713  0.00  0.00    +0.000 OA
ENDBRANCH  11  20
TORSDOF 2
ENDMDL
MODEL 10
REMARK VINA RESULT:      -5.7      2.478      5.673
REMARK  Name = 
REMARK  2 active torsions:
REMARK  status: ('A' for Active; 'I' for Inactive)
REMARK    1  A    between atoms: C_11  and  C_12
REMARK    2  A    between atoms: N_15  and  C_16
REMARK                            x       y       z     vdW  Elec       q    Type
REMARK                         _______ _______ _______ _____ _____    ______ ____
ROOT
ATOM      1  C   UNL     1      27.003  27.480  29.511  0.00  0.00    +0.000 C 
ATOM      2  C   UNL     1      27.488  26.116  29.171  0.00  0.00    +0.000 C 
ATOM      3  C   UNL     1      28.905  25.870  29.616  0.00  0.00    +0.000 C 
ATOM      4  C   UNL     1      26.567  25.062  30.040  0.00  0.00    +0.000 C 
ATOM      5  C   UNL     1      25.226  25.348  29.228  0.00  0.00    +0.000 C 
ATOM      6  C   UNL     1      25.636  25.765  27.871  0.00  0.00    +0.000 C 
ATOM      7  C   UNL     1      27.160  25.609  27.844  0.00  0.00    +0.000 C 
ATOM      8  C   UNL     1      27.789  26.243  26.679  0.00  0.00    +0.000 C 
ATOM      9  C   UNL     1      27.428  24.167  27.991  0.00  0.00    +0.000 A 
ATOM     10  C   UNL     1      27.048  23.811  29.209  0.00  0.00    +0.000 A 
ATOM     11  C   UNL     1      27.257  22.457  29.327  0.00  0.00    +0.000 A 
ATOM     12  N   UNL     1      27.775  22.042  28.141  0.00  0.00    +0.000 NA
ATOM     13  N   UNL     1      27.891  23.058  27.310  0.00  0.00    +0.000 N 
ENDROOT
BRANCH  13  14
ATOM     14  C   UNL     1      28.376  23.110  25.973  0.00  0.00    +0.000 A 
ATOM     15  C   UNL     1      29.684  23.068  25.619  0.00  0.00    +0.000 A 
ATOM     16  C   UNL     1      30.056  23.125  24.292  0.00  0.00    +0.000 A 
ATOM     17  C   UNL     1      29.111  23.226  23.295  0.00  0.00    +0.000 A 
ATOM     18  C   UNL     1      27.780  23.271  23.642  0.00  0.00    +0.000 A 
ATOM     19  C   UNL     1      27.437  23.212  24.950  0.00  0.00    +0.000 A 
ENDBRANCH  13  14
BRANCH  11  20
ATOM     20  C   UNL     1      26.999  21.565  30.476  0.00  0.00    +0.000 C 
ATOM     21  O   UNL     1      25.671  21.609  30.853  0.00  0.00    +0.000 OA
ENDBRANCH  11  20
TORSDOF 2
ENDMDL
