MODEL 1
REMARK VINA RESULT:      -6.4      0.000      0.000
REMARK  Name = 
REMARK  1 active torsions:
REMARK  status: ('A' for Active; 'I' for Inactive)
REMARK    1  A    between atoms: C_9  and  N_10
REMARK                            x       y       z     vdW  Elec       q    Type
REMARK                         _______ _______ _______ _____ _____    ______ ____
ROOT
ATOM      1  C   UNL     1      18.526  -5.079  26.548  0.00  0.00    +0.000 C 
ATOM      2  C   UNL     1      19.492  -6.195  26.238  0.00  0.00    +0.000 A 
ATOM      3  C   UNL     1      20.684  -5.913  25.606  0.00  0.00    +0.000 A 
ATOM      4  C   UNL     1      21.579  -6.951  25.320  0.00  0.00    +0.000 A 
ATOM      5  N   UNL     1      22.700  -6.614  24.714  0.00  0.00    +0.000 NA
ATOM      6  C   UNL     1      23.712  -7.371  24.328  0.00  0.00    +0.000 A 
ATOM      7  C   UNL     1      24.803  -6.761  23.695  0.00  0.00    +0.000 A 
ATOM      8  C   UNL     1      25.884  -7.504  23.271  0.00  0.00    +0.000 A 
ATOM      9  C   UNL     1      25.947  -8.871  23.447  0.00  0.00    +0.000 A 
ATOM     10  C   UNL     1      24.870  -9.463  24.070  0.00  0.00    +0.000 A 
ATOM     11  C   UNL     1      23.785  -8.734  24.497  0.00  0.00    +0.000 A 
ATOM     12  S   UNL     1      22.410  -9.402  25.280  0.00  0.00    +0.000 S 
ATOM     13  C   UNL     1      21.240  -8.235  25.682  0.00  0.00    +0.000 A 
ATOM     14  C   UNL     1      20.032  -8.490  26.319  0.00  0.00    +0.000 A 
ATOM     15  C   UNL     1      19.146  -7.473  26.604  0.00  0.00    +0.000 A 
ATOM     16  N   UNL     1      17.922  -7.721  27.247  0.00  0.00    +0.000 NA
ENDROOT
BRANCH   9  17
ATOM     17  N   UNL     1      27.057  -9.647  23.016  0.00  0.00    +0.000 N 
ATOM     18  C   UNL     1      28.301  -9.666  23.760  0.00  0.00    +0.000 C 
ATOM     19  C   UNL     1      26.997 -10.453  21.812  0.00  0.00    +0.000 C 
ENDBRANCH   9  17
TORSDOF 1
ENDMDL
MODEL 2
REMARK VINA RESULT:      -6.3     15.419     17.056
REMARK  Name = 
REMARK  1 active torsions:
REMARK  status: ('A' for Active; 'I' for Inactive)
REMARK    1  A    between atoms: C_9  and  N_10
REMARK                            x       y       z     vdW  Elec       q    Type
REMARK                         _______ _______ _______ _____ _____    ______ ____
ROOT
ATOM      1  C   UNL     1      33.634  -5.878  33.242  0.00  0.00    +0.000 C 
ATOM      2  C   UNL     1      33.535  -4.542  33.934  0.00  0.00    +0.000 A 
ATOM      3  C   UNL     1      33.715  -3.382  33.212  0.00  0.00    +0.000 A 
ATOM      4  C   UNL     1      33.623  -2.143  33.857  0.00  0.00    +0.000 A 
ATOM      5  N   UNL     1      33.806  -1.073  33.109  0.00  0.00    +0.000 NA
ATOM      6  C   UNL     1      33.777   0.206  33.444  0.00  0.00    +0.000 A 
ATOM      7  C   UNL     1      34.007   1.164  32.448  0.00  0.00    +0.000 A 
ATOM      8  C   UNL     1      33.989   2.511  32.741  0.00  0.00    +0.000 A 
ATOM      9  C   UNL     1      33.745   2.979  34.017  0.00  0.00    +0.000 A 
ATOM     10  C   UNL     1      33.520   2.030  34.989  0.00  0.00    +0.000 A 
ATOM     11  C   UNL     1      33.536   0.683  34.710  0.00  0.00    +0.000 A 
ATOM     12  S   UNL     1      33.264  -0.554  35.869  0.00  0.00    +0.000 S 
ATOM     13  C   UNL     1      33.351  -2.118  35.206  0.00  0.00    +0.000 A 
ATOM     14  C   UNL     1      33.172  -3.304  35.909  0.00  0.00    +0.000 A 
ATOM     15  C   UNL     1      33.263  -4.527  35.281  0.00  0.00    +0.000 A 
ATOM     16  N   UNL     1      33.085  -5.731  35.983  0.00  0.00    +0.000 NA
ENDROOT
BRANCH   9  17
ATOM     17  N   UNL     1      33.723   4.365  34.331  0.00  0.00    +0.000 N 
ATOM     18  C   UNL     1      34.817   4.996  35.043  0.00  0.00    +0.000 C 
ATOM     19  C   UNL     1      32.607   5.210  33.954  0.00  0.00    +0.000 C 
ENDBRANCH   9  17
TORSDOF 1
ENDMDL
MODEL 3
REMARK VINA RESULT:      -6.3     21.284     23.650
REMARK  Name = 
REMARK  1 active torsions:
REMARK  status: ('A' for Active; 'I' for Inactive)
REMARK    1  A    between atoms: C_9  and  N_10
REMARK                            x       y       z     vdW  Elec       q    Type
REMARK                         _______ _______ _______ _____ _____    ______ ____
ROOT
ATOM      1  C   UNL     1      23.894   9.196  36.362  0.00  0.00    +0.000 C 
ATOM      2  C   UNL     1      22.594   9.406  37.096  0.00  0.00    +0.000 A 
ATOM      3  C   UNL     1      21.460   9.757  36.395  0.00  0.00    +0.000 A 
ATOM      4  C   UNL     1      20.255   9.951  37.078  0.00  0.00    +0.000 A 
ATOM      5  N   UNL     1      19.208  10.285  36.348  0.00  0.00    +0.000 NA
ATOM      6  C   UNL     1      17.963  10.528  36.719  0.00  0.00    +0.000 A 
ATOM      7  C   UNL     1      17.026  10.869  35.735  0.00  0.00    +0.000 A 
ATOM      8  C   UNL     1      15.714  11.132  36.066  0.00  0.00    +0.000 A 
ATOM      9  C   UNL     1      15.262  11.074  37.368  0.00  0.00    +0.000 A 
ATOM     10  C   UNL     1      16.190  10.737  38.329  0.00  0.00    +0.000 A 
ATOM     11  C   UNL     1      17.502  10.472  38.013  0.00  0.00    +0.000 A 
ATOM     12  S   UNL     1      18.711  10.048  39.155  0.00  0.00    +0.000 S 
ATOM     13  C   UNL     1      20.234   9.784  38.444  0.00  0.00    +0.000 A 
ATOM     14  C   UNL     1      21.392   9.429  39.126  0.00  0.00    +0.000 A 
ATOM     15  C   UNL     1      22.583   9.236  38.460  0.00  0.00    +0.000 A 
ATOM     16  N   UNL     1      23.759   8.878  39.140  0.00  0.00    +0.000 NA
ENDROOT
BRANCH   9  17
ATOM     17  N   UNL     1      13.911  11.342  37.721  0.00  0.00    +0.000 N 
ATOM     18  C   UNL     1      13.087  12.237  36.931  0.00  0.00    +0.000 C 
ATOM     19  C   UNL     1      13.296  10.736  38.886  0.00  0.00    +0.000 C 
ENDBRANCH   9  17
TORSDOF 1
ENDMDL
MODEL 4
REMARK VINA RESULT:      -6.2      1.348      2.221
REMARK  Name = 
REMARK  1 active torsions:
REMARK  status: ('A' for Active; 'I' for Inactive)
REMARK    1  A    between atoms: C_9  and  N_10
REMARK                            x       y       z     vdW  Elec       q    Type
REMARK                         _______ _______ _______ _____ _____    ______ ____
ROOT
ATOM      1  C   UNL     1      18.100  -8.168  27.591  0.00  0.00    +0.000 C 
ATOM      2  C   UNL     1      19.257  -7.696  26.746  0.00  0.00    +0.000 A 
ATOM      3  C   UNL     1      20.313  -8.546  26.495  0.00  0.00    +0.000 A 
ATOM      4  C   UNL     1      21.384  -8.106  25.710  0.00  0.00    +0.000 A 
ATOM      5  N   UNL     1      22.362  -8.968  25.508  0.00  0.00    +0.000 NA
ATOM      6  C   UNL     1      23.481  -8.828  24.819  0.00  0.00    +0.000 A 
ATOM      7  C   UNL     1      24.370  -9.910  24.758  0.00  0.00    +0.000 A 
ATOM      8  C   UNL     1      25.551  -9.820  24.054  0.00  0.00    +0.000 A 
ATOM      9  C   UNL     1      25.915  -8.672  23.380  0.00  0.00    +0.000 A 
ATOM     10  C   UNL     1      25.036  -7.613  23.445  0.00  0.00    +0.000 A 
ATOM     11  C   UNL     1      23.854  -7.690  24.144  0.00  0.00    +0.000 A 
ATOM     12  S   UNL     1      22.713  -6.414  24.269  0.00  0.00    +0.000 S 
ATOM     13  C   UNL     1      21.353  -6.826  25.205  0.00  0.00    +0.000 A 
ATOM     14  C   UNL     1      20.276  -5.991  25.474  0.00  0.00    +0.000 A 
ATOM     15  C   UNL     1      19.217  -6.417  26.246  0.00  0.00    +0.000 A 
ATOM     16  N   UNL     1      18.123  -5.581  26.524  0.00  0.00    +0.000 NA
ENDROOT
BRANCH   9  17
ATOM     17  N   UNL     1      27.130  -8.567  22.650  0.00  0.00    +0.000 N 
ATOM     18  C   UNL     1      27.916  -9.740  22.317  0.00  0.00    +0.000 C 
ATOM     19  C   UNL     1      27.640  -7.284  22.206  0.00  0.00    +0.000 C 
ENDBRANCH   9  17
TORSDOF 1
ENDMDL
MODEL 5
REMARK VINA RESULT:      -6.2     31.432     31.937
REMARK  Name = 
REMARK  1 active torsions:
REMARK  status: ('A' for Active; 'I' for Inactive)
REMARK    1  A    between atoms: C_9  and  N_10
REMARK                            x       y       z     vdW  Elec       q    Type
REMARK                         _______ _______ _______ _____ _____    ______ ____
ROOT
ATOM      1  C   UNL     1      33.402  21.359  31.026  0.00  0.00    +0.000 C 
ATOM      2  C   UNL     1      32.146  21.810  30.324  0.00  0.00    +0.000 A 
ATOM      3  C   UNL     1      32.104  21.840  28.947  0.00  0.00    +0.000 A 
ATOM      4  C   UNL     1      30.937  22.259  28.298  0.00  0.00    +0.000 A 
ATOM      5  N   UNL     1      30.963  22.264  26.979  0.00  0.00    +0.000 NA
ATOM      6  C   UNL     1      30.021  22.605  26.118  0.00  0.00    +0.000 A 
ATOM      7  C   UNL     1      30.303  22.521  24.748  0.00  0.00    +0.000 A 
ATOM      8  C   UNL     1      29.358  22.865  23.806  0.00  0.00    +0.000 A 
ATOM      9  C   UNL     1      28.098  23.305  24.160  0.00  0.00    +0.000 A 
ATOM     10  C   UNL     1      27.829  23.384  25.508  0.00  0.00    +0.000 A 
ATOM     11  C   UNL     1      28.764  23.045  26.459  0.00  0.00    +0.000 A 
ATOM     12  S   UNL     1      28.499  23.119  28.153  0.00  0.00    +0.000 S 
ATOM     13  C   UNL     1      29.853  22.632  29.060  0.00  0.00    +0.000 A 
ATOM     14  C   UNL     1      29.923  22.591  30.448  0.00  0.00    +0.000 A 
ATOM     15  C   UNL     1      31.069  22.181  31.094  0.00  0.00    +0.000 A 
ATOM     16  N   UNL     1      31.150  22.137  32.495  0.00  0.00    +0.000 NA
ENDROOT
BRANCH   9  17
ATOM     17  N   UNL     1      27.115  23.661  23.197  0.00  0.00    +0.000 N 
ATOM     18  C   UNL     1      27.461  24.410  22.004  0.00  0.00    +0.000 C 
ATOM     19  C   UNL     1      25.722  23.294  23.364  0.00  0.00    +0.000 C 
ENDBRANCH   9  17
TORSDOF 1
ENDMDL
MODEL 6
REMARK VINA RESULT:      -6.0     31.505     31.837
REMARK  Name = 
REMARK  1 active torsions:
REMARK  status: ('A' for Active; 'I' for Inactive)
REMARK    1  A    between atoms: C_9  and  N_10
REMARK                            x       y       z     vdW  Elec       q    Type
REMARK                         _______ _______ _______ _____ _____    ______ ____
ROOT
ATOM      1  C   UNL     1      25.634  23.406  23.429  0.00  0.00    +0.000 C 
ATOM      2  C   UNL     1      26.901  23.225  24.227  0.00  0.00    +0.000 A 
ATOM      3  C   UNL     1      26.837  23.122  25.600  0.00  0.00    +0.000 A 
ATOM      4  C   UNL     1      28.014  22.954  26.338  0.00  0.00    +0.000 A 
ATOM      5  N   UNL     1      27.883  22.863  27.647  0.00  0.00    +0.000 NA
ATOM      6  C   UNL     1      28.807  22.703  28.579  0.00  0.00    +0.000 A 
ATOM      7  C   UNL     1      28.402  22.635  29.919  0.00  0.00    +0.000 A 
ATOM      8  C   UNL     1      29.323  22.470  30.931  0.00  0.00    +0.000 A 
ATOM      9  C   UNL     1      30.676  22.363  30.679  0.00  0.00    +0.000 A 
ATOM     10  C   UNL     1      31.065  22.430  29.359  0.00  0.00    +0.000 A 
ATOM     11  C   UNL     1      30.156  22.596  28.340  0.00  0.00    +0.000 A 
ATOM     12  S   UNL     1      30.567  22.688  26.675  0.00  0.00    +0.000 S 
ATOM     13  C   UNL     1      29.214  22.895  25.666  0.00  0.00    +0.000 A 
ATOM     14  C   UNL     1      29.249  23.000  24.281  0.00  0.00    +0.000 A 
ATOM     15  C   UNL     1      28.094  23.166  23.547  0.00  0.00    +0.000 A 
ATOM     16  N   UNL     1      28.119  23.275  22.147  0.00  0.00    +0.000 NA
ENDROOT
BRANCH   9  17
ATOM     17  N   UNL     1      31.634  22.191  31.714  0.00  0.00    +0.000 N 
ATOM     18  C   UNL     1      31.288  21.546  32.966  0.00  0.00    +0.000 C 
ATOM     19  C   UNL     1      33.001  22.654  31.567  0.00  0.00    +0.000 C 
ENDBRANCH   9  17
TORSDOF 1
ENDMDL
MODEL 7
REMARK VINA RESULT:      -5.4     31.494     31.864
REMARK  Name = 
REMARK  1 active torsions:
REMARK  status: ('A' for Active; 'I' for Inactive)
REMARK    1  A    between atoms: C_9  and  N_10
REMARK                            x       y       z     vdW  Elec       q    Type
REMARK                         _______ _______ _______ _____ _____    ______ ____
ROOT
ATOM      1  C   UNL     1      31.169  21.865  33.284  0.00  0.00    +0.000 C 
ATOM      2  C   UNL     1      31.116  21.959  31.780  0.00  0.00    +0.000 A 
ATOM      3  C   UNL     1      29.930  22.282  31.155  0.00  0.00    +0.000 A 
ATOM      4  C   UNL     1      29.884  22.369  29.759  0.00  0.00    +0.000 A 
ATOM      5  N   UNL     1      28.720  22.682  29.225  0.00  0.00    +0.000 NA
ATOM      6  C   UNL     1      28.387  22.832  27.955  0.00  0.00    +0.000 A 
ATOM      7  C   UNL     1      27.063  23.170  27.644  0.00  0.00    +0.000 A 
ATOM      8  C   UNL     1      26.661  23.339  26.337  0.00  0.00    +0.000 A 
ATOM      9  C   UNL     1      27.533  23.186  25.278  0.00  0.00    +0.000 A 
ATOM     10  C   UNL     1      28.832  22.853  25.592  0.00  0.00    +0.000 A 
ATOM     11  C   UNL     1      29.246  22.681  26.892  0.00  0.00    +0.000 A 
ATOM     12  S   UNL     1      30.846  22.267  27.358  0.00  0.00    +0.000 S 
ATOM     13  C   UNL     1      31.034  22.129  29.043  0.00  0.00    +0.000 A 
ATOM     14  C   UNL     1      32.216  21.806  29.698  0.00  0.00    +0.000 A 
ATOM     15  C   UNL     1      32.270  21.718  31.073  0.00  0.00    +0.000 A 
ATOM     16  N   UNL     1      33.459  21.392  31.745  0.00  0.00    +0.000 NA
ENDROOT
BRANCH   9  17
ATOM     17  N   UNL     1      27.130  23.358  23.926  0.00  0.00    +0.000 N 
ATOM     18  C   UNL     1      25.732  23.333  23.544  0.00  0.00    +0.000 C 
ATOM     19  C   UNL     1      28.099  23.565  22.866  0.00  0.00    +0.000 C 
ENDBRANCH   9  17
TORSDOF 1
ENDMDL
MODEL 8
REMARK VINA RESULT:      -5.3      1.930      3.116
REMARK  Name = 
REMARK  1 active torsions:
REMARK  status: ('A' for Active; 'I' for Inactive)
REMARK    1  A    between atoms: C_9  and  N_10
REMARK                            x       y       z     vdW  Elec       q    Type
REMARK                         _______ _______ _______ _____ _____    ______ ____
ROOT
ATOM      1  C   UNL     1      19.896  -8.570  26.335  0.00  0.00    +0.000 C 
ATOM      2  C   UNL     1      21.128  -8.060  25.632  0.00  0.00    +0.000 A 
ATOM      3  C   UNL     1      22.167  -8.924  25.357  0.00  0.00    +0.000 A 
ATOM      4  C   UNL     1      23.309  -8.448  24.704  0.00  0.00    +0.000 A 
ATOM      5  N   UNL     1      24.266  -9.326  24.470  0.00  0.00    +0.000 NA
ATOM      6  C   UNL     1      25.437  -9.161  23.880  0.00  0.00    +0.000 A 
ATOM      7  C   UNL     1      26.285 -10.269  23.755  0.00  0.00    +0.000 A 
ATOM      8  C   UNL     1      27.518 -10.154  23.149  0.00  0.00    +0.000 A 
ATOM      9  C   UNL     1      27.974  -8.955  22.639  0.00  0.00    +0.000 A 
ATOM     10  C   UNL     1      27.133  -7.871  22.767  0.00  0.00    +0.000 A 
ATOM     11  C   UNL     1      25.901  -7.972  23.370  0.00  0.00    +0.000 A 
ATOM     12  S   UNL     1      24.803  -6.667  23.564  0.00  0.00    +0.000 S 
ATOM     13  C   UNL     1      23.364  -7.119  24.351  0.00  0.00    +0.000 A 
ATOM     14  C   UNL     1      22.302  -6.270  24.640  0.00  0.00    +0.000 A 
ATOM     15  C   UNL     1      21.174  -6.732  25.283  0.00  0.00    +0.000 A 
ATOM     16  N   UNL     1      20.095  -5.883  25.581  0.00  0.00    +0.000 NA
ENDROOT
BRANCH   9  17
ATOM     17  N   UNL     1      29.242  -8.825  22.011  0.00  0.00    +0.000 N 
ATOM     18  C   UNL     1      29.856  -9.936  21.310  0.00  0.00    +0.000 C 
ATOM     19  C   UNL     1      29.980  -7.577  22.044  0.00  0.00    +0.000 C 
ENDBRANCH   9  17
TORSDOF 1
ENDMDL
MODEL 9
REMARK VINA RESULT:      -5.2     18.858     22.026
REMARK  Name = 
REMARK  1 active torsions:
REMARK  status: ('A' for Active; 'I' for Inactive)
REMARK    1  A    between atoms: C_9  and  N_10
REMARK                            x       y       z     vdW  Elec       q    Type
REMARK                         _______ _______ _______ _____ _____    ______ ____
ROOT
ATOM      1  C   UNL     1      22.639   0.199  41.108  0.00  0.00    +0.000 C 
ATOM      2  C   UNL     1      22.370   1.678  40.996  0.00  0.00    +0.000 A 
ATOM      3  C   UNL     1      21.080   2.150  41.115  0.00  0.00    +0.000 A 
ATOM      4  C   UNL     1      20.833   3.524  41.012  0.00  0.00    +0.000 A 
ATOM      5  N   UNL     1      19.578   3.910  41.136  0.00  0.00    +0.000 NA
ATOM      6  C   UNL     1      19.059   5.124  41.083  0.00  0.00    +0.000 A 
ATOM      7  C   UNL     1      17.675   5.268  41.246  0.00  0.00    +0.000 A 
ATOM      8  C   UNL     1      17.081   6.511  41.199  0.00  0.00    +0.000 A 
ATOM      9  C   UNL     1      17.810   7.664  40.992  0.00  0.00    +0.000 A 
ATOM     10  C   UNL     1      19.170   7.513  40.833  0.00  0.00    +0.000 A 
ATOM     11  C   UNL     1      19.776   6.278  40.877  0.00  0.00    +0.000 A 
ATOM     12  S   UNL     1      21.462   6.014  40.686  0.00  0.00    +0.000 S 
ATOM     13  C   UNL     1      21.894   4.373  40.792  0.00  0.00    +0.000 A 
ATOM     14  C   UNL     1      23.184   3.869  40.677  0.00  0.00    +0.000 A 
ATOM     15  C   UNL     1      23.436   2.518  40.777  0.00  0.00    +0.000 A 
ATOM     16  N   UNL     1      24.736   1.999  40.661  0.00  0.00    +0.000 NA
ENDROOT
BRANCH   9  17
ATOM     17  N   UNL     1      17.209   8.951  40.943  0.00  0.00    +0.000 N 
ATOM     18  C   UNL     1      16.588   9.540  42.114  0.00  0.00    +0.000 C 
ATOM     19  C   UNL     1      17.187   9.732  39.722  0.00  0.00    +0.000 C 
ENDBRANCH   9  17
TORSDOF 1
ENDMDL
MODEL 10
REMARK VINA RESULT:      -5.0     32.837     34.333
REMARK  Name = 
REMARK  1 active torsions:
REMARK  status: ('A' for Active; 'I' for Inactive)
REMARK    1  A    between atoms: C_9  and  N_10
REMARK                            x       y       z     vdW  Elec       q    Type
REMARK                         _______ _______ _______ _____ _____    ______ ____
ROOT
ATOM      1  C   UNL     1      26.026  23.952  27.419  0.00  0.00    +0.000 C 
ATOM      2  C   UNL     1      26.886  24.064  26.185  0.00  0.00    +0.000 A 
ATOM      3  C   UNL     1      26.704  25.120  25.318  0.00  0.00    +0.000 A 
ATOM      4  C   UNL     1      27.504  25.223  24.174  0.00  0.00    +0.000 A 
ATOM      5  N   UNL     1      27.280  26.256  23.387  0.00  0.00    +0.000 NA
ATOM      6  C   UNL     1      27.873  26.602  22.257  0.00  0.00    +0.000 A 
ATOM      7  C   UNL     1      27.442  27.763  21.602  0.00  0.00    +0.000 A 
ATOM      8  C   UNL     1      28.025  28.169  20.421  0.00  0.00    +0.000 A 
ATOM      9  C   UNL     1      29.052  27.461  19.830  0.00  0.00    +0.000 A 
ATOM     10  C   UNL     1      29.469  26.321  20.481  0.00  0.00    +0.000 A 
ATOM     11  C   UNL     1      28.895  25.904  21.660  0.00  0.00    +0.000 A 
ATOM     12  S   UNL     1      29.362  24.496  22.524  0.00  0.00    +0.000 S 
ATOM     13  C   UNL     1      28.459  24.258  23.946  0.00  0.00    +0.000 A 
ATOM     14  C   UNL     1      28.620  23.204  24.837  0.00  0.00    +0.000 A 
ATOM     15  C   UNL     1      27.836  23.096  25.966  0.00  0.00    +0.000 A 
ATOM     16  N   UNL     1      27.991  22.035  26.873  0.00  0.00    +0.000 NA
ENDROOT
BRANCH   9  17
ATOM     17  N   UNL     1      29.661  27.871  18.613  0.00  0.00    +0.000 N 
ATOM     18  C   UNL     1      31.098  27.811  18.429  0.00  0.00    +0.000 C 
ATOM     19  C   UNL     1      28.874  28.369  17.501  0.00  0.00    +0.000 C 
ENDBRANCH   9  17
TORSDOF 1
ENDMDL
