MODEL 1
REMARK VINA RESULT:      -7.2      0.000      0.000
REMARK  Name = 
REMARK  4 active torsions:
REMARK  status: ('A' for Active; 'I' for Inactive)
REMARK    1  A    between atoms: C_2  and  C_3
REMARK    2  A    between atoms: C_6  and  N_7
REMARK    3  A    between atoms: N_7  and  N_8
REMARK    4  A    between atoms: C_9  and  C_11
REMARK                            x       y       z     vdW  Elec       q    Type
REMARK                         _______ _______ _______ _____ _____    ______ ____
ROOT
ATOM      1  N   UNL     1      15.847  11.215  36.037  0.00  0.00    +0.000 NA
ATOM      2  C   UNL     1      14.839  12.198  35.991  0.00  0.00    +0.000 C 
ATOM      3  O   UNL     1      14.273  12.545  37.034  0.00  0.00    +0.000 OA
ENDROOT
BRANCH   2   4
ATOM      4  C   UNL     1      14.507  12.765  34.693  0.00  0.00    +0.000 A 
ATOM      5  C   UNL     1      14.967  12.152  33.544  0.00  0.00    +0.000 A 
ATOM      6  C   UNL     1      14.666  12.669  32.285  0.00  0.00    +0.000 A 
ATOM      7  C   UNL     1      13.901  13.805  32.140  0.00  0.00    +0.000 A 
ATOM      8  F   UNL     1      13.601  14.322  30.914  0.00  0.00    +0.000 F 
ATOM      9  C   UNL     1      13.443  14.414  33.288  0.00  0.00    +0.000 A 
ATOM     10  C   UNL     1      13.740  13.903  34.548  0.00  0.00    +0.000 A 
ENDBRANCH   2   4
BRANCH   1  11
ATOM     11  N   UNL     1      16.209  10.634  37.244  0.00  0.00    +0.000 NA
BRANCH  11  15
ATOM     12  C   UNL     1      20.219  10.539  37.671  0.00  0.00    +0.000 C 
ATOM     13  C   UNL     1      19.465   9.572  38.768  0.00  0.00    +0.000 C 
ATOM     14  C   UNL     1      18.071  10.070  38.633  0.00  0.00    +0.000 C 
ATOM     15  C   UNL     1      17.562  10.156  37.425  0.00  0.00    +0.000 C 
ATOM     16  C   UNL     1      18.300   9.788  36.218  0.00  0.00    +0.000 C 
ATOM     17  C   UNL     1      19.772   9.624  36.387  0.00  0.00    +0.000 C 
BRANCH  12  19
ATOM     18  C   UNL     1      22.325   9.685  36.538  0.00  0.00    +0.000 C 
ATOM     19  C   UNL     1      21.679   9.829  37.859  0.00  0.00    +0.000 C 
ENDBRANCH  12  19
ENDBRANCH  11  15
ENDBRANCH   1  11
TORSDOF 4
ENDMDL
MODEL 2
REMARK VINA RESULT:      -6.9     20.277     23.195
REMARK  Name = 
REMARK  4 active torsions:
REMARK  status: ('A' for Active; 'I' for Inactive)
REMARK    1  A    between atoms: C_2  and  C_3
REMARK    2  A    between atoms: C_6  and  N_7
REMARK    3  A    between atoms: N_7  and  N_8
REMARK    4  A    between atoms: C_9  and  C_11
REMARK                            x       y       z     vdW  Elec       q    Type
REMARK                         _______ _______ _______ _____ _____    ______ ____
ROOT
ATOM      1  N   UNL     1      33.608  -2.916  33.048  0.00  0.00    +0.000 NA
ATOM      2  C   UNL     1      34.041  -2.049  34.070  0.00  0.00    +0.000 C 
ATOM      3  O   UNL     1      34.497  -2.518  35.120  0.00  0.00    +0.000 OA
ENDROOT
BRANCH   2   4
ATOM      4  C   UNL     1      33.926  -0.618  33.836  0.00  0.00    +0.000 A 
ATOM      5  C   UNL     1      33.466   0.203  34.847  0.00  0.00    +0.000 A 
ATOM      6  C   UNL     1      33.344   1.578  34.656  0.00  0.00    +0.000 A 
ATOM      7  C   UNL     1      33.678   2.168  33.457  0.00  0.00    +0.000 A 
ATOM      8  F   UNL     1      33.561   3.513  33.258  0.00  0.00    +0.000 F 
ATOM      9  C   UNL     1      34.137   1.348  32.450  0.00  0.00    +0.000 A 
ATOM     10  C   UNL     1      34.261  -0.027  32.634  0.00  0.00    +0.000 A 
ENDBRANCH   2   4
BRANCH   1  11
ATOM     11  N   UNL     1      33.691  -4.292  33.211  0.00  0.00    +0.000 NA
BRANCH  11  15
ATOM     12  C   UNL     1      34.163  -5.552  29.408  0.00  0.00    +0.000 C 
ATOM     13  C   UNL     1      34.954  -6.522  30.475  0.00  0.00    +0.000 C 
ATOM     14  C   UNL     1      34.924  -5.655  31.682  0.00  0.00    +0.000 C 
ATOM     15  C   UNL     1      33.770  -5.142  32.043  0.00  0.00    +0.000 C 
ATOM     16  C   UNL     1      32.525  -5.384  31.317  0.00  0.00    +0.000 C 
ATOM     17  C   UNL     1      32.676  -5.970  29.954  0.00  0.00    +0.000 C 
BRANCH  12  19
ATOM     18  C   UNL     1      34.756  -7.917  28.699  0.00  0.00    +0.000 C 
ATOM     19  C   UNL     1      34.191  -6.649  28.196  0.00  0.00    +0.000 C 
ENDBRANCH  12  19
ENDBRANCH  11  15
ENDBRANCH   1  11
TORSDOF 4
ENDMDL
MODEL 3
REMARK VINA RESULT:      -6.8      2.007      2.506
REMARK  Name = 
REMARK  4 active torsions:
REMARK  status: ('A' for Active; 'I' for Inactive)
REMARK    1  A    between atoms: C_2  and  C_3
REMARK    2  A    between atoms: C_6  and  N_7
REMARK    3  A    between atoms: N_7  and  N_8
REMARK    4  A    between atoms: C_9  and  C_11
REMARK                            x       y       z     vdW  Elec       q    Type
REMARK                         _______ _______ _______ _____ _____    ______ ____
ROOT
ATOM      1  N   UNL     1      16.286  10.706  35.296  0.00  0.00    +0.000 NA
ATOM      2  C   UNL     1      16.570  10.700  33.917  0.00  0.00    +0.000 C 
ATOM      3  O   UNL     1      17.520  10.033  33.489  0.00  0.00    +0.000 OA
ENDROOT
BRANCH   2   4
ATOM      4  C   UNL     1      15.715  11.494  33.047  0.00  0.00    +0.000 A 
ATOM      5  C   UNL     1      15.681  11.222  31.694  0.00  0.00    +0.000 A 
ATOM      6  C   UNL     1      14.872  11.964  30.834  0.00  0.00    +0.000 A 
ATOM      7  C   UNL     1      14.081  12.990  31.300  0.00  0.00    +0.000 A 
ATOM      8  F   UNL     1      13.287  13.724  30.467  0.00  0.00    +0.000 F 
ATOM      9  C   UNL     1      14.116  13.258  32.650  0.00  0.00    +0.000 A 
ATOM     10  C   UNL     1      14.921  12.522  33.515  0.00  0.00    +0.000 A 
ENDBRANCH   2   4
BRANCH   1  11
ATOM     11  N   UNL     1      17.065   9.970  36.178  0.00  0.00    +0.000 NA
BRANCH  11  15
ATOM     12  C   UNL     1      19.718  11.239  38.939  0.00  0.00    +0.000 C 
ATOM     13  C   UNL     1      20.466  10.568  37.637  0.00  0.00    +0.000 C 
ATOM     14  C   UNL     1      19.309   9.887  36.998  0.00  0.00    +0.000 C 
ATOM     15  C   UNL     1      18.217  10.589  36.797  0.00  0.00    +0.000 C 
ATOM     16  C   UNL     1      18.090  11.996  37.170  0.00  0.00    +0.000 C 
ATOM     17  C   UNL     1      19.138  12.516  38.093  0.00  0.00    +0.000 C 
BRANCH  12  19
ATOM     18  C   UNL     1      21.207  13.286  38.748  0.00  0.00    +0.000 C 
ATOM     19  C   UNL     1      21.058  12.008  39.473  0.00  0.00    +0.000 C 
ENDBRANCH  12  19
ENDBRANCH  11  15
ENDBRANCH   1  11
TORSDOF 4
ENDMDL
MODEL 4
REMARK VINA RESULT:      -6.8      2.212      3.253
REMARK  Name = 
REMARK  4 active torsions:
REMARK  status: ('A' for Active; 'I' for Inactive)
REMARK    1  A    between atoms: C_2  and  C_3
REMARK    2  A    between atoms: C_6  and  N_7
REMARK    3  A    between atoms: N_7  and  N_8
REMARK    4  A    between atoms: C_9  and  C_11
REMARK                            x       y       z     vdW  Elec       q    Type
REMARK                         _______ _______ _______ _____ _____    ______ ____
ROOT
ATOM      1  N   UNL     1      16.617  10.547  34.557  0.00  0.00    +0.000 NA
ATOM      2  C   UNL     1      16.603  10.560  33.149  0.00  0.00    +0.000 C 
ATOM      3  O   UNL     1      17.378   9.829  32.521  0.00  0.00    +0.000 OA
ENDROOT
BRANCH   2   4
ATOM      4  C   UNL     1      15.661  11.453  32.491  0.00  0.00    +0.000 A 
ATOM      5  C   UNL     1      15.420  11.311  31.139  0.00  0.00    +0.000 A 
ATOM      6  C   UNL     1      14.522  12.149  30.478  0.00  0.00    +0.000 A 
ATOM      7  C   UNL     1      13.846  13.144  31.146  0.00  0.00    +0.000 A 
ATOM      8  F   UNL     1      12.967  13.971  30.510  0.00  0.00    +0.000 F 
ATOM      9  C   UNL     1      14.088  13.283  32.495  0.00  0.00    +0.000 A 
ATOM     10  C   UNL     1      14.982  12.450  33.162  0.00  0.00    +0.000 A 
ENDBRANCH   2   4
BRANCH   1  11
ATOM     11  N   UNL     1      17.493   9.718  35.245  0.00  0.00    +0.000 NA
BRANCH  11  15
ATOM     12  C   UNL     1      17.771   9.147  39.229  0.00  0.00    +0.000 C 
ATOM     13  C   UNL     1      19.093   9.919  38.628  0.00  0.00    +0.000 C 
ATOM     14  C   UNL     1      18.901   9.668  37.176  0.00  0.00    +0.000 C 
ATOM     15  C   UNL     1      17.728   9.945  36.654  0.00  0.00    +0.000 C 
ATOM     16  C   UNL     1      16.613  10.484  37.431  0.00  0.00    +0.000 C 
ATOM     17  C   UNL     1      16.757  10.395  38.912  0.00  0.00    +0.000 C 
BRANCH  12  19
ATOM     18  C   UNL     1      16.961   9.097  41.634  0.00  0.00    +0.000 C 
ATOM     19  C   UNL     1      18.063   9.580  40.777  0.00  0.00    +0.000 C 
ENDBRANCH  12  19
ENDBRANCH  11  15
ENDBRANCH   1  11
TORSDOF 4
ENDMDL
MODEL 5
REMARK VINA RESULT:      -6.7     20.242     23.139
REMARK  Name = 
REMARK  4 active torsions:
REMARK  status: ('A' for Active; 'I' for Inactive)
REMARK    1  A    between atoms: C_2  and  C_3
REMARK    2  A    between atoms: C_6  and  N_7
REMARK    3  A    between atoms: N_7  and  N_8
REMARK    4  A    between atoms: C_9  and  C_11
REMARK                            x       y       z     vdW  Elec       q    Type
REMARK                         _______ _______ _______ _____ _____    ______ ____
ROOT
ATOM      1  N   UNL     1      33.608  -2.806  33.054  0.00  0.00    +0.000 NA
ATOM      2  C   UNL     1      33.586  -4.202  33.236  0.00  0.00    +0.000 C 
ATOM      3  O   UNL     1      33.252  -4.673  34.330  0.00  0.00    +0.000 OA
ENDROOT
BRANCH   2   4
ATOM      4  C   UNL     1      33.966  -5.037  32.107  0.00  0.00    +0.000 A 
ATOM      5  C   UNL     1      33.244  -4.963  30.932  0.00  0.00    +0.000 A 
ATOM      6  C   UNL     1      33.583  -5.748  29.831  0.00  0.00    +0.000 A 
ATOM      7  C   UNL     1      34.646  -6.623  29.873  0.00  0.00    +0.000 A 
ATOM      8  F   UNL     1      34.986  -7.398  28.803  0.00  0.00    +0.000 F 
ATOM      9  C   UNL     1      35.365  -6.694  31.046  0.00  0.00    +0.000 A 
ATOM     10  C   UNL     1      35.033  -5.913  32.149  0.00  0.00    +0.000 A 
ENDBRANCH   2   4
BRANCH   1  11
ATOM     11  N   UNL     1      33.257  -1.955  34.094  0.00  0.00    +0.000 NA
BRANCH  11  15
ATOM     12  C   UNL     1      33.070   2.038  33.553  0.00  0.00    +0.000 C 
ATOM     13  C   UNL     1      33.849   1.646  34.948  0.00  0.00    +0.000 C 
ATOM     14  C   UNL     1      33.456   0.218  35.070  0.00  0.00    +0.000 C 
ATOM     15  C   UNL     1      33.625  -0.558  34.023  0.00  0.00    +0.000 C 
ATOM     16  C   UNL     1      34.175  -0.083  32.755  0.00  0.00    +0.000 C 
ATOM     17  C   UNL     1      34.231   1.398  32.590  0.00  0.00    +0.000 C 
BRANCH  12  19
ATOM     18  C   UNL     1      33.886   4.041  34.882  0.00  0.00    +0.000 C 
ATOM     19  C   UNL     1      33.658   3.562  33.503  0.00  0.00    +0.000 C 
ENDBRANCH  12  19
ENDBRANCH  11  15
ENDBRANCH   1  11
TORSDOF 4
ENDMDL
MODEL 6
REMARK VINA RESULT:      -6.7      1.639      2.240
REMARK  Name = 
REMARK  4 active torsions:
REMARK  status: ('A' for Active; 'I' for Inactive)
REMARK    1  A    between atoms: C_2  and  C_3
REMARK    2  A    between atoms: C_6  and  N_7
REMARK    3  A    between atoms: N_7  and  N_8
REMARK    4  A    between atoms: C_9  and  C_11
REMARK                            x       y       z     vdW  Elec       q    Type
REMARK                         _______ _______ _______ _____ _____    ______ ____
ROOT
ATOM      1  N   UNL     1      16.865  10.324  35.997  0.00  0.00    +0.000 NA
ATOM      2  C   UNL     1      16.628  11.540  35.328  0.00  0.00    +0.000 C 
ATOM      3  O   UNL     1      16.870  12.611  35.898  0.00  0.00    +0.000 OA
ENDROOT
BRANCH   2   4
ATOM      4  C   UNL     1      16.096  11.475  33.975  0.00  0.00    +0.000 A 
ATOM      5  C   UNL     1      15.068  12.319  33.607  0.00  0.00    +0.000 A 
ATOM      6  C   UNL     1      14.537  12.283  32.318  0.00  0.00    +0.000 A 
ATOM      7  C   UNL     1      15.017  11.409  31.369  0.00  0.00    +0.000 A 
ATOM      8  F   UNL     1      14.504  11.363  30.105  0.00  0.00    +0.000 F 
ATOM      9  C   UNL     1      16.044  10.568  31.739  0.00  0.00    +0.000 A 
ATOM     10  C   UNL     1      16.579  10.599  33.024  0.00  0.00    +0.000 A 
ENDBRANCH   2   4
BRANCH   1  11
ATOM     11  N   UNL     1      17.370  10.319  37.290  0.00  0.00    +0.000 NA
BRANCH  11  15
ATOM     12  C   UNL     1      21.364  10.736  37.675  0.00  0.00    +0.000 C 
ATOM     13  C   UNL     1      20.727   9.815  38.880  0.00  0.00    +0.000 C 
ATOM     14  C   UNL     1      19.284  10.130  38.710  0.00  0.00    +0.000 C 
ATOM     15  C   UNL     1      18.769  10.023  37.506  0.00  0.00    +0.000 C 
ATOM     16  C   UNL     1      19.546   9.614  36.337  0.00  0.00    +0.000 C 
ATOM     17  C   UNL     1      21.027   9.641  36.504  0.00  0.00    +0.000 C 
BRANCH  12  19
ATOM     18  C   UNL     1      23.368   9.502  36.723  0.00  0.00    +0.000 C 
ATOM     19  C   UNL     1      22.897  10.226  37.922  0.00  0.00    +0.000 C 
ENDBRANCH  12  19
ENDBRANCH  11  15
ENDBRANCH   1  11
TORSDOF 4
ENDMDL
MODEL 7
REMARK VINA RESULT:      -6.6      2.725      4.171
REMARK  Name = 
REMARK  4 active torsions:
REMARK  status: ('A' for Active; 'I' for Inactive)
REMARK    1  A    between atoms: C_2  and  C_3
REMARK    2  A    between atoms: C_6  and  N_7
REMARK    3  A    between atoms: N_7  and  N_8
REMARK    4  A    between atoms: C_9  and  C_11
REMARK                            x       y       z     vdW  Elec       q    Type
REMARK                         _______ _______ _______ _____ _____    ______ ____
ROOT
ATOM      1  N   UNL     1      17.943  10.377  36.614  0.00  0.00    +0.000 NA
ATOM      2  C   UNL     1      17.507   9.725  35.444  0.00  0.00    +0.000 C 
ATOM      3  O   UNL     1      17.788   8.533  35.266  0.00  0.00    +0.000 OA
ENDROOT
BRANCH   2   4
ATOM      4  C   UNL     1      16.737  10.501  34.485  0.00  0.00    +0.000 A 
ATOM      5  C   UNL     1      15.794  11.402  34.938  0.00  0.00    +0.000 A 
ATOM      6  C   UNL     1      15.040  12.162  34.046  0.00  0.00    +0.000 A 
ATOM      7  C   UNL     1      15.206  12.043  32.684  0.00  0.00    +0.000 A 
ATOM      8  F   UNL     1      14.473  12.780  31.801  0.00  0.00    +0.000 F 
ATOM      9  C   UNL     1      16.147  11.143  32.234  0.00  0.00    +0.000 A 
ATOM     10  C   UNL     1      16.904  10.382  33.120  0.00  0.00    +0.000 A 
ENDBRANCH   2   4
BRANCH   1  11
ATOM     11  N   UNL     1      18.684   9.692  37.568  0.00  0.00    +0.000 NA
BRANCH  11  15
ATOM     12  C   UNL     1      17.714   9.427  41.474  0.00  0.00    +0.000 C 
ATOM     13  C   UNL     1      16.379   9.481  40.516  0.00  0.00    +0.000 C 
ATOM     14  C   UNL     1      16.994   9.935  39.242  0.00  0.00    +0.000 C 
ATOM     15  C   UNL     1      18.050   9.287  38.803  0.00  0.00    +0.000 C 
ATOM     16  C   UNL     1      18.641   8.151  39.507  0.00  0.00    +0.000 C 
ATOM     17  C   UNL     1      18.196   7.963  40.918  0.00  0.00    +0.000 C 
BRANCH  12  19
ATOM     18  C   UNL     1      16.002   7.763  42.337  0.00  0.00    +0.000 C 
ATOM     19  C   UNL     1      16.915   8.839  42.773  0.00  0.00    +0.000 C 
ENDBRANCH  12  19
ENDBRANCH  11  15
ENDBRANCH   1  11
TORSDOF 4
ENDMDL
MODEL 8
REMARK VINA RESULT:      -6.5      1.682      2.506
REMARK  Name = 
REMARK  4 active torsions:
REMARK  status: ('A' for Active; 'I' for Inactive)
REMARK    1  A    between atoms: C_2  and  C_3
REMARK    2  A    between atoms: C_6  and  N_7
REMARK    3  A    between atoms: N_7  and  N_8
REMARK    4  A    between atoms: C_9  and  C_11
REMARK                            x       y       z     vdW  Elec       q    Type
REMARK                         _______ _______ _______ _____ _____    ______ ____
ROOT
ATOM      1  N   UNL     1      16.533  10.861  35.504  0.00  0.00    +0.000 NA
ATOM      2  C   UNL     1      15.386  11.598  35.154  0.00  0.00    +0.000 C 
ATOM      3  O   UNL     1      14.557  11.892  36.023  0.00  0.00    +0.000 OA
ENDROOT
BRANCH   2   4
ATOM      4  C   UNL     1      15.230  11.983  33.759  0.00  0.00    +0.000 A 
ATOM      5  C   UNL     1      14.333  12.978  33.424  0.00  0.00    +0.000 A 
ATOM      6  C   UNL     1      14.160  13.372  32.098  0.00  0.00    +0.000 A 
ATOM      7  C   UNL     1      14.874  12.784  31.077  0.00  0.00    +0.000 A 
ATOM      8  F   UNL     1      14.711  13.159  29.775  0.00  0.00    +0.000 F 
ATOM      9  C   UNL     1      15.768  11.792  31.414  0.00  0.00    +0.000 A 
ATOM     10  C   UNL     1      15.946  11.395  32.736  0.00  0.00    +0.000 A 
ENDBRANCH   2   4
BRANCH   1  11
ATOM     11  N   UNL     1      16.740  10.462  36.818  0.00  0.00    +0.000 NA
BRANCH  11  15
ATOM     12  C   UNL     1      20.356  11.680  38.128  0.00  0.00    +0.000 C 
ATOM     13  C   UNL     1      19.268  12.913  38.104  0.00  0.00    +0.000 C 
ATOM     14  C   UNL     1      18.202  12.300  37.271  0.00  0.00    +0.000 C 
ATOM     15  C   UNL     1      17.777  11.101  37.599  0.00  0.00    +0.000 C 
ATOM     16  C   UNL     1      18.303  10.350  38.738  0.00  0.00    +0.000 C 
ATOM     17  C   UNL     1      19.578  10.863  39.316  0.00  0.00    +0.000 C 
BRANCH  12  19
ATOM     18  C   UNL     1      20.838  13.767  39.492  0.00  0.00    +0.000 C 
ATOM     19  C   UNL     1      21.395  12.447  39.130  0.00  0.00    +0.000 C 
ENDBRANCH  12  19
ENDBRANCH  11  15
ENDBRANCH   1  11
TORSDOF 4
ENDMDL
MODEL 9
REMARK VINA RESULT:      -6.5      2.154      2.996
REMARK  Name = 
REMARK  4 active torsions:
REMARK  status: ('A' for Active; 'I' for Inactive)
REMARK    1  A    between atoms: C_2  and  C_3
REMARK    2  A    between atoms: C_6  and  N_7
REMARK    3  A    between atoms: N_7  and  N_8
REMARK    4  A    between atoms: C_9  and  C_11
REMARK                            x       y       z     vdW  Elec       q    Type
REMARK                         _______ _______ _______ _____ _____    ______ ____
ROOT
ATOM      1  N   UNL     1      18.136  10.357  36.733  0.00  0.00    +0.000 NA
ATOM      2  C   UNL     1      17.549   9.732  35.616  0.00  0.00    +0.000 C 
ATOM      3  O   UNL     1      17.732   8.523  35.423  0.00  0.00    +0.000 OA
ENDROOT
BRANCH   2   4
ATOM      4  C   UNL     1      16.744  10.554  34.726  0.00  0.00    +0.000 A 
ATOM      5  C   UNL     1      16.924  10.457  33.360  0.00  0.00    +0.000 A 
ATOM      6  C   UNL     1      16.168  11.230  32.480  0.00  0.00    +0.000 A 
ATOM      7  C   UNL     1      15.217  12.115  32.938  0.00  0.00    +0.000 A 
ATOM      8  F   UNL     1      14.472  12.878  32.086  0.00  0.00    +0.000 F 
ATOM      9  C   UNL     1      15.039  12.209  34.300  0.00  0.00    +0.000 A 
ATOM     10  C   UNL     1      15.790  11.440  35.185  0.00  0.00    +0.000 A 
ENDBRANCH   2   4
BRANCH   1  11
ATOM     11  N   UNL     1      18.917   9.627  37.618  0.00  0.00    +0.000 NA
BRANCH  11  15
ATOM     12  C   UNL     1      22.583  11.297  37.410  0.00  0.00    +0.000 C 
ATOM     13  C   UNL     1      22.470  10.224  38.652  0.00  0.00    +0.000 C 
ATOM     14  C   UNL     1      20.994  10.062  38.718  0.00  0.00    +0.000 C 
ATOM     15  C   UNL     1      20.353   9.794  37.603  0.00  0.00    +0.000 C 
ATOM     16  C   UNL     1      21.021   9.651  36.311  0.00  0.00    +0.000 C 
ATOM     17  C   UNL     1      22.425  10.149  36.252  0.00  0.00    +0.000 C 
BRANCH  12  19
ATOM     18  C   UNL     1      24.699  10.262  36.463  0.00  0.00    +0.000 C 
ATOM     19  C   UNL     1      24.217  11.303  37.395  0.00  0.00    +0.000 C 
ENDBRANCH  12  19
ENDBRANCH  11  15
ENDBRANCH   1  11
TORSDOF 4
ENDMDL
MODEL 10
REMARK VINA RESULT:      -6.4     18.849     20.490
REMARK  Name = 
REMARK  4 active torsions:
REMARK  status: ('A' for Active; 'I' for Inactive)
REMARK    1  A    between atoms: C_2  and  C_3
REMARK    2  A    between atoms: C_6  and  N_7
REMARK    3  A    between atoms: N_7  and  N_8
REMARK    4  A    between atoms: C_9  and  C_11
REMARK                            x       y       z     vdW  Elec       q    Type
REMARK                         _______ _______ _______ _____ _____    ______ ____
ROOT
ATOM      1  N   UNL     1      33.361   2.067  34.065  0.00  0.00    +0.000 NA
ATOM      2  C   UNL     1      33.624   0.913  33.302  0.00  0.00    +0.000 C 
ATOM      3  O   UNL     1      34.168   1.020  32.196  0.00  0.00    +0.000 OA
ENDROOT
BRANCH   2   4
ATOM      4  C   UNL     1      33.231  -0.372  33.862  0.00  0.00    +0.000 A 
ATOM      5  C   UNL     1      33.846  -1.525  33.415  0.00  0.00    +0.000 A 
ATOM      6  C   UNL     1      33.494  -2.772  33.931  0.00  0.00    +0.000 A 
ATOM      7  C   UNL     1      32.526  -2.898  34.902  0.00  0.00    +0.000 A 
ATOM      8  F   UNL     1      32.172  -4.113  35.413  0.00  0.00    +0.000 F 
ATOM      9  C   UNL     1      31.915  -1.746  35.346  0.00  0.00    +0.000 A 
ATOM     10  C   UNL     1      32.261  -0.499  34.835  0.00  0.00    +0.000 A 
ENDBRANCH   2   4
BRANCH   1  11
ATOM     11  N   UNL     1      33.710   3.322  33.587  0.00  0.00    +0.000 NA
BRANCH  11  15
ATOM     12  C   UNL     1      35.441   6.570  35.237  0.00  0.00    +0.000 C 
ATOM     13  C   UNL     1      33.814   6.554  35.483  0.00  0.00    +0.000 C 
ATOM     14  C   UNL     1      33.416   5.511  34.501  0.00  0.00    +0.000 C 
ATOM     15  C   UNL     1      34.062   4.367  34.523  0.00  0.00    +0.000 C 
ATOM     16  C   UNL     1      35.144   4.077  35.461  0.00  0.00    +0.000 C 
ATOM     17  C   UNL     1      35.712   5.255  36.176  0.00  0.00    +0.000 C 
BRANCH  12  19
ATOM     18  C   UNL     1      34.506   8.436  36.684  0.00  0.00    +0.000 C 
ATOM     19  C   UNL     1      35.736   7.662  36.418  0.00  0.00    +0.000 C 
ENDBRANCH  12  19
ENDBRANCH  11  15
ENDBRANCH   1  11
TORSDOF 4
ENDMDL
