MODEL 1
REMARK VINA RESULT:      -8.4      0.000      0.000
REMARK  Name = 
REMARK  7 active torsions:
REMARK  status: ('A' for Active; 'I' for Inactive)
REMARK    1  A    between atoms: C_5  and  C_6
REMARK    2  A    between atoms: C_9  and  S_10
REMARK    3  A    between atoms: S_10  and  C_11
REMARK    4  A    between atoms: C_11  and  C_12
REMARK    5  A    between atoms: C_15  and  C_16
REMARK    6  A    between atoms: N_18  and  C_19
REMARK    7  A    between atoms: C_19  and  C_21
REMARK                            x       y       z     vdW  Elec       q    Type
REMARK                         _______ _______ _______ _____ _____    ______ ____
ROOT
ATOM      1  C   UNL     1      35.253   4.387  14.210  0.00  0.00    +0.000 C 
ENDROOT
BRANCH   1   2
ATOM      2  C   UNL     1      35.311   3.076  14.891  0.00  0.00    +0.000 A 
ATOM      3  C   UNL     1      34.761   2.686  16.067  0.00  0.00    +0.000 A 
ATOM      4  C   UNL     1      34.990   1.365  16.532  0.00  0.00    +0.000 A 
ATOM      5  C   UNL     1      35.728   0.489  15.859  0.00  0.00    +0.000 A 
ATOM      6  C   UNL     1      36.306   0.881  14.646  0.00  0.00    +0.000 A 
ATOM      7  C   UNL     1      36.093   2.133  14.192  0.00  0.00    +0.000 A 
BRANCH   5   8
ATOM      8  C   UNL     1      36.065  -0.917  16.168  0.00  0.00    +0.000 C 
ATOM      9  O   UNL     1      35.463  -1.913  15.799  0.00  0.00    +0.000 OA
ATOM     10  N   UNL     1      37.208  -1.220  16.970  0.00  0.00    +0.000 NA
BRANCH  10  11
ATOM     11  C   UNL     1      37.542  -2.719  17.253  0.00  0.00    +0.000 C 
ATOM     12  C   UNL     1      38.895  -2.723  16.307  0.00  0.00    +0.000 C 
BRANCH  11  13
ATOM     13  C   UNL     1      38.375  -2.415  18.650  0.00  0.00    +0.000 C 
ATOM     14  C   UNL     1      38.764  -3.763  19.171  0.00  0.00    +0.000 C 
ATOM     15  C   UNL     1      37.224  -1.927  19.523  0.00  0.00    +0.000 C 
ENDBRANCH  11  13
ENDBRANCH  10  11
ENDBRANCH   5   8
ENDBRANCH   1   2
BRANCH   1  16
ATOM     16  S   UNL     1      36.910   4.786  13.624  0.00  0.00    +0.000 S 
BRANCH  16  20
ATOM     17  C   UNL     1      39.753   5.656  17.085  0.00  0.00    +0.000 A 
ATOM     18  C   UNL     1      38.616   4.944  17.363  0.00  0.00    +0.000 A 
ATOM     19  C   UNL     1      37.782   4.635  16.291  0.00  0.00    +0.000 A 
ATOM     20  C   UNL     1      38.031   4.989  14.999  0.00  0.00    +0.000 A 
ATOM     21  N   UNL     1      39.187   5.692  14.811  0.00  0.00    +0.000 NA
ATOM     22  N   UNL     1      39.992   6.007  15.795  0.00  0.00    +0.000 NA
BRANCH  17  27
ATOM     23  C   UNL     1      43.312   7.278  21.267  0.00  0.00    +0.000 C 
ATOM     24  C   UNL     1      42.392   6.885  20.155  0.00  0.00    +0.000 A 
ATOM     25  C   UNL     1      41.062   6.552  20.428  0.00  0.00    +0.000 A 
ATOM     26  C   UNL     1      40.171   6.162  19.472  0.00  0.00    +0.000 A 
ATOM     27  C   UNL     1      40.650   6.102  18.152  0.00  0.00    +0.000 A 
ATOM     28  C   UNL     1      41.941   6.416  17.838  0.00  0.00    +0.000 A 
ATOM     29  C   UNL     1      42.793   6.807  18.854  0.00  0.00    +0.000 A 
ENDBRANCH  17  27
ENDBRANCH  16  20
ENDBRANCH   1  16
TORSDOF 7
ENDMDL
MODEL 2
REMARK VINA RESULT:      -8.2      1.247      1.784
REMARK  Name = 
REMARK  7 active torsions:
REMARK  status: ('A' for Active; 'I' for Inactive)
REMARK    1  A    between atoms: C_5  and  C_6
REMARK    2  A    between atoms: C_9  and  S_10
REMARK    3  A    between atoms: S_10  and  C_11
REMARK    4  A    between atoms: C_11  and  C_12
REMARK    5  A    between atoms: C_15  and  C_16
REMARK    6  A    between atoms: N_18  and  C_19
REMARK    7  A    between atoms: C_19  and  C_21
REMARK                            x       y       z     vdW  Elec       q    Type
REMARK                         _______ _______ _______ _____ _____    ______ ____
ROOT
ATOM      1  C   UNL     1      35.524   4.024  14.096  0.00  0.00    +0.000 C 
ENDROOT
BRANCH   1   2
ATOM      2  C   UNL     1      35.347   2.808  14.919  0.00  0.00    +0.000 A 
ATOM      3  C   UNL     1      34.742   2.657  16.123  0.00  0.00    +0.000 A 
ATOM      4  C   UNL     1      34.730   1.378  16.735  0.00  0.00    +0.000 A 
ATOM      5  C   UNL     1      35.293   0.313  16.175  0.00  0.00    +0.000 A 
ATOM      6  C   UNL     1      35.926   0.456  14.935  0.00  0.00    +0.000 A 
ATOM      7  C   UNL     1      35.942   1.667  14.341  0.00  0.00    +0.000 A 
BRANCH   5   8
ATOM      8  C   UNL     1      35.371  -1.087  16.643  0.00  0.00    +0.000 C 
ATOM      9  O   UNL     1      35.073  -1.508  17.749  0.00  0.00    +0.000 OA
ATOM     10  N   UNL     1      35.827  -2.114  15.758  0.00  0.00    +0.000 NA
BRANCH  10  11
ATOM     11  C   UNL     1      35.872  -3.583  16.285  0.00  0.00    +0.000 C 
ATOM     12  C   UNL     1      34.860  -4.163  15.116  0.00  0.00    +0.000 C 
BRANCH  11  13
ATOM     13  C   UNL     1      37.248  -3.984  15.459  0.00  0.00    +0.000 C 
ATOM     14  C   UNL     1      38.326  -3.144  16.071  0.00  0.00    +0.000 C 
ATOM     15  C   UNL     1      36.920  -3.354  14.110  0.00  0.00    +0.000 C 
ENDBRANCH  11  13
ENDBRANCH  10  11
ENDBRANCH   5   8
ENDBRANCH   1   2
BRANCH   1  16
ATOM     16  S   UNL     1      37.247   4.098  13.573  0.00  0.00    +0.000 S 
BRANCH  16  20
ATOM     17  C   UNL     1      39.900   5.474  17.020  0.00  0.00    +0.000 A 
ATOM     18  C   UNL     1      38.827   4.678  17.325  0.00  0.00    +0.000 A 
ATOM     19  C   UNL     1      38.056   4.217  16.261  0.00  0.00    +0.000 A 
ATOM     20  C   UNL     1      38.306   4.502  14.953  0.00  0.00    +0.000 A 
ATOM     21  N   UNL     1      39.396   5.298  14.738  0.00  0.00    +0.000 NA
ATOM     22  N   UNL     1      40.140   5.755  15.713  0.00  0.00    +0.000 NA
BRANCH  17  27
ATOM     23  C   UNL     1      43.168   7.714  21.154  0.00  0.00    +0.000 C 
ATOM     24  C   UNL     1      42.324   7.158  20.052  0.00  0.00    +0.000 A 
ATOM     25  C   UNL     1      40.993   6.806  20.296  0.00  0.00    +0.000 A 
ATOM     26  C   UNL     1      40.170   6.271  19.349  0.00  0.00    +0.000 A 
ATOM     27  C   UNL     1      40.721   6.077  18.071  0.00  0.00    +0.000 A 
ATOM     28  C   UNL     1      42.016   6.404  17.787  0.00  0.00    +0.000 A 
ATOM     29  C   UNL     1      42.799   6.944  18.792  0.00  0.00    +0.000 A 
ENDBRANCH  17  27
ENDBRANCH  16  20
ENDBRANCH   1  16
TORSDOF 7
ENDMDL
MODEL 3
REMARK VINA RESULT:      -7.8      2.831      8.952
REMARK  Name = 
REMARK  7 active torsions:
REMARK  status: ('A' for Active; 'I' for Inactive)
REMARK    1  A    between atoms: C_5  and  C_6
REMARK    2  A    between atoms: C_9  and  S_10
REMARK    3  A    between atoms: S_10  and  C_11
REMARK    4  A    between atoms: C_11  and  C_12
REMARK    5  A    between atoms: C_15  and  C_16
REMARK    6  A    between atoms: N_18  and  C_19
REMARK    7  A    between atoms: C_19  and  C_21
REMARK                            x       y       z     vdW  Elec       q    Type
REMARK                         _______ _______ _______ _____ _____    ______ ____
ROOT
ATOM      1  C   UNL     1      38.816   4.634  14.677  0.00  0.00    +0.000 C 
ENDROOT
BRANCH   1   2
ATOM      2  C   UNL     1      39.119   4.967  16.086  0.00  0.00    +0.000 A 
ATOM      3  C   UNL     1      38.455   4.627  17.218  0.00  0.00    +0.000 A 
ATOM      4  C   UNL     1      38.930   5.103  18.466  0.00  0.00    +0.000 A 
ATOM      5  C   UNL     1      40.007   5.875  18.574  0.00  0.00    +0.000 A 
ATOM      6  C   UNL     1      40.698   6.237  17.412  0.00  0.00    +0.000 A 
ATOM      7  C   UNL     1      40.258   5.789  16.219  0.00  0.00    +0.000 A 
BRANCH   5   8
ATOM      8  C   UNL     1      40.657   6.451  19.769  0.00  0.00    +0.000 C 
ATOM      9  O   UNL     1      40.107   6.994  20.715  0.00  0.00    +0.000 OA
ATOM     10  N   UNL     1      42.079   6.395  19.909  0.00  0.00    +0.000 NA
BRANCH  10  11
ATOM     11  C   UNL     1      42.724   6.994  21.198  0.00  0.00    +0.000 C 
ATOM     12  C   UNL     1      43.692   5.684  21.470  0.00  0.00    +0.000 C 
BRANCH  11  13
ATOM     13  C   UNL     1      43.894   7.839  20.388  0.00  0.00    +0.000 C 
ATOM     14  C   UNL     1      44.519   6.844  19.461  0.00  0.00    +0.000 C 
ATOM     15  C   UNL     1      44.883   8.049  21.530  0.00  0.00    +0.000 C 
ENDBRANCH  11  13
ENDBRANCH  10  11
ENDBRANCH   5   8
ENDBRANCH   1   2
BRANCH   1  16
ATOM     16  S   UNL     1      37.134   3.992  14.603  0.00  0.00    +0.000 S 
BRANCH  16  20
ATOM     17  C   UNL     1      37.272  -0.459  15.594  0.00  0.00    +0.000 A 
ATOM     18  C   UNL     1      36.043   0.101  15.367  0.00  0.00    +0.000 A 
ATOM     19  C   UNL     1      36.015   1.447  15.010  0.00  0.00    +0.000 A 
ATOM     20  C   UNL     1      37.123   2.226  14.869  0.00  0.00    +0.000 A 
ATOM     21  N   UNL     1      38.307   1.587  15.110  0.00  0.00    +0.000 NA
ATOM     22  N   UNL     1      38.372   0.325  15.453  0.00  0.00    +0.000 NA
BRANCH  17  27
ATOM     23  C   UNL     1      37.817  -5.906  17.274  0.00  0.00    +0.000 C 
ATOM     24  C   UNL     1      37.695  -4.473  16.865  0.00  0.00    +0.000 A 
ATOM     25  C   UNL     1      36.441  -3.935  16.557  0.00  0.00    +0.000 A 
ATOM     26  C   UNL     1      36.253  -2.645  16.155  0.00  0.00    +0.000 A 
ATOM     27  C   UNL     1      37.403  -1.842  16.054  0.00  0.00    +0.000 A 
ATOM     28  C   UNL     1      38.647  -2.325  16.343  0.00  0.00    +0.000 A 
ATOM     29  C   UNL     1      38.769  -3.642  16.747  0.00  0.00    +0.000 A 
ENDBRANCH  17  27
ENDBRANCH  16  20
ENDBRANCH   1  16
TORSDOF 7
ENDMDL
MODEL 4
REMARK VINA RESULT:      -7.8      3.468      9.662
REMARK  Name = 
REMARK  7 active torsions:
REMARK  status: ('A' for Active; 'I' for Inactive)
REMARK    1  A    between atoms: C_5  and  C_6
REMARK    2  A    between atoms: C_9  and  S_10
REMARK    3  A    between atoms: S_10  and  C_11
REMARK    4  A    between atoms: C_11  and  C_12
REMARK    5  A    between atoms: C_15  and  C_16
REMARK    6  A    between atoms: N_18  and  C_19
REMARK    7  A    between atoms: C_19  and  C_21
REMARK                            x       y       z     vdW  Elec       q    Type
REMARK                         _______ _______ _______ _____ _____    ______ ____
ROOT
ATOM      1  C   UNL     1      38.542   5.480  17.928  0.00  0.00    +0.000 C 
ENDROOT
BRANCH   1   2
ATOM      2  C   UNL     1      39.915   5.935  18.236  0.00  0.00    +0.000 A 
ATOM      3  C   UNL     1      40.960   6.160  17.402  0.00  0.00    +0.000 A 
ATOM      4  C   UNL     1      42.204   6.567  17.949  0.00  0.00    +0.000 A 
ATOM      5  C   UNL     1      42.390   6.736  19.254  0.00  0.00    +0.000 A 
ATOM      6  C   UNL     1      41.321   6.501  20.126  0.00  0.00    +0.000 A 
ATOM      7  C   UNL     1      40.132   6.117  19.618  0.00  0.00    +0.000 A 
BRANCH   5   8
ATOM      8  C   UNL     1      43.591   7.163  20.003  0.00  0.00    +0.000 C 
ATOM      9  O   UNL     1      44.406   8.006  19.664  0.00  0.00    +0.000 OA
ATOM     10  N   UNL     1      43.889   6.577  21.272  0.00  0.00    +0.000 NA
BRANCH  10  11
ATOM     11  C   UNL     1      45.154   7.073  22.042  0.00  0.00    +0.000 C 
ATOM     12  C   UNL     1      44.288   7.776  23.260  0.00  0.00    +0.000 C 
BRANCH  11  13
ATOM     13  C   UNL     1      45.383   5.655  22.862  0.00  0.00    +0.000 C 
ATOM     14  C   UNL     1      44.689   4.615  22.039  0.00  0.00    +0.000 C 
ATOM     15  C   UNL     1      44.490   5.921  24.069  0.00  0.00    +0.000 C 
ENDBRANCH  11  13
ENDBRANCH  10  11
ENDBRANCH   5   8
ENDBRANCH   1   2
BRANCH   1  16
ATOM     16  S   UNL     1      38.465   5.087  16.171  0.00  0.00    +0.000 S 
BRANCH  16  20
ATOM     17  C   UNL     1      36.640   0.930  15.723  0.00  0.00    +0.000 A 
ATOM     18  C   UNL     1      35.836   1.926  16.213  0.00  0.00    +0.000 A 
ATOM     19  C   UNL     1      36.384   3.203  16.293  0.00  0.00    +0.000 A 
ATOM     20  C   UNL     1      37.654   3.518  15.913  0.00  0.00    +0.000 A 
ATOM     21  N   UNL     1      38.385   2.468  15.432  0.00  0.00    +0.000 NA
ATOM     22  N   UNL     1      37.905   1.253  15.348  0.00  0.00    +0.000 NA
BRANCH  17  27
ATOM     23  C   UNL     1      34.945  -4.538  15.639  0.00  0.00    +0.000 C 
ATOM     24  C   UNL     1      35.352  -3.100  15.661  0.00  0.00    +0.000 A 
ATOM     25  C   UNL     1      36.268  -2.614  14.723  0.00  0.00    +0.000 A 
ATOM     26  C   UNL     1      36.704  -1.322  14.696  0.00  0.00    +0.000 A 
ATOM     27  C   UNL     1      36.185  -0.460  15.677  0.00  0.00    +0.000 A 
ATOM     28  C   UNL     1      35.290  -0.890  16.614  0.00  0.00    +0.000 A 
ATOM     29  C   UNL     1      34.886  -2.213  16.586  0.00  0.00    +0.000 A 
ENDBRANCH  17  27
ENDBRANCH  16  20
ENDBRANCH   1  16
TORSDOF 7
ENDMDL
MODEL 5
REMARK VINA RESULT:      -7.6      1.655      2.420
REMARK  Name = 
REMARK  7 active torsions:
REMARK  status: ('A' for Active; 'I' for Inactive)
REMARK    1  A    between atoms: C_5  and  C_6
REMARK    2  A    between atoms: C_9  and  S_10
REMARK    3  A    between atoms: S_10  and  C_11
REMARK    4  A    between atoms: C_11  and  C_12
REMARK    5  A    between atoms: C_15  and  C_16
REMARK    6  A    between atoms: N_18  and  C_19
REMARK    7  A    between atoms: C_19  and  C_21
REMARK                            x       y       z     vdW  Elec       q    Type
REMARK                         _______ _______ _______ _____ _____    ______ ____
ROOT
ATOM      1  C   UNL     1      36.797   3.722  12.743  0.00  0.00    +0.000 C 
ENDROOT
BRANCH   1   2
ATOM      2  C   UNL     1      37.367   2.545  13.436  0.00  0.00    +0.000 A 
ATOM      3  C   UNL     1      38.646   2.098  13.474  0.00  0.00    +0.000 A 
ATOM      4  C   UNL     1      38.942   0.910  14.190  0.00  0.00    +0.000 A 
ATOM      5  C   UNL     1      38.010   0.210  14.828  0.00  0.00    +0.000 A 
ATOM      6  C   UNL     1      36.684   0.657  14.791  0.00  0.00    +0.000 A 
ATOM      7  C   UNL     1      36.390   1.788  14.116  0.00  0.00    +0.000 A 
BRANCH   5   8
ATOM      8  C   UNL     1      38.121  -1.027  15.629  0.00  0.00    +0.000 C 
ATOM      9  O   UNL     1      38.964  -1.279  16.476  0.00  0.00    +0.000 OA
ATOM     10  N   UNL     1      37.172  -2.081  15.455  0.00  0.00    +0.000 NA
BRANCH  10  11
ATOM     11  C   UNL     1      37.312  -3.362  16.337  0.00  0.00    +0.000 C 
ATOM     12  C   UNL     1      35.918  -3.083  17.178  0.00  0.00    +0.000 C 
BRANCH  11  13
ATOM     13  C   UNL     1      36.589  -4.367  15.240  0.00  0.00    +0.000 C 
ATOM     14  C   UNL     1      35.427  -3.587  14.707  0.00  0.00    +0.000 C 
ATOM     15  C   UNL     1      36.012  -5.404  16.197  0.00  0.00    +0.000 C 
ENDBRANCH  11  13
ENDBRANCH  10  11
ENDBRANCH   5   8
ENDBRANCH   1   2
BRANCH   1  16
ATOM     16  S   UNL     1      36.346   4.940  13.991  0.00  0.00    +0.000 S 
BRANCH  16  20
ATOM     17  C   UNL     1      39.563   5.696  17.136  0.00  0.00    +0.000 A 
ATOM     18  C   UNL     1      38.635   4.723  17.400  0.00  0.00    +0.000 A 
ATOM     19  C   UNL     1      37.691   4.461  16.411  0.00  0.00    +0.000 A 
ATOM     20  C   UNL     1      37.641   5.101  15.210  0.00  0.00    +0.000 A 
ATOM     21  N   UNL     1      38.605   6.052  15.027  0.00  0.00    +0.000 NA
ATOM     22  N   UNL     1      39.504   6.331  15.937  0.00  0.00    +0.000 NA
BRANCH  17  27
ATOM     23  C   UNL     1      43.451   7.167  21.073  0.00  0.00    +0.000 C 
ATOM     24  C   UNL     1      42.444   6.814  20.026  0.00  0.00    +0.000 A 
ATOM     25  C   UNL     1      41.140   6.470  20.394  0.00  0.00    +0.000 A 
ATOM     26  C   UNL     1      40.174   6.114  19.499  0.00  0.00    +0.000 A 
ATOM     27  C   UNL     1      40.544   6.103  18.143  0.00  0.00    +0.000 A 
ATOM     28  C   UNL     1      41.806   6.430  17.737  0.00  0.00    +0.000 A 
ATOM     29  C   UNL     1      42.739   6.784  18.695  0.00  0.00    +0.000 A 
ENDBRANCH  17  27
ENDBRANCH  16  20
ENDBRANCH   1  16
TORSDOF 7
ENDMDL
MODEL 6
REMARK VINA RESULT:      -7.3      1.448      2.235
REMARK  Name = 
REMARK  7 active torsions:
REMARK  status: ('A' for Active; 'I' for Inactive)
REMARK    1  A    between atoms: C_5  and  C_6
REMARK    2  A    between atoms: C_9  and  S_10
REMARK    3  A    between atoms: S_10  and  C_11
REMARK    4  A    between atoms: C_11  and  C_12
REMARK    5  A    between atoms: C_15  and  C_16
REMARK    6  A    between atoms: N_18  and  C_19
REMARK    7  A    between atoms: C_19  and  C_21
REMARK                            x       y       z     vdW  Elec       q    Type
REMARK                         _______ _______ _______ _____ _____    ______ ____
ROOT
ATOM      1  C   UNL     1      37.106   3.979  12.328  0.00  0.00    +0.000 C 
ENDROOT
BRANCH   1   2
ATOM      2  C   UNL     1      37.230   2.632  12.929  0.00  0.00    +0.000 A 
ATOM      3  C   UNL     1      38.091   1.628  12.632  0.00  0.00    +0.000 A 
ATOM      4  C   UNL     1      37.988   0.400  13.336  0.00  0.00    +0.000 A 
ATOM      5  C   UNL     1      37.075   0.192  14.279  0.00  0.00    +0.000 A 
ATOM      6  C   UNL     1      36.177   1.219  14.590  0.00  0.00    +0.000 A 
ATOM      7  C   UNL     1      36.266   2.392  13.930  0.00  0.00    +0.000 A 
BRANCH   5   8
ATOM      8  C   UNL     1      36.823  -0.996  15.122  0.00  0.00    +0.000 C 
ATOM      9  O   UNL     1      36.720  -2.153  14.746  0.00  0.00    +0.000 OA
ATOM     10  N   UNL     1      36.680  -0.853  16.537  0.00  0.00    +0.000 NA
BRANCH  10  11
ATOM     11  C   UNL     1      36.438  -2.136  17.393  0.00  0.00    +0.000 C 
ATOM     12  C   UNL     1      37.653  -1.802  18.460  0.00  0.00    +0.000 C 
BRANCH  11  13
ATOM     13  C   UNL     1      35.262  -1.453  18.336  0.00  0.00    +0.000 C 
ATOM     14  C   UNL     1      34.137  -1.153  17.396  0.00  0.00    +0.000 C 
ATOM     15  C   UNL     1      35.937  -0.121  18.646  0.00  0.00    +0.000 C 
ENDBRANCH  11  13
ENDBRANCH  10  11
ENDBRANCH   5   8
ENDBRANCH   1   2
BRANCH   1  16
ATOM     16  S   UNL     1      36.495   5.102  13.598  0.00  0.00    +0.000 S 
BRANCH  16  20
ATOM     17  C   UNL     1      39.637   6.010  16.778  0.00  0.00    +0.000 A 
ATOM     18  C   UNL     1      40.045   5.331  15.660  0.00  0.00    +0.000 A 
ATOM     19  C   UNL     1      39.092   5.108  14.670  0.00  0.00    +0.000 A 
ATOM     20  C   UNL     1      37.797   5.525  14.743  0.00  0.00    +0.000 A 
ATOM     21  N   UNL     1      37.477   6.197  15.889  0.00  0.00    +0.000 NA
ATOM     22  N   UNL     1      38.344   6.420  16.844  0.00  0.00    +0.000 NA
BRANCH  17  27
ATOM     23  C   UNL     1      43.213   6.714  21.195  0.00  0.00    +0.000 C 
ATOM     24  C   UNL     1      42.291   6.562  20.026  0.00  0.00    +0.000 A 
ATOM     25  C   UNL     1      40.933   6.300  20.232  0.00  0.00    +0.000 A 
ATOM     26  C   UNL     1      40.038   6.126  19.218  0.00  0.00    +0.000 A 
ATOM     27  C   UNL     1      40.540   6.222  17.910  0.00  0.00    +0.000 A 
ATOM     28  C   UNL     1      41.859   6.475  17.660  0.00  0.00    +0.000 A 
ATOM     29  C   UNL     1      42.715   6.643  18.733  0.00  0.00    +0.000 A 
ENDBRANCH  17  27
ENDBRANCH  16  20
ENDBRANCH   1  16
TORSDOF 7
ENDMDL
MODEL 7
REMARK VINA RESULT:      -7.3      3.465     10.207
REMARK  Name = 
REMARK  7 active torsions:
REMARK  status: ('A' for Active; 'I' for Inactive)
REMARK    1  A    between atoms: C_5  and  C_6
REMARK    2  A    between atoms: C_9  and  S_10
REMARK    3  A    between atoms: S_10  and  C_11
REMARK    4  A    between atoms: C_11  and  C_12
REMARK    5  A    between atoms: C_15  and  C_16
REMARK    6  A    between atoms: N_18  and  C_19
REMARK    7  A    between atoms: C_19  and  C_21
REMARK                            x       y       z     vdW  Elec       q    Type
REMARK                         _______ _______ _______ _____ _____    ______ ____
ROOT
ATOM      1  C   UNL     1      38.667   5.673  18.044  0.00  0.00    +0.000 C 
ENDROOT
BRANCH   1   2
ATOM      2  C   UNL     1      40.061   6.051  18.365  0.00  0.00    +0.000 A 
ATOM      3  C   UNL     1      41.119   6.240  17.538  0.00  0.00    +0.000 A 
ATOM      4  C   UNL     1      42.380   6.571  18.096  0.00  0.00    +0.000 A 
ATOM      5  C   UNL     1      42.570   6.703  19.404  0.00  0.00    +0.000 A 
ATOM      6  C   UNL     1      41.488   6.505  20.269  0.00  0.00    +0.000 A 
ATOM      7  C   UNL     1      40.282   6.193  19.751  0.00  0.00    +0.000 A 
BRANCH   5   8
ATOM      8  C   UNL     1      43.788   7.053  20.165  0.00  0.00    +0.000 C 
ATOM      9  O   UNL     1      44.919   6.632  19.974  0.00  0.00    +0.000 OA
ATOM     10  N   UNL     1      43.715   7.983  21.248  0.00  0.00    +0.000 NA
BRANCH  10  11
ATOM     11  C   UNL     1      45.029   8.342  22.011  0.00  0.00    +0.000 C 
ATOM     12  C   UNL     1      45.272   9.748  21.179  0.00  0.00    +0.000 C 
BRANCH  11  13
ATOM     13  C   UNL     1      44.258   9.085  23.273  0.00  0.00    +0.000 C 
ATOM     14  C   UNL     1      43.494  10.212  22.651  0.00  0.00    +0.000 C 
ATOM     15  C   UNL     1      45.464   9.708  23.967  0.00  0.00    +0.000 C 
ENDBRANCH  11  13
ENDBRANCH  10  11
ENDBRANCH   5   8
ENDBRANCH   1   2
BRANCH   1  16
ATOM     16  S   UNL     1      38.594   5.241  16.296  0.00  0.00    +0.000 S 
BRANCH  16  20
ATOM     17  C   UNL     1      36.622   1.149  15.872  0.00  0.00    +0.000 A 
ATOM     18  C   UNL     1      35.918   2.128  16.524  0.00  0.00    +0.000 A 
ATOM     19  C   UNL     1      36.503   3.388  16.599  0.00  0.00    +0.000 A 
ATOM     20  C   UNL     1      37.716   3.704  16.065  0.00  0.00    +0.000 A 
ATOM     21  N   UNL     1      38.348   2.672  15.430  0.00  0.00    +0.000 NA
ATOM     22  N   UNL     1      37.831   1.471  15.345  0.00  0.00    +0.000 NA
BRANCH  17  27
ATOM     23  C   UNL     1      34.785  -4.272  15.731  0.00  0.00    +0.000 C 
ATOM     24  C   UNL     1      35.229  -2.845  15.769  0.00  0.00    +0.000 A 
ATOM     25  C   UNL     1      36.149  -2.370  14.830  0.00  0.00    +0.000 A 
ATOM     26  C   UNL     1      36.619  -1.090  14.815  0.00  0.00    +0.000 A 
ATOM     27  C   UNL     1      36.131  -0.228  15.812  0.00  0.00    +0.000 A 
ATOM     28  C   UNL     1      35.232  -0.647  16.751  0.00  0.00    +0.000 A 
ATOM     29  C   UNL     1      34.794  -1.958  16.709  0.00  0.00    +0.000 A 
ENDBRANCH  17  27
ENDBRANCH  16  20
ENDBRANCH   1  16
TORSDOF 7
ENDMDL
MODEL 8
REMARK VINA RESULT:      -7.3      6.075      7.536
REMARK  Name = 
REMARK  7 active torsions:
REMARK  status: ('A' for Active; 'I' for Inactive)
REMARK    1  A    between atoms: C_5  and  C_6
REMARK    2  A    between atoms: C_9  and  S_10
REMARK    3  A    between atoms: S_10  and  C_11
REMARK    4  A    between atoms: C_11  and  C_12
REMARK    5  A    between atoms: C_15  and  C_16
REMARK    6  A    between atoms: N_18  and  C_19
REMARK    7  A    between atoms: C_19  and  C_21
REMARK                            x       y       z     vdW  Elec       q    Type
REMARK                         _______ _______ _______ _____ _____    ______ ____
ROOT
ATOM      1  C   UNL     1      43.332  -1.052  13.003  0.00  0.00    +0.000 C 
ENDROOT
BRANCH   1   2
ATOM      2  C   UNL     1      42.042  -1.080  13.725  0.00  0.00    +0.000 A 
ATOM      3  C   UNL     1      41.219  -0.059  14.068  0.00  0.00    +0.000 A 
ATOM      4  C   UNL     1      40.037  -0.340  14.800  0.00  0.00    +0.000 A 
ATOM      5  C   UNL     1      39.700  -1.572  15.166  0.00  0.00    +0.000 A 
ATOM      6  C   UNL     1      40.544  -2.635  14.823  0.00  0.00    +0.000 A 
ATOM      7  C   UNL     1      41.670  -2.381  14.125  0.00  0.00    +0.000 A 
BRANCH   5   8
ATOM      8  C   UNL     1      38.519  -2.062  15.908  0.00  0.00    +0.000 C 
ATOM      9  O   UNL     1      37.791  -2.991  15.597  0.00  0.00    +0.000 OA
ATOM     10  N   UNL     1      38.133  -1.436  17.134  0.00  0.00    +0.000 NA
BRANCH  10  11
ATOM     11  C   UNL     1      36.893  -1.999  17.898  0.00  0.00    +0.000 C 
ATOM     12  C   UNL     1      37.466  -1.577  19.388  0.00  0.00    +0.000 C 
BRANCH  11  13
ATOM     13  C   UNL     1      35.988  -0.624  17.727  0.00  0.00    +0.000 C 
ATOM     14  C   UNL     1      35.829  -0.089  19.116  0.00  0.00    +0.000 C 
ATOM     15  C   UNL     1      34.652  -1.253  17.348  0.00  0.00    +0.000 C 
ENDBRANCH  11  13
ENDBRANCH  10  11
ENDBRANCH   5   8
ENDBRANCH   1   2
BRANCH   1  16
ATOM     16  S   UNL     1      44.431  -2.255  13.774  0.00  0.00    +0.000 S 
BRANCH  16  20
ATOM     17  C   UNL     1      46.066  -0.945  17.827  0.00  0.00    +0.000 A 
ATOM     18  C   UNL     1      45.520   0.020  17.022  0.00  0.00    +0.000 A 
ATOM     19  C   UNL     1      44.974  -0.397  15.811  0.00  0.00    +0.000 A 
ATOM     20  C   UNL     1      44.944  -1.692  15.389  0.00  0.00    +0.000 A 
ATOM     21  N   UNL     1      45.504  -2.589  16.254  0.00  0.00    +0.000 NA
ATOM     22  N   UNL     1      46.034  -2.233  17.397  0.00  0.00    +0.000 NA
BRANCH  17  27
ATOM     23  C   UNL     1      48.592   0.380  22.792  0.00  0.00    +0.000 C 
ATOM     24  C   UNL     1      47.963   0.015  21.485  0.00  0.00    +0.000 A 
ATOM     25  C   UNL     1      47.409   1.006  20.670  0.00  0.00    +0.000 A 
ATOM     26  C   UNL     1      46.798   0.748  19.478  0.00  0.00    +0.000 A 
ATOM     27  C   UNL     1      46.739  -0.598  19.079  0.00  0.00    +0.000 A 
ATOM     28  C   UNL     1      47.265  -1.601  19.843  0.00  0.00    +0.000 A 
ATOM     29  C   UNL     1      47.872  -1.272  21.041  0.00  0.00    +0.000 A 
ENDBRANCH  17  27
ENDBRANCH  16  20
ENDBRANCH   1  16
TORSDOF 7
ENDMDL
MODEL 9
REMARK VINA RESULT:      -7.2      6.386     11.278
REMARK  Name = 
REMARK  7 active torsions:
REMARK  status: ('A' for Active; 'I' for Inactive)
REMARK    1  A    between atoms: C_5  and  C_6
REMARK    2  A    between atoms: C_9  and  S_10
REMARK    3  A    between atoms: S_10  and  C_11
REMARK    4  A    between atoms: C_11  and  C_12
REMARK    5  A    between atoms: C_15  and  C_16
REMARK    6  A    between atoms: N_18  and  C_19
REMARK    7  A    between atoms: C_19  and  C_21
REMARK                            x       y       z     vdW  Elec       q    Type
REMARK                         _______ _______ _______ _____ _____    ______ ____
ROOT
ATOM      1  C   UNL     1      45.973   7.891  23.358  0.00  0.00    +0.000 C 
ENDROOT
BRANCH   1   2
ATOM      2  C   UNL     1      45.356   6.890  24.255  0.00  0.00    +0.000 A 
ATOM      3  C   UNL     1      45.515   5.544  24.291  0.00  0.00    +0.000 A 
ATOM      4  C   UNL     1      44.777   4.786  25.236  0.00  0.00    +0.000 A 
ATOM      5  C   UNL     1      43.929   5.344  26.093  0.00  0.00    +0.000 A 
ATOM      6  C   UNL     1      43.751   6.732  26.063  0.00  0.00    +0.000 A 
ATOM      7  C   UNL     1      44.449   7.464  25.171  0.00  0.00    +0.000 A 
BRANCH   5   8
ATOM      8  C   UNL     1      43.092   4.733  27.147  0.00  0.00    +0.000 C 
ATOM      9  O   UNL     1      43.083   3.561  27.490  0.00  0.00    +0.000 OA
ATOM     10  N   UNL     1      42.178   5.540  27.894  0.00  0.00    +0.000 NA
BRANCH  10  11
ATOM     11  C   UNL     1      41.330   4.860  29.014  0.00  0.00    +0.000 C 
ATOM     12  C   UNL     1      42.212   5.513  30.249  0.00  0.00    +0.000 C 
BRANCH  11  13
ATOM     13  C   UNL     1      40.176   6.046  29.054  0.00  0.00    +0.000 C 
ATOM     14  C   UNL     1      40.940   7.331  28.981  0.00  0.00    +0.000 C 
ATOM     15  C   UNL     1      39.716   5.895  30.500  0.00  0.00    +0.000 C 
ENDBRANCH  11  13
ENDBRANCH  10  11
ENDBRANCH   5   8
ENDBRANCH   1   2
BRANCH   1  16
ATOM     16  S   UNL     1      44.681   9.021  22.809  0.00  0.00    +0.000 S 
BRANCH  16  20
ATOM     17  C   UNL     1      41.780   7.003  19.924  0.00  0.00    +0.000 A 
ATOM     18  C   UNL     1      42.564   6.194  20.704  0.00  0.00    +0.000 A 
ATOM     19  C   UNL     1      43.406   6.818  21.620  0.00  0.00    +0.000 A 
ATOM     20  C   UNL     1      43.489   8.167  21.791  0.00  0.00    +0.000 A 
ATOM     21  N   UNL     1      42.671   8.898  20.977  0.00  0.00    +0.000 NA
ATOM     22  N   UNL     1      41.871   8.347  20.099  0.00  0.00    +0.000 NA
BRANCH  17  27
ATOM     23  C   UNL     1      38.476   4.714  15.846  0.00  0.00    +0.000 C 
ATOM     24  C   UNL     1      39.310   5.332  16.923  0.00  0.00    +0.000 A 
ATOM     25  C   UNL     1      40.546   5.906  16.612  0.00  0.00    +0.000 A 
ATOM     26  C   UNL     1      41.371   6.466  17.542  0.00  0.00    +0.000 A 
ATOM     27  C   UNL     1      40.925   6.449  18.874  0.00  0.00    +0.000 A 
ATOM     28  C   UNL     1      39.725   5.898  19.225  0.00  0.00    +0.000 A 
ATOM     29  C   UNL     1      38.934   5.347  18.234  0.00  0.00    +0.000 A 
ENDBRANCH  17  27
ENDBRANCH  16  20
ENDBRANCH   1  16
TORSDOF 7
ENDMDL
MODEL 10
REMARK VINA RESULT:      -7.2      1.695      2.960
REMARK  Name = 
REMARK  7 active torsions:
REMARK  status: ('A' for Active; 'I' for Inactive)
REMARK    1  A    between atoms: C_5  and  C_6
REMARK    2  A    between atoms: C_9  and  S_10
REMARK    3  A    between atoms: S_10  and  C_11
REMARK    4  A    between atoms: C_11  and  C_12
REMARK    5  A    between atoms: C_15  and  C_16
REMARK    6  A    between atoms: N_18  and  C_19
REMARK    7  A    between atoms: C_19  and  C_21
REMARK                            x       y       z     vdW  Elec       q    Type
REMARK                         _______ _______ _______ _____ _____    ______ ____
ROOT
ATOM      1  C   UNL     1      38.277   5.956  14.423  0.00  0.00    +0.000 C 
ENDROOT
BRANCH   1   2
ATOM      2  C   UNL     1      38.219   4.492  14.629  0.00  0.00    +0.000 A 
ATOM      3  C   UNL     1      39.174   3.551  14.432  0.00  0.00    +0.000 A 
ATOM      4  C   UNL     1      38.862   2.189  14.672  0.00  0.00    +0.000 A 
ATOM      5  C   UNL     1      37.662   1.793  15.083  0.00  0.00    +0.000 A 
ATOM      6  C   UNL     1      36.665   2.753  15.284  0.00  0.00    +0.000 A 
ATOM      7  C   UNL     1      36.950   4.053  15.063  0.00  0.00    +0.000 A 
BRANCH   5   8
ATOM      8  C   UNL     1      37.155   0.440  15.397  0.00  0.00    +0.000 C 
ATOM      9  O   UNL     1      36.721  -0.383  14.606  0.00  0.00    +0.000 OA
ATOM     10  N   UNL     1      37.148  -0.027  16.748  0.00  0.00    +0.000 NA
BRANCH  10  11
ATOM     11  C   UNL     1      36.626  -1.470  17.033  0.00  0.00    +0.000 C 
ATOM     12  C   UNL     1      38.125  -2.078  17.368  0.00  0.00    +0.000 C 
BRANCH  11  13
ATOM     13  C   UNL     1      36.262  -1.175  18.620  0.00  0.00    +0.000 C 
ATOM     14  C   UNL     1      36.134   0.314  18.717  0.00  0.00    +0.000 C 
ATOM     15  C   UNL     1      37.601  -1.537  19.253  0.00  0.00    +0.000 C 
ENDBRANCH  11  13
ENDBRANCH  10  11
ENDBRANCH   5   8
ENDBRANCH   1   2
BRANCH   1  16
ATOM     16  S   UNL     1      37.934   6.756  16.002  0.00  0.00    +0.000 S 
BRANCH  16  20
ATOM     17  C   UNL     1      41.482   6.404  18.848  0.00  0.00    +0.000 A 
ATOM     18  C   UNL     1      40.228   6.227  19.373  0.00  0.00    +0.000 A 
ATOM     19  C   UNL     1      39.156   6.281  18.487  0.00  0.00    +0.000 A 
ATOM     20  C   UNL     1      39.278   6.489  17.146  0.00  0.00    +0.000 A 
ATOM     21  N   UNL     1      40.562   6.651  16.707  0.00  0.00    +0.000 NA
ATOM     22  N   UNL     1      41.595   6.613  17.511  0.00  0.00    +0.000 NA
BRANCH  17  27
ATOM     23  C   UNL     1      46.074   6.695  22.256  0.00  0.00    +0.000 C 
ATOM     24  C   UNL     1      44.869   6.584  21.378  0.00  0.00    +0.000 A 
ATOM     25  C   UNL     1      44.956   6.907  20.020  0.00  0.00    +0.000 A 
ATOM     26  C   UNL     1      43.896   6.853  19.163  0.00  0.00    +0.000 A 
ATOM     27  C   UNL     1      42.665   6.448  19.708  0.00  0.00    +0.000 A 
ATOM     28  C   UNL     1      42.532   6.125  21.028  0.00  0.00    +0.000 A 
ATOM     29  C   UNL     1      43.646   6.199  21.844  0.00  0.00    +0.000 A 
ENDBRANCH  17  27
ENDBRANCH  16  20
ENDBRANCH   1  16
TORSDOF 7
ENDMDL
