MODEL 1
REMARK VINA RESULT:      -7.3      0.000      0.000
REMARK  Name = 
REMARK  7 active torsions:
REMARK  status: ('A' for Active; 'I' for Inactive)
REMARK    1  A    between atoms: C_7  and  N_8
REMARK    2  A    between atoms: C_9  and  C_11
REMARK    3  A    between atoms: C_11  and  S_12
REMARK    4  A    between atoms: C_11  and  C_26
REMARK    5  A    between atoms: S_12  and  C_13
REMARK    6  A    between atoms: N_18  and  C_19
REMARK    7  A    between atoms: C_19  and  C_20
REMARK                            x       y       z     vdW  Elec       q    Type
REMARK                         _______ _______ _______ _____ _____    ______ ____
ROOT
ATOM      1  C   UNL     1      37.199   2.013  15.144  0.00  0.00    +0.000 C 
ENDROOT
BRANCH   1   2
ATOM      2  C   UNL     1      37.694   1.421  13.802  0.00  0.00    +0.000 A 
ATOM      3  C   UNL     1      36.962   0.656  12.991  0.00  0.00    +0.000 A 
ATOM      4  C   UNL     1      37.497   0.176  11.812  0.00  0.00    +0.000 A 
ATOM      5  C   UNL     1      38.801   0.511  11.508  0.00  0.00    +0.000 A 
ATOM      6  C   UNL     1      39.578   1.296  12.322  0.00  0.00    +0.000 A 
ATOM      7  C   UNL     1      38.986   1.749  13.493  0.00  0.00    +0.000 A 
ENDBRANCH   1   2
BRANCH   1   9
ATOM      8  N   UNL     1      36.770   4.293  14.031  0.00  0.00    +0.000 NA
ATOM      9  C   UNL     1      36.256   3.099  14.602  0.00  0.00    +0.000 C 
ATOM     10  O   UNL     1      35.022   3.006  14.627  0.00  0.00    +0.000 OA
BRANCH   8  17
ATOM     11  C   UNL     1      33.630   8.134  14.531  0.00  0.00    +0.000 C 
ATOM     12  C   UNL     1      34.454   7.199  13.720  0.00  0.00    +0.000 A 
ATOM     13  C   UNL     1      34.421   7.388  12.346  0.00  0.00    +0.000 A 
ATOM     14  C   UNL     1      35.175   6.536  11.578  0.00  0.00    +0.000 A 
ATOM     15  C   UNL     1      35.937   5.528  12.146  0.00  0.00    +0.000 A 
ATOM     16  C   UNL     1      36.735   4.631  11.278  0.00  0.00    +0.000 C 
ATOM     17  C   UNL     1      35.970   5.338  13.511  0.00  0.00    +0.000 A 
ATOM     18  C   UNL     1      35.214   6.195  14.284  0.00  0.00    +0.000 A 
ENDBRANCH   8  17
ENDBRANCH   1   9
BRANCH   1  19
ATOM     19  S   UNL     1      35.934   0.651  15.553  0.00  0.00    +0.000 S 
BRANCH  19  20
ATOM     20  C   UNL     1      36.639  -0.185  16.962  0.00  0.00    +0.000 A 
ATOM     21  N   UNL     1      36.807   0.210  18.222  0.00  0.00    +0.000 NA
ATOM     22  N   UNL     1      37.380  -0.721  18.967  0.00  0.00    +0.000 NA
ATOM     23  C   UNL     1      37.580  -1.752  18.125  0.00  0.00    +0.000 A 
ATOM     24  C   UNL     1      38.211  -3.073  18.486  0.00  0.00    +0.000 C 
ATOM     25  N   UNL     1      37.135  -1.447  16.894  0.00  0.00    +0.000 N 
BRANCH  25  26
ATOM     26  C   UNL     1      37.167  -2.281  15.719  0.00  0.00    +0.000 C 
BRANCH  26  27
ATOM     27  C   UNL     1      38.448  -2.148  14.974  0.00  0.00    +0.000 A 
ATOM     28  C   UNL     1      38.521  -2.789  13.738  0.00  0.00    +0.000 A 
ATOM     29  C   UNL     1      39.646  -2.743  12.951  0.00  0.00    +0.000 A 
ATOM     30  C   UNL     1      40.762  -2.027  13.402  0.00  0.00    +0.000 A 
ATOM     31  C   UNL     1      40.686  -1.389  14.633  0.00  0.00    +0.000 A 
ATOM     32  C   UNL     1      39.536  -1.450  15.414  0.00  0.00    +0.000 A 
ENDBRANCH  26  27
ENDBRANCH  25  26
ENDBRANCH  19  20
ENDBRANCH   1  19
TORSDOF 7
ENDMDL
MODEL 2
REMARK VINA RESULT:      -7.1      3.317      7.990
REMARK  Name = 
REMARK  7 active torsions:
REMARK  status: ('A' for Active; 'I' for Inactive)
REMARK    1  A    between atoms: C_7  and  N_8
REMARK    2  A    between atoms: C_9  and  C_11
REMARK    3  A    between atoms: C_11  and  S_12
REMARK    4  A    between atoms: C_11  and  C_26
REMARK    5  A    between atoms: S_12  and  C_13
REMARK    6  A    between atoms: N_18  and  C_19
REMARK    7  A    between atoms: C_19  and  C_20
REMARK                            x       y       z     vdW  Elec       q    Type
REMARK                         _______ _______ _______ _____ _____    ______ ____
ROOT
ATOM      1  C   UNL     1      38.725  -1.550  15.957  0.00  0.00    +0.000 C 
ENDROOT
BRANCH   1   2
ATOM      2  C   UNL     1      37.790  -2.776  15.824  0.00  0.00    +0.000 A 
ATOM      3  C   UNL     1      37.506  -3.628  16.811  0.00  0.00    +0.000 A 
ATOM      4  C   UNL     1      36.657  -4.694  16.591  0.00  0.00    +0.000 A 
ATOM      5  C   UNL     1      36.120  -4.845  15.329  0.00  0.00    +0.000 A 
ATOM      6  C   UNL     1      36.393  -3.986  14.294  0.00  0.00    +0.000 A 
ATOM      7  C   UNL     1      37.253  -2.933  14.575  0.00  0.00    +0.000 A 
ENDBRANCH   1   2
BRANCH   1   9
ATOM      8  N   UNL     1      40.790  -1.541  14.421  0.00  0.00    +0.000 NA
ATOM      9  C   UNL     1      40.029  -2.177  15.437  0.00  0.00    +0.000 C 
ATOM     10  O   UNL     1      40.487  -3.247  15.858  0.00  0.00    +0.000 OA
BRANCH   8  17
ATOM     11  C   UNL     1      45.736  -2.171  14.479  0.00  0.00    +0.000 C 
ATOM     12  C   UNL     1      44.386  -2.376  13.891  0.00  0.00    +0.000 A 
ATOM     13  C   UNL     1      44.332  -3.133  12.729  0.00  0.00    +0.000 A 
ATOM     14  C   UNL     1      43.094  -3.334  12.169  0.00  0.00    +0.000 A 
ATOM     15  C   UNL     1      41.946  -2.805  12.736  0.00  0.00    +0.000 A 
ATOM     16  C   UNL     1      40.632  -3.048  12.098  0.00  0.00    +0.000 C 
ATOM     17  C   UNL     1      41.998  -2.052  13.889  0.00  0.00    +0.000 A 
ATOM     18  C   UNL     1      43.240  -1.850  14.453  0.00  0.00    +0.000 A 
ENDBRANCH   8  17
ENDBRANCH   1   9
BRANCH   1  19
ATOM     19  S   UNL     1      38.149  -0.639  14.387  0.00  0.00    +0.000 S 
BRANCH  19  20
ATOM     20  C   UNL     1      38.313   1.086  14.805  0.00  0.00    +0.000 A 
ATOM     21  N   UNL     1      39.380   1.883  14.842  0.00  0.00    +0.000 NA
ATOM     22  N   UNL     1      39.073   3.116  15.209  0.00  0.00    +0.000 NA
ATOM     23  C   UNL     1      37.742   3.087  15.413  0.00  0.00    +0.000 A 
ATOM     24  C   UNL     1      36.894   4.254  15.849  0.00  0.00    +0.000 C 
ATOM     25  N   UNL     1      37.256   1.857  15.172  0.00  0.00    +0.000 N 
BRANCH  25  26
ATOM     26  C   UNL     1      35.887   1.420  15.275  0.00  0.00    +0.000 C 
BRANCH  26  27
ATOM     27  C   UNL     1      35.660   0.571  16.476  0.00  0.00    +0.000 A 
ATOM     28  C   UNL     1      36.203   1.028  17.675  0.00  0.00    +0.000 A 
ATOM     29  C   UNL     1      36.065   0.338  18.855  0.00  0.00    +0.000 A 
ATOM     30  C   UNL     1      35.351  -0.867  18.858  0.00  0.00    +0.000 A 
ATOM     31  C   UNL     1      34.810  -1.319  17.662  0.00  0.00    +0.000 A 
ATOM     32  C   UNL     1      34.964  -0.604  16.478  0.00  0.00    +0.000 A 
ENDBRANCH  26  27
ENDBRANCH  25  26
ENDBRANCH  19  20
ENDBRANCH   1  19
TORSDOF 7
ENDMDL
MODEL 3
REMARK VINA RESULT:      -7.1      2.653      6.709
REMARK  Name = 
REMARK  7 active torsions:
REMARK  status: ('A' for Active; 'I' for Inactive)
REMARK    1  A    between atoms: C_7  and  N_8
REMARK    2  A    between atoms: C_9  and  C_11
REMARK    3  A    between atoms: C_11  and  S_12
REMARK    4  A    between atoms: C_11  and  C_26
REMARK    5  A    between atoms: S_12  and  C_13
REMARK    6  A    between atoms: N_18  and  C_19
REMARK    7  A    between atoms: C_19  and  C_20
REMARK                            x       y       z     vdW  Elec       q    Type
REMARK                         _______ _______ _______ _____ _____    ______ ____
ROOT
ATOM      1  C   UNL     1      36.460  -1.640  17.183  0.00  0.00    +0.000 C 
ENDROOT
BRANCH   1   2
ATOM      2  C   UNL     1      35.879  -2.939  16.576  0.00  0.00    +0.000 A 
ATOM      3  C   UNL     1      36.472  -4.134  16.624  0.00  0.00    +0.000 A 
ATOM      4  C   UNL     1      35.869  -5.236  16.051  0.00  0.00    +0.000 A 
ATOM      5  C   UNL     1      34.647  -5.059  15.433  0.00  0.00    +0.000 A 
ATOM      6  C   UNL     1      34.014  -3.844  15.368  0.00  0.00    +0.000 A 
ATOM      7  C   UNL     1      34.667  -2.773  15.962  0.00  0.00    +0.000 A 
ENDBRANCH   1   2
BRANCH   1   9
ATOM      8  N   UNL     1      37.918  -1.463  15.069  0.00  0.00    +0.000 NA
ATOM      9  C   UNL     1      37.826  -1.627  16.476  0.00  0.00    +0.000 C 
ATOM     10  O   UNL     1      38.903  -1.755  17.072  0.00  0.00    +0.000 OA
BRANCH   8  17
ATOM     11  C   UNL     1      42.451   0.366  14.086  0.00  0.00    +0.000 C 
ATOM     12  C   UNL     1      41.329  -0.579  13.848  0.00  0.00    +0.000 A 
ATOM     13  C   UNL     1      41.513  -1.506  12.831  0.00  0.00    +0.000 A 
ATOM     14  C   UNL     1      40.489  -2.389  12.594  0.00  0.00    +0.000 A 
ATOM     15  C   UNL     1      39.319  -2.360  13.336  0.00  0.00    +0.000 A 
ATOM     16  C   UNL     1      38.240  -3.332  13.046  0.00  0.00    +0.000 C 
ATOM     17  C   UNL     1      39.134  -1.440  14.346  0.00  0.00    +0.000 A 
ATOM     18  C   UNL     1      40.162  -0.553  14.585  0.00  0.00    +0.000 A 
ENDBRANCH   8  17
ENDBRANCH   1   9
BRANCH   1  19
ATOM     19  S   UNL     1      35.507  -0.414  16.080  0.00  0.00    +0.000 S 
BRANCH  19  20
ATOM     20  C   UNL     1      36.207   1.173  16.494  0.00  0.00    +0.000 A 
ATOM     21  N   UNL     1      36.738   1.630  17.626  0.00  0.00    +0.000 NA
ATOM     22  N   UNL     1      37.148   2.883  17.519  0.00  0.00    +0.000 NA
ATOM     23  C   UNL     1      36.856   3.226  16.250  0.00  0.00    +0.000 A 
ATOM     24  C   UNL     1      37.127   4.568  15.618  0.00  0.00    +0.000 C 
ATOM     25  N   UNL     1      36.281   2.197  15.604  0.00  0.00    +0.000 N 
BRANCH  25  26
ATOM     26  C   UNL     1      35.825   2.164  14.237  0.00  0.00    +0.000 C 
BRANCH  26  27
ATOM     27  C   UNL     1      36.911   1.777  13.295  0.00  0.00    +0.000 A 
ATOM     28  C   UNL     1      36.641   0.715  12.435  0.00  0.00    +0.000 A 
ATOM     29  C   UNL     1      37.557   0.260  11.518  0.00  0.00    +0.000 A 
ATOM     30  C   UNL     1      38.808   0.886  11.440  0.00  0.00    +0.000 A 
ATOM     31  C   UNL     1      39.073   1.945  12.297  0.00  0.00    +0.000 A 
ATOM     32  C   UNL     1      38.130   2.387  13.220  0.00  0.00    +0.000 A 
ENDBRANCH  26  27
ENDBRANCH  25  26
ENDBRANCH  19  20
ENDBRANCH   1  19
TORSDOF 7
ENDMDL
MODEL 4
REMARK VINA RESULT:      -6.9      2.963      5.025
REMARK  Name = 
REMARK  7 active torsions:
REMARK  status: ('A' for Active; 'I' for Inactive)
REMARK    1  A    between atoms: C_7  and  N_8
REMARK    2  A    between atoms: C_9  and  C_11
REMARK    3  A    between atoms: C_11  and  S_12
REMARK    4  A    between atoms: C_11  and  C_26
REMARK    5  A    between atoms: S_12  and  C_13
REMARK    6  A    between atoms: N_18  and  C_19
REMARK    7  A    between atoms: C_19  and  C_20
REMARK                            x       y       z     vdW  Elec       q    Type
REMARK                         _______ _______ _______ _____ _____    ______ ____
ROOT
ATOM      1  C   UNL     1      36.959   1.237  15.009  0.00  0.00    +0.000 C 
ENDROOT
BRANCH   1   2
ATOM      2  C   UNL     1      36.533   0.315  16.177  0.00  0.00    +0.000 A 
ATOM      3  C   UNL     1      37.358  -0.159  17.113  0.00  0.00    +0.000 A 
ATOM      4  C   UNL     1      36.878  -0.976  18.117  0.00  0.00    +0.000 A 
ATOM      5  C   UNL     1      35.532  -1.282  18.117  0.00  0.00    +0.000 A 
ATOM      6  C   UNL     1      34.660  -0.809  17.169  0.00  0.00    +0.000 A 
ATOM      7  C   UNL     1      35.200   0.008  16.185  0.00  0.00    +0.000 A 
ENDBRANCH   1   2
BRANCH   1   9
ATOM      8  N   UNL     1      38.166   3.414  15.661  0.00  0.00    +0.000 NA
ATOM      9  C   UNL     1      37.024   2.576  15.762  0.00  0.00    +0.000 C 
ATOM     10  O   UNL     1      36.112   2.997  16.484  0.00  0.00    +0.000 OA
BRANCH   8  17
ATOM     11  C   UNL     1      39.525   6.246  19.533  0.00  0.00    +0.000 C 
ATOM     12  C   UNL     1      38.951   6.054  18.175  0.00  0.00    +0.000 A 
ATOM     13  C   UNL     1      38.525   7.202  17.522  0.00  0.00    +0.000 A 
ATOM     14  C   UNL     1      37.991   7.047  16.267  0.00  0.00    +0.000 A 
ATOM     15  C   UNL     1      37.881   5.800  15.673  0.00  0.00    +0.000 A 
ATOM     16  C   UNL     1      37.299   5.680  14.317  0.00  0.00    +0.000 C 
ATOM     17  C   UNL     1      38.303   4.659  16.321  0.00  0.00    +0.000 A 
ATOM     18  C   UNL     1      38.840   4.813  17.582  0.00  0.00    +0.000 A 
ENDBRANCH   8  17
ENDBRANCH   1   9
BRANCH   1  19
ATOM     19  S   UNL     1      38.806   0.773  15.001  0.00  0.00    +0.000 S 
BRANCH  19  20
ATOM     20  C   UNL     1      39.058   0.037  13.396  0.00  0.00    +0.000 A 
ATOM     21  N   UNL     1      38.961   0.548  12.171  0.00  0.00    +0.000 NA
ATOM     22  N   UNL     1      39.232  -0.343  11.231  0.00  0.00    +0.000 NA
ATOM     23  C   UNL     1      39.514  -1.472  11.908  0.00  0.00    +0.000 A 
ATOM     24  C   UNL     1      39.891  -2.795  11.293  0.00  0.00    +0.000 C 
ATOM     25  N   UNL     1      39.414  -1.264  13.233  0.00  0.00    +0.000 N 
BRANCH  25  26
ATOM     26  C   UNL     1      39.638  -2.218  14.289  0.00  0.00    +0.000 C 
BRANCH  26  27
ATOM     27  C   UNL     1      38.370  -2.841  14.758  0.00  0.00    +0.000 A 
ATOM     28  C   UNL     1      38.436  -3.577  15.939  0.00  0.00    +0.000 A 
ATOM     29  C   UNL     1      37.338  -4.201  16.479  0.00  0.00    +0.000 A 
ATOM     30  C   UNL     1      36.105  -4.095  15.823  0.00  0.00    +0.000 A 
ATOM     31  C   UNL     1      36.042  -3.359  14.647  0.00  0.00    +0.000 A 
ATOM     32  C   UNL     1      37.169  -2.737  14.118  0.00  0.00    +0.000 A 
ENDBRANCH  26  27
ENDBRANCH  25  26
ENDBRANCH  19  20
ENDBRANCH   1  19
TORSDOF 7
ENDMDL
MODEL 5
REMARK VINA RESULT:      -6.8      2.518      4.298
REMARK  Name = 
REMARK  7 active torsions:
REMARK  status: ('A' for Active; 'I' for Inactive)
REMARK    1  A    between atoms: C_7  and  N_8
REMARK    2  A    between atoms: C_9  and  C_11
REMARK    3  A    between atoms: C_11  and  S_12
REMARK    4  A    between atoms: C_11  and  C_26
REMARK    5  A    between atoms: S_12  and  C_13
REMARK    6  A    between atoms: N_18  and  C_19
REMARK    7  A    between atoms: C_19  and  C_20
REMARK                            x       y       z     vdW  Elec       q    Type
REMARK                         _______ _______ _______ _____ _____    ______ ____
ROOT
ATOM      1  C   UNL     1      38.581   1.312  13.786  0.00  0.00    +0.000 C 
ENDROOT
BRANCH   1   2
ATOM      2  C   UNL     1      39.058  -0.156  13.676  0.00  0.00    +0.000 A 
ATOM      3  C   UNL     1      40.280  -0.586  13.998  0.00  0.00    +0.000 A 
ATOM      4  C   UNL     1      40.609  -1.921  13.864  0.00  0.00    +0.000 A 
ATOM      5  C   UNL     1      39.640  -2.782  13.390  0.00  0.00    +0.000 A 
ATOM      6  C   UNL     1      38.376  -2.370  13.051  0.00  0.00    +0.000 A 
ATOM      7  C   UNL     1      38.104  -1.018  13.208  0.00  0.00    +0.000 A 
ENDBRANCH   1   2
BRANCH   1   9
ATOM      8  N   UNL     1      37.285   2.034  11.684  0.00  0.00    +0.000 NA
ATOM      9  C   UNL     1      38.513   1.662  12.291  0.00  0.00    +0.000 C 
ATOM     10  O   UNL     1      39.497   1.643  11.541  0.00  0.00    +0.000 OA
BRANCH   8  17
ATOM     11  C   UNL     1      36.821   0.860   6.860  0.00  0.00    +0.000 C 
ATOM     12  C   UNL     1      36.912   1.835   7.979  0.00  0.00    +0.000 A 
ATOM     13  C   UNL     1      36.844   3.176   7.629  0.00  0.00    +0.000 A 
ATOM     14  C   UNL     1      36.926   4.094   8.647  0.00  0.00    +0.000 A 
ATOM     15  C   UNL     1      37.071   3.702   9.969  0.00  0.00    +0.000 A 
ATOM     16  C   UNL     1      37.155   4.727  11.034  0.00  0.00    +0.000 C 
ATOM     17  C   UNL     1      37.139   2.371  10.317  0.00  0.00    +0.000 A 
ATOM     18  C   UNL     1      37.056   1.448   9.296  0.00  0.00    +0.000 A 
ENDBRANCH   8  17
ENDBRANCH   1   9
BRANCH   1  19
ATOM     19  S   UNL     1      36.744   0.941  14.122  0.00  0.00    +0.000 S 
BRANCH  19  20
ATOM     20  C   UNL     1      36.576   1.153  15.884  0.00  0.00    +0.000 A 
ATOM     21  N   UNL     1      36.832   2.196  16.671  0.00  0.00    +0.000 NA
ATOM     22  N   UNL     1      36.570   1.943  17.943  0.00  0.00    +0.000 NA
ATOM     23  C   UNL     1      36.127   0.671  17.949  0.00  0.00    +0.000 A 
ATOM     24  C   UNL     1      35.692  -0.101  19.168  0.00  0.00    +0.000 C 
ATOM     25  N   UNL     1      36.122   0.169  16.702  0.00  0.00    +0.000 N 
BRANCH  25  26
ATOM     26  C   UNL     1      35.717  -1.152  16.292  0.00  0.00    +0.000 C 
BRANCH  26  27
ATOM     27  C   UNL     1      36.802  -2.153  16.480  0.00  0.00    +0.000 A 
ATOM     28  C   UNL     1      36.478  -3.482  16.211  0.00  0.00    +0.000 A 
ATOM     29  C   UNL     1      37.389  -4.502  16.344  0.00  0.00    +0.000 A 
ATOM     30  C   UNL     1      38.691  -4.200  16.764  0.00  0.00    +0.000 A 
ATOM     31  C   UNL     1      39.010  -2.875  17.030  0.00  0.00    +0.000 A 
ATOM     32  C   UNL     1      38.070  -1.859  16.889  0.00  0.00    +0.000 A 
ENDBRANCH  26  27
ENDBRANCH  25  26
ENDBRANCH  19  20
ENDBRANCH   1  19
TORSDOF 7
ENDMDL
MODEL 6
REMARK VINA RESULT:      -6.7      3.599      5.516
REMARK  Name = 
REMARK  7 active torsions:
REMARK  status: ('A' for Active; 'I' for Inactive)
REMARK    1  A    between atoms: C_7  and  N_8
REMARK    2  A    between atoms: C_9  and  C_11
REMARK    3  A    between atoms: C_11  and  S_12
REMARK    4  A    between atoms: C_11  and  C_26
REMARK    5  A    between atoms: S_12  and  C_13
REMARK    6  A    between atoms: N_18  and  C_19
REMARK    7  A    between atoms: C_19  and  C_20
REMARK                            x       y       z     vdW  Elec       q    Type
REMARK                         _______ _______ _______ _____ _____    ______ ____
ROOT
ATOM      1  C   UNL     1      38.556   0.819  13.549  0.00  0.00    +0.000 C 
ENDROOT
BRANCH   1   2
ATOM      2  C   UNL     1      39.336  -0.472  13.894  0.00  0.00    +0.000 A 
ATOM      3  C   UNL     1      40.569  -0.504  14.405  0.00  0.00    +0.000 A 
ATOM      4  C   UNL     1      41.181  -1.711  14.679  0.00  0.00    +0.000 A 
ATOM      5  C   UNL     1      40.481  -2.869  14.408  0.00  0.00    +0.000 A 
ATOM      6  C   UNL     1      39.213  -2.868  13.883  0.00  0.00    +0.000 A 
ATOM      7  C   UNL     1      38.649  -1.625  13.629  0.00  0.00    +0.000 A 
ENDBRANCH   1   2
BRANCH   1   9
ATOM      8  N   UNL     1      39.636   0.690  11.217  0.00  0.00    +0.000 NA
ATOM      9  C   UNL     1      38.468   0.654  12.023  0.00  0.00    +0.000 C 
ATOM     10  O   UNL     1      37.403   0.485  11.416  0.00  0.00    +0.000 OA
BRANCH   8  17
ATOM     11  C   UNL     1      38.847   2.380   6.593  0.00  0.00    +0.000 C 
ATOM     12  C   UNL     1      39.270   1.335   7.563  0.00  0.00    +0.000 A 
ATOM     13  C   UNL     1      39.700   0.133   7.019  0.00  0.00    +0.000 A 
ATOM     14  C   UNL     1      40.095  -0.846   7.897  0.00  0.00    +0.000 A 
ATOM     15  C   UNL     1      40.067  -0.647   9.268  0.00  0.00    +0.000 A 
ATOM     16  C   UNL     1      40.502  -1.731  10.178  0.00  0.00    +0.000 C 
ATOM     17  C   UNL     1      39.639   0.546   9.810  0.00  0.00    +0.000 A 
ATOM     18  C   UNL     1      39.243   1.531   8.929  0.00  0.00    +0.000 A 
ENDBRANCH   8  17
ENDBRANCH   1   9
BRANCH   1  19
ATOM     19  S   UNL     1      36.828   0.193  14.049  0.00  0.00    +0.000 S 
BRANCH  19  20
ATOM     20  C   UNL     1      36.649   0.727  15.741  0.00  0.00    +0.000 A 
ATOM     21  N   UNL     1      36.953   1.879  16.335  0.00  0.00    +0.000 NA
ATOM     22  N   UNL     1      36.660   1.872  17.625  0.00  0.00    +0.000 NA
ATOM     23  C   UNL     1      36.145   0.648  17.847  0.00  0.00    +0.000 A 
ATOM     24  C   UNL     1      35.650   0.130  19.174  0.00  0.00    +0.000 C 
ATOM     25  N   UNL     1      36.128  -0.069  16.710  0.00  0.00    +0.000 N 
BRANCH  25  26
ATOM     26  C   UNL     1      35.654  -1.419  16.533  0.00  0.00    +0.000 C 
BRANCH  26  27
ATOM     27  C   UNL     1      36.720  -2.425  16.791  0.00  0.00    +0.000 A 
ATOM     28  C   UNL     1      36.463  -3.728  16.371  0.00  0.00    +0.000 A 
ATOM     29  C   UNL     1      37.364  -4.749  16.550  0.00  0.00    +0.000 A 
ATOM     30  C   UNL     1      38.588  -4.474  17.174  0.00  0.00    +0.000 A 
ATOM     31  C   UNL     1      38.841  -3.174  17.590  0.00  0.00    +0.000 A 
ATOM     32  C   UNL     1      37.912  -2.156  17.399  0.00  0.00    +0.000 A 
ENDBRANCH  26  27
ENDBRANCH  25  26
ENDBRANCH  19  20
ENDBRANCH   1  19
TORSDOF 7
ENDMDL
MODEL 7
REMARK VINA RESULT:      -6.7      4.634      7.606
REMARK  Name = 
REMARK  7 active torsions:
REMARK  status: ('A' for Active; 'I' for Inactive)
REMARK    1  A    between atoms: C_7  and  N_8
REMARK    2  A    between atoms: C_9  and  C_11
REMARK    3  A    between atoms: C_11  and  S_12
REMARK    4  A    between atoms: C_11  and  C_26
REMARK    5  A    between atoms: S_12  and  C_13
REMARK    6  A    between atoms: N_18  and  C_19
REMARK    7  A    between atoms: C_19  and  C_20
REMARK                            x       y       z     vdW  Elec       q    Type
REMARK                         _______ _______ _______ _____ _____    ______ ____
ROOT
ATOM      1  C   UNL     1      36.968   5.165  15.093  0.00  0.00    +0.000 C 
ENDROOT
BRANCH   1   2
ATOM      2  C   UNL     1      37.417   4.800  13.658  0.00  0.00    +0.000 A 
ATOM      3  C   UNL     1      36.605   4.722  12.602  0.00  0.00    +0.000 A 
ATOM      4  C   UNL     1      37.105   4.388  11.359  0.00  0.00    +0.000 A 
ATOM      5  C   UNL     1      38.459   4.139  11.250  0.00  0.00    +0.000 A 
ATOM      6  C   UNL     1      39.318   4.211  12.318  0.00  0.00    +0.000 A 
ATOM      7  C   UNL     1      38.758   4.552  13.541  0.00  0.00    +0.000 A 
ENDBRANCH   1   2
BRANCH   1   9
ATOM      8  N   UNL     1      36.049   2.784  15.422  0.00  0.00    +0.000 NA
ATOM      9  C   UNL     1      37.024   3.768  15.732  0.00  0.00    +0.000 C 
ATOM     10  O   UNL     1      37.898   3.421  16.537  0.00  0.00    +0.000 OA
BRANCH   8  17
ATOM     11  C   UNL     1      35.477  -0.435  19.187  0.00  0.00    +0.000 C 
ATOM     12  C   UNL     1      35.759  -0.102  17.766  0.00  0.00    +0.000 A 
ATOM     13  C   UNL     1      36.020  -1.175  16.926  0.00  0.00    +0.000 A 
ATOM     14  C   UNL     1      36.283  -0.890  15.608  0.00  0.00    +0.000 A 
ATOM     15  C   UNL     1      36.289   0.411  15.134  0.00  0.00    +0.000 A 
ATOM     16  C   UNL     1      36.578   0.671  13.705  0.00  0.00    +0.000 C 
ATOM     17  C   UNL     1      36.031   1.478  15.967  0.00  0.00    +0.000 A 
ATOM     18  C   UNL     1      35.766   1.194  17.290  0.00  0.00    +0.000 A 
ENDBRANCH   8  17
ENDBRANCH   1   9
BRANCH   1  19
ATOM     19  S   UNL     1      38.632   5.870  15.692  0.00  0.00    +0.000 S 
BRANCH  19  20
ATOM     20  C   UNL     1      38.170   7.118  16.879  0.00  0.00    +0.000 A 
ATOM     21  N   UNL     1      37.513   8.267  16.733  0.00  0.00    +0.000 NA
ATOM     22  N   UNL     1      37.374   8.915  17.878  0.00  0.00    +0.000 NA
ATOM     23  C   UNL     1      37.978   8.126  18.787  0.00  0.00    +0.000 A 
ATOM     24  C   UNL     1      38.097   8.417  20.262  0.00  0.00    +0.000 C 
ATOM     25  N   UNL     1      38.471   7.022  18.200  0.00  0.00    +0.000 N 
BRANCH  25  26
ATOM     26  C   UNL     1      39.183   5.938  18.828  0.00  0.00    +0.000 C 
BRANCH  26  27
ATOM     27  C   UNL     1      40.633   6.235  18.980  0.00  0.00    +0.000 A 
ATOM     28  C   UNL     1      41.119   6.319  20.284  0.00  0.00    +0.000 A 
ATOM     29  C   UNL     1      42.438   6.586  20.560  0.00  0.00    +0.000 A 
ATOM     30  C   UNL     1      43.330   6.780  19.497  0.00  0.00    +0.000 A 
ATOM     31  C   UNL     1      42.842   6.694  18.200  0.00  0.00    +0.000 A 
ATOM     32  C   UNL     1      41.501   6.423  17.944  0.00  0.00    +0.000 A 
ENDBRANCH  26  27
ENDBRANCH  25  26
ENDBRANCH  19  20
ENDBRANCH   1  19
TORSDOF 7
ENDMDL
MODEL 8
REMARK VINA RESULT:      -6.6      3.415      5.400
REMARK  Name = 
REMARK  7 active torsions:
REMARK  status: ('A' for Active; 'I' for Inactive)
REMARK    1  A    between atoms: C_7  and  N_8
REMARK    2  A    between atoms: C_9  and  C_11
REMARK    3  A    between atoms: C_11  and  S_12
REMARK    4  A    between atoms: C_11  and  C_26
REMARK    5  A    between atoms: S_12  and  C_13
REMARK    6  A    between atoms: N_18  and  C_19
REMARK    7  A    between atoms: C_19  and  C_20
REMARK                            x       y       z     vdW  Elec       q    Type
REMARK                         _______ _______ _______ _____ _____    ______ ____
ROOT
ATOM      1  C   UNL     1      37.398   2.472  14.009  0.00  0.00    +0.000 C 
ENDROOT
BRANCH   1   2
ATOM      2  C   UNL     1      36.528   1.750  15.067  0.00  0.00    +0.000 A 
ATOM      3  C   UNL     1      35.479   2.292  15.688  0.00  0.00    +0.000 A 
ATOM      4  C   UNL     1      34.765   1.563  16.619  0.00  0.00    +0.000 A 
ATOM      5  C   UNL     1      35.173   0.270  16.880  0.00  0.00    +0.000 A 
ATOM      6  C   UNL     1      36.247  -0.314  16.257  0.00  0.00    +0.000 A 
ATOM      7  C   UNL     1      36.925   0.467  15.331  0.00  0.00    +0.000 A 
ENDBRANCH   1   2
BRANCH   1   9
ATOM      8  N   UNL     1      38.833   3.621  15.810  0.00  0.00    +0.000 NA
ATOM      9  C   UNL     1      37.810   3.706  14.829  0.00  0.00    +0.000 C 
ATOM     10  O   UNL     1      37.292   4.820  14.690  0.00  0.00    +0.000 OA
BRANCH   8  17
ATOM     11  C   UNL     1      41.436   7.812  16.534  0.00  0.00    +0.000 C 
ATOM     12  C   UNL     1      40.514   6.736  16.984  0.00  0.00    +0.000 A 
ATOM     13  C   UNL     1      40.058   6.828  18.291  0.00  0.00    +0.000 A 
ATOM     14  C   UNL     1      39.205   5.843  18.728  0.00  0.00    +0.000 A 
ATOM     15  C   UNL     1      38.816   4.801  17.902  0.00  0.00    +0.000 A 
ATOM     16  C   UNL     1      37.895   3.761  18.416  0.00  0.00    +0.000 C 
ATOM     17  C   UNL     1      39.269   4.708  16.604  0.00  0.00    +0.000 A 
ATOM     18  C   UNL     1      40.124   5.696  16.164  0.00  0.00    +0.000 A 
ENDBRANCH   8  17
ENDBRANCH   1   9
BRANCH   1  19
ATOM     19  S   UNL     1      38.960   1.402  14.215  0.00  0.00    +0.000 S 
BRANCH  19  20
ATOM     20  C   UNL     1      39.179   0.647  12.614  0.00  0.00    +0.000 A 
ATOM     21  N   UNL     1      38.856   1.068  11.393  0.00  0.00    +0.000 NA
ATOM     22  N   UNL     1      39.193   0.197  10.456  0.00  0.00    +0.000 NA
ATOM     23  C   UNL     1      39.758  -0.823  11.130  0.00  0.00    +0.000 A 
ATOM     24  C   UNL     1      40.315  -2.081  10.515  0.00  0.00    +0.000 C 
ATOM     25  N   UNL     1      39.760  -0.570  12.451  0.00  0.00    +0.000 N 
BRANCH  25  26
ATOM     26  C   UNL     1      40.274  -1.411  13.503  0.00  0.00    +0.000 C 
BRANCH  26  27
ATOM     27  C   UNL     1      39.208  -2.246  14.121  0.00  0.00    +0.000 A 
ATOM     28  C   UNL     1      39.386  -2.594  15.459  0.00  0.00    +0.000 A 
ATOM     29  C   UNL     1      38.477  -3.360  16.146  0.00  0.00    +0.000 A 
ATOM     30  C   UNL     1      37.327  -3.808  15.484  0.00  0.00    +0.000 A 
ATOM     31  C   UNL     1      37.152  -3.459  14.151  0.00  0.00    +0.000 A 
ATOM     32  C   UNL     1      38.088  -2.683  13.475  0.00  0.00    +0.000 A 
ENDBRANCH  26  27
ENDBRANCH  25  26
ENDBRANCH  19  20
ENDBRANCH   1  19
TORSDOF 7
ENDMDL
MODEL 9
REMARK VINA RESULT:      -6.5      4.815      7.513
REMARK  Name = 
REMARK  7 active torsions:
REMARK  status: ('A' for Active; 'I' for Inactive)
REMARK    1  A    between atoms: C_7  and  N_8
REMARK    2  A    between atoms: C_9  and  C_11
REMARK    3  A    between atoms: C_11  and  S_12
REMARK    4  A    between atoms: C_11  and  C_26
REMARK    5  A    between atoms: S_12  and  C_13
REMARK    6  A    between atoms: N_18  and  C_19
REMARK    7  A    between atoms: C_19  and  C_20
REMARK                            x       y       z     vdW  Elec       q    Type
REMARK                         _______ _______ _______ _____ _____    ______ ____
ROOT
ATOM      1  C   UNL     1      38.834   5.814  18.554  0.00  0.00    +0.000 C 
ENDROOT
BRANCH   1   2
ATOM      2  C   UNL     1      40.337   6.156  18.688  0.00  0.00    +0.000 A 
ATOM      3  C   UNL     1      41.165   6.364  17.663  0.00  0.00    +0.000 A 
ATOM      4  C   UNL     1      42.494   6.665  17.888  0.00  0.00    +0.000 A 
ATOM      5  C   UNL     1      42.929   6.741  19.196  0.00  0.00    +0.000 A 
ATOM      6  C   UNL     1      42.101   6.533  20.270  0.00  0.00    +0.000 A 
ATOM      7  C   UNL     1      40.776   6.234  19.982  0.00  0.00    +0.000 A 
ENDBRANCH   1   2
BRANCH   1   9
ATOM      8  N   UNL     1      37.890   7.837  17.274  0.00  0.00    +0.000 NA
ATOM      9  C   UNL     1      38.259   7.239  18.508  0.00  0.00    +0.000 C 
ATOM     10  O   UNL     1      38.086   7.938  19.514  0.00  0.00    +0.000 OA
BRANCH   8  17
ATOM     11  C   UNL     1      34.139  11.119  17.426  0.00  0.00    +0.000 C 
ATOM     12  C   UNL     1      35.564  10.751  17.214  0.00  0.00    +0.000 A 
ATOM     13  C   UNL     1      36.419  11.788  16.865  0.00  0.00    +0.000 A 
ATOM     14  C   UNL     1      37.740  11.470  16.664  0.00  0.00    +0.000 A 
ATOM     15  C   UNL     1      38.204  10.172  16.801  0.00  0.00    +0.000 A 
ATOM     16  C   UNL     1      39.636   9.875  16.575  0.00  0.00    +0.000 C 
ATOM     17  C   UNL     1      37.356   9.141  17.147  0.00  0.00    +0.000 A 
ATOM     18  C   UNL     1      36.029   9.459  17.350  0.00  0.00    +0.000 A 
ENDBRANCH   8  17
ENDBRANCH   1   9
BRANCH   1  19
ATOM     19  S   UNL     1      38.848   5.403  16.695  0.00  0.00    +0.000 S 
BRANCH  19  20
ATOM     20  C   UNL     1      37.705   4.042  16.545  0.00  0.00    +0.000 A 
ATOM     21  N   UNL     1      37.319   3.120  17.424  0.00  0.00    +0.000 NA
ATOM     22  N   UNL     1      36.443   2.272  16.911  0.00  0.00    +0.000 NA
ATOM     23  C   UNL     1      36.274   2.689  15.641  0.00  0.00    +0.000 A 
ATOM     24  C   UNL     1      35.366   2.052  14.621  0.00  0.00    +0.000 C 
ATOM     25  N   UNL     1      37.035   3.769  15.396  0.00  0.00    +0.000 N 
BRANCH  25  26
ATOM     26  C   UNL     1      37.136   4.508  14.162  0.00  0.00    +0.000 C 
BRANCH  26  27
ATOM     27  C   UNL     1      36.183   5.650  14.116  0.00  0.00    +0.000 A 
ATOM     28  C   UNL     1      36.740   6.923  14.005  0.00  0.00    +0.000 A 
ATOM     29  C   UNL     1      35.970   8.060  13.951  0.00  0.00    +0.000 A 
ATOM     30  C   UNL     1      34.575   7.940  14.008  0.00  0.00    +0.000 A 
ATOM     31  C   UNL     1      34.024   6.670  14.118  0.00  0.00    +0.000 A 
ATOM     32  C   UNL     1      34.824   5.533  14.172  0.00  0.00    +0.000 A 
ENDBRANCH  26  27
ENDBRANCH  25  26
ENDBRANCH  19  20
ENDBRANCH   1  19
TORSDOF 7
ENDMDL
MODEL 10
REMARK VINA RESULT:      -6.5      3.780      5.702
REMARK  Name = 
REMARK  7 active torsions:
REMARK  status: ('A' for Active; 'I' for Inactive)
REMARK    1  A    between atoms: C_7  and  N_8
REMARK    2  A    between atoms: C_9  and  C_11
REMARK    3  A    between atoms: C_11  and  S_12
REMARK    4  A    between atoms: C_11  and  C_26
REMARK    5  A    between atoms: S_12  and  C_13
REMARK    6  A    between atoms: N_18  and  C_19
REMARK    7  A    between atoms: C_19  and  C_20
REMARK                            x       y       z     vdW  Elec       q    Type
REMARK                         _______ _______ _______ _____ _____    ______ ____
ROOT
ATOM      1  C   UNL     1      38.361   3.967  14.766  0.00  0.00    +0.000 C 
ENDROOT
BRANCH   1   2
ATOM      2  C   UNL     1      37.102   4.772  14.363  0.00  0.00    +0.000 A 
ATOM      3  C   UNL     1      35.846   4.402  14.619  0.00  0.00    +0.000 A 
ATOM      4  C   UNL     1      34.789   5.193  14.217  0.00  0.00    +0.000 A 
ATOM      5  C   UNL     1      35.075   6.366  13.546  0.00  0.00    +0.000 A 
ATOM      6  C   UNL     1      36.355   6.772  13.268  0.00  0.00    +0.000 A 
ATOM      7  C   UNL     1      37.377   5.937  13.698  0.00  0.00    +0.000 A 
ENDBRANCH   1   2
BRANCH   1   9
ATOM      8  N   UNL     1      39.203   5.743  16.426  0.00  0.00    +0.000 NA
ATOM      9  C   UNL     1      38.551   4.504  16.194  0.00  0.00    +0.000 C 
ATOM     10  O   UNL     1      38.158   3.907  17.205  0.00  0.00    +0.000 OA
BRANCH   8  17
ATOM     11  C   UNL     1      41.713   6.164  20.714  0.00  0.00    +0.000 C 
ATOM     12  C   UNL     1      40.609   6.533  19.789  0.00  0.00    +0.000 A 
ATOM     13  C   UNL     1      39.733   7.510  20.239  0.00  0.00    +0.000 A 
ATOM     14  C   UNL     1      38.706   7.866  19.400  0.00  0.00    +0.000 A 
ATOM     15  C   UNL     1      38.547   7.277  18.156  0.00  0.00    +0.000 A 
ATOM     16  C   UNL     1      37.425   7.692  17.284  0.00  0.00    +0.000 C 
ATOM     17  C   UNL     1      39.416   6.305  17.707  0.00  0.00    +0.000 A 
ATOM     18  C   UNL     1      40.449   5.948  18.549  0.00  0.00    +0.000 A 
ENDBRANCH   8  17
ENDBRANCH   1   9
BRANCH   1  19
ATOM     19  S   UNL     1      37.479   2.323  15.146  0.00  0.00    +0.000 S 
BRANCH  19  20
ATOM     20  C   UNL     1      38.737   1.087  14.879  0.00  0.00    +0.000 A 
ATOM     21  N   UNL     1      40.025   1.200  14.563  0.00  0.00    +0.000 NA
ATOM     22  N   UNL     1      40.620   0.024  14.452  0.00  0.00    +0.000 NA
ATOM     23  C   UNL     1      39.649  -0.872  14.714  0.00  0.00    +0.000 A 
ATOM     24  C   UNL     1      39.814  -2.370  14.717  0.00  0.00    +0.000 C 
ATOM     25  N   UNL     1      38.490  -0.245  14.977  0.00  0.00    +0.000 N 
BRANCH  25  26
ATOM     26  C   UNL     1      37.222  -0.848  15.303  0.00  0.00    +0.000 C 
BRANCH  26  27
ATOM     27  C   UNL     1      37.020  -0.965  16.773  0.00  0.00    +0.000 A 
ATOM     28  C   UNL     1      35.948  -0.256  17.313  0.00  0.00    +0.000 A 
ATOM     29  C   UNL     1      35.653  -0.279  18.654  0.00  0.00    +0.000 A 
ATOM     30  C   UNL     1      36.453  -1.043  19.513  0.00  0.00    +0.000 A 
ATOM     31  C   UNL     1      37.519  -1.749  18.972  0.00  0.00    +0.000 A 
ATOM     32  C   UNL     1      37.800  -1.709  17.610  0.00  0.00    +0.000 A 
ENDBRANCH  26  27
ENDBRANCH  25  26
ENDBRANCH  19  20
ENDBRANCH   1  19
TORSDOF 7
ENDMDL
