MODEL 1
REMARK VINA RESULT:      -7.0      0.000      0.000
REMARK  Name = 
REMARK  3 active torsions:
REMARK  status: ('A' for Active; 'I' for Inactive)
REMARK    1  A    between atoms: O_2  and  C_3
REMARK    2  A    between atoms: C_3  and  C_5
REMARK    3  A    between atoms: C_12  and  C_13
REMARK                            x       y       z     vdW  Elec       q    Type
REMARK                         _______ _______ _______ _____ _____    ______ ____
ROOT
ATOM      1  C   UNL     1      27.925  23.834  24.960  0.00  0.00    +0.000 C 
ATOM      2  C   UNL     1      28.117  23.873  23.680  0.00  0.00    +0.000 C 
ATOM      3  C   UNL     1      29.416  24.563  23.257  0.00  0.00    +0.000 C 
ATOM      4  N   UNL     1      27.206  23.492  22.645  0.00  0.00    +0.000 NA
ATOM      5  C   UNL     1      25.939  23.038  23.106  0.00  0.00    +0.000 C 
ATOM      6  O   UNL     1      25.057  22.658  22.227  0.00  0.00    +0.000 OA
ATOM      7  N   UNL     1      25.720  23.025  24.457  0.00  0.00    +0.000 NA
ATOM      8  C   UNL     1      26.735  22.994  25.501  0.00  0.00    +0.000 C 
ENDROOT
BRANCH   8   9
ATOM      9  C   UNL     1      26.152  23.943  26.618  0.00  0.00    +0.000 A 
ATOM     10  C   UNL     1      25.484  25.060  26.217  0.00  0.00    +0.000 A 
ATOM     11  O   UNL     1      25.280  25.420  24.893  0.00  0.00    +0.000 OA
ATOM     12  C   UNL     1      24.944  25.940  27.172  0.00  0.00    +0.000 A 
ATOM     13  C   UNL     1      25.119  25.626  28.488  0.00  0.00    +0.000 A 
ATOM     14  C   UNL     1      25.787  24.512  28.878  0.00  0.00    +0.000 A 
ATOM     15  C   UNL     1      25.932  24.247  30.227  0.00  0.00    +0.000 A 
ATOM     16  C   UNL     1      26.619  23.099  30.610  0.00  0.00    +0.000 A 
ATOM     17  C   UNL     1      27.147  22.239  29.669  0.00  0.00    +0.000 A 
ATOM     18  C   UNL     1      26.969  22.557  28.334  0.00  0.00    +0.000 A 
ATOM     19  C   UNL     1      26.302  23.673  27.919  0.00  0.00    +0.000 A 
ENDBRANCH   8   9
BRANCH   1  20
ATOM     20  C   UNL     1      28.868  24.418  25.893  0.00  0.00    +0.000 C 
ATOM     21  O   UNL     1      28.985  25.652  26.101  0.00  0.00    +0.000 OA
BRANCH  20  23
ATOM     22  C   UNL     1      30.279  22.408  26.083  0.00  0.00    +0.000 C 
ATOM     23  O   UNL     1      29.691  23.603  26.598  0.00  0.00    +0.000 OA
ENDBRANCH  20  23
ENDBRANCH   1  20
TORSDOF 3
ENDMDL
MODEL 2
REMARK VINA RESULT:      -7.0      2.794      5.778
REMARK  Name = 
REMARK  3 active torsions:
REMARK  status: ('A' for Active; 'I' for Inactive)
REMARK    1  A    between atoms: O_2  and  C_3
REMARK    2  A    between atoms: C_3  and  C_5
REMARK    3  A    between atoms: C_12  and  C_13
REMARK                            x       y       z     vdW  Elec       q    Type
REMARK                         _______ _______ _______ _____ _____    ______ ____
ROOT
ATOM      1  C   UNL     1      27.073  24.462  28.843  0.00  0.00    +0.000 C 
ATOM      2  C   UNL     1      26.490  24.603  29.990  0.00  0.00    +0.000 C 
ATOM      3  C   UNL     1      26.489  26.037  30.525  0.00  0.00    +0.000 C 
ATOM      4  N   UNL     1      25.997  23.576  30.857  0.00  0.00    +0.000 NA
ATOM      5  C   UNL     1      26.204  22.250  30.384  0.00  0.00    +0.000 C 
ATOM      6  O   UNL     1      25.773  21.258  31.107  0.00  0.00    +0.000 OA
ATOM      7  N   UNL     1      26.849  22.094  29.186  0.00  0.00    +0.000 NA
ATOM      8  C   UNL     1      26.964  23.087  28.126  0.00  0.00    +0.000 C 
ENDROOT
BRANCH   8   9
ATOM      9  C   UNL     1      28.433  22.888  27.586  0.00  0.00    +0.000 A 
ATOM     10  C   UNL     1      29.422  22.679  28.498  0.00  0.00    +0.000 A 
ATOM     11  O   UNL     1      29.227  22.627  29.870  0.00  0.00    +0.000 OA
ATOM     12  C   UNL     1      30.749  22.496  28.069  0.00  0.00    +0.000 A 
ATOM     13  C   UNL     1      30.989  22.538  26.727  0.00  0.00    +0.000 A 
ATOM     14  C   UNL     1      29.998  22.749  25.826  0.00  0.00    +0.000 A 
ATOM     15  C   UNL     1      30.303  22.781  24.478  0.00  0.00    +0.000 A 
ATOM     16  C   UNL     1      29.273  22.997  23.567  0.00  0.00    +0.000 A 
ATOM     17  C   UNL     1      27.973  23.176  23.993  0.00  0.00    +0.000 A 
ATOM     18  C   UNL     1      27.729  23.133  25.354  0.00  0.00    +0.000 A 
ATOM     19  C   UNL     1      28.711  22.923  26.279  0.00  0.00    +0.000 A 
ENDBRANCH   8   9
BRANCH   1  20
ATOM     20  C   UNL     1      27.681  25.580  28.152  0.00  0.00    +0.000 C 
ATOM     21  O   UNL     1      27.163  26.173  27.171  0.00  0.00    +0.000 OA
BRANCH  20  23
ATOM     22  C   UNL     1      30.000  26.279  27.707  0.00  0.00    +0.000 C 
ATOM     23  O   UNL     1      28.888  26.037  28.568  0.00  0.00    +0.000 OA
ENDBRANCH  20  23
ENDBRANCH   1  20
TORSDOF 3
ENDMDL
MODEL 3
REMARK VINA RESULT:      -6.6     32.390     33.946
REMARK  Name = 
REMARK  3 active torsions:
REMARK  status: ('A' for Active; 'I' for Inactive)
REMARK    1  A    between atoms: O_2  and  C_3
REMARK    2  A    between atoms: C_3  and  C_5
REMARK    3  A    between atoms: C_12  and  C_13
REMARK                            x       y       z     vdW  Elec       q    Type
REMARK                         _______ _______ _______ _____ _____    ______ ____
ROOT
ATOM      1  C   UNL     1      17.801  -9.925  26.606  0.00  0.00    +0.000 C 
ATOM      2  C   UNL     1      16.819 -10.440  27.275  0.00  0.00    +0.000 C 
ATOM      3  C   UNL     1      15.662 -10.945  26.410  0.00  0.00    +0.000 C 
ATOM      4  N   UNL     1      16.634 -10.448  28.694  0.00  0.00    +0.000 NA
ATOM      5  C   UNL     1      17.657  -9.789  29.431  0.00  0.00    +0.000 C 
ATOM      6  O   UNL     1      17.571  -9.764  30.729  0.00  0.00    +0.000 OA
ATOM      7  N   UNL     1      18.681  -9.215  28.726  0.00  0.00    +0.000 NA
ATOM      8  C   UNL     1      19.101  -9.555  27.374  0.00  0.00    +0.000 C 
ENDROOT
BRANCH   8   9
ATOM      9  C   UNL     1      19.466  -8.160  26.734  0.00  0.00    +0.000 A 
ATOM     10  C   UNL     1      18.590  -7.133  26.908  0.00  0.00    +0.000 A 
ATOM     11  O   UNL     1      17.398  -7.228  27.611  0.00  0.00    +0.000 OA
ATOM     12  C   UNL     1      18.868  -5.868  26.358  0.00  0.00    +0.000 A 
ATOM     13  C   UNL     1      20.031  -5.727  25.659  0.00  0.00    +0.000 A 
ATOM     14  C   UNL     1      20.896  -6.756  25.489  0.00  0.00    +0.000 A 
ATOM     15  C   UNL     1      22.059  -6.552  24.770  0.00  0.00    +0.000 A 
ATOM     16  C   UNL     1      22.938  -7.619  24.606  0.00  0.00    +0.000 A 
ATOM     17  C   UNL     1      22.661  -8.857  25.148  0.00  0.00    +0.000 A 
ATOM     18  C   UNL     1      21.482  -9.001  25.858  0.00  0.00    +0.000 A 
ATOM     19  C   UNL     1      20.595  -7.979  26.040  0.00  0.00    +0.000 A 
ENDBRANCH   8   9
BRANCH   1  20
ATOM     20  C   UNL     1      17.775  -9.832  25.161  0.00  0.00    +0.000 C 
ATOM     21  O   UNL     1      17.086  -9.000  24.518  0.00  0.00    +0.000 OA
BRANCH  20  23
ATOM     22  C   UNL     1      19.245 -10.323  23.247  0.00  0.00    +0.000 C 
ATOM     23  O   UNL     1      18.533 -10.686  24.429  0.00  0.00    +0.000 OA
ENDBRANCH  20  23
ENDBRANCH   1  20
TORSDOF 3
ENDMDL
MODEL 4
REMARK VINA RESULT:      -6.3      1.656      2.710
REMARK  Name = 
REMARK  3 active torsions:
REMARK  status: ('A' for Active; 'I' for Inactive)
REMARK    1  A    between atoms: O_2  and  C_3
REMARK    2  A    between atoms: C_3  and  C_5
REMARK    3  A    between atoms: C_12  and  C_13
REMARK                            x       y       z     vdW  Elec       q    Type
REMARK                         _______ _______ _______ _____ _____    ______ ____
ROOT
ATOM      1  C   UNL     1      28.468  25.013  23.514  0.00  0.00    +0.000 C 
ATOM      2  C   UNL     1      28.061  25.532  22.400  0.00  0.00    +0.000 C 
ATOM      3  C   UNL     1      28.549  26.962  22.155  0.00  0.00    +0.000 C 
ATOM      4  N   UNL     1      27.111  24.993  21.476  0.00  0.00    +0.000 NA
ATOM      5  C   UNL     1      26.549  23.744  21.863  0.00  0.00    +0.000 C 
ATOM      6  O   UNL     1      25.686  23.178  21.070  0.00  0.00    +0.000 OA
ATOM      7  N   UNL     1      26.952  23.206  23.056  0.00  0.00    +0.000 NA
ATOM      8  C   UNL     1      28.185  23.506  23.771  0.00  0.00    +0.000 C 
ENDROOT
BRANCH   8   9
ATOM      9  C   UNL     1      27.746  23.515  25.286  0.00  0.00    +0.000 A 
ATOM     10  C   UNL     1      26.495  23.966  25.582  0.00  0.00    +0.000 A 
ATOM     11  O   UNL     1      25.581  24.419  24.643  0.00  0.00    +0.000 OA
ATOM     12  C   UNL     1      26.054  23.995  26.917  0.00  0.00    +0.000 A 
ATOM     13  C   UNL     1      26.920  23.558  27.877  0.00  0.00    +0.000 A 
ATOM     14  C   UNL     1      28.164  23.112  27.572  0.00  0.00    +0.000 A 
ATOM     15  C   UNL     1      28.997  22.683  28.589  0.00  0.00    +0.000 A 
ATOM     16  C   UNL     1      30.270  22.226  28.259  0.00  0.00    +0.000 A 
ATOM     17  C   UNL     1      30.698  22.200  26.948  0.00  0.00    +0.000 A 
ATOM     18  C   UNL     1      29.820  22.642  25.974  0.00  0.00    +0.000 A 
ATOM     19  C   UNL     1      28.564  23.097  26.257  0.00  0.00    +0.000 A 
ENDBRANCH   8   9
BRANCH   1  20
ATOM     20  C   UNL     1      29.302  25.750  24.442  0.00  0.00    +0.000 C 
ATOM     21  O   UNL     1      28.860  26.517  25.335  0.00  0.00    +0.000 OA
BRANCH  20  23
ATOM     22  C   UNL     1      31.548  25.874  25.443  0.00  0.00    +0.000 C 
ATOM     23  O   UNL     1      30.650  25.625  24.362  0.00  0.00    +0.000 OA
ENDBRANCH  20  23
ENDBRANCH   1  20
TORSDOF 3
ENDMDL
MODEL 5
REMARK VINA RESULT:      -6.1      1.170      2.966
REMARK  Name = 
REMARK  3 active torsions:
REMARK  status: ('A' for Active; 'I' for Inactive)
REMARK    1  A    between atoms: O_2  and  C_3
REMARK    2  A    between atoms: C_3  and  C_5
REMARK    3  A    between atoms: C_12  and  C_13
REMARK                            x       y       z     vdW  Elec       q    Type
REMARK                         _______ _______ _______ _____ _____    ______ ____
ROOT
ATOM      1  C   UNL     1      27.969  23.867  25.183  0.00  0.00    +0.000 C 
ATOM      2  C   UNL     1      28.110  24.016  23.904  0.00  0.00    +0.000 C 
ATOM      3  C   UNL     1      29.334  24.839  23.496  0.00  0.00    +0.000 C 
ATOM      4  N   UNL     1      27.195  23.639  22.870  0.00  0.00    +0.000 NA
ATOM      5  C   UNL     1      25.985  23.050  23.334  0.00  0.00    +0.000 C 
ATOM      6  O   UNL     1      25.104  22.666  22.456  0.00  0.00    +0.000 OA
ATOM      7  N   UNL     1      25.817  22.920  24.687  0.00  0.00    +0.000 NA
ATOM      8  C   UNL     1      26.869  22.895  25.693  0.00  0.00    +0.000 C 
ENDROOT
BRANCH   8   9
ATOM      9  C   UNL     1      26.254  23.709  26.896  0.00  0.00    +0.000 A 
ATOM     10  C   UNL     1      26.592  23.329  28.160  0.00  0.00    +0.000 A 
ATOM     11  O   UNL     1      27.440  22.274  28.461  0.00  0.00    +0.000 OA
ATOM     12  C   UNL     1      26.071  24.020  29.268  0.00  0.00    +0.000 A 
ATOM     13  C   UNL     1      25.231  25.067  29.020  0.00  0.00    +0.000 A 
ATOM     14  C   UNL     1      24.899  25.438  27.759  0.00  0.00    +0.000 A 
ATOM     15  C   UNL     1      24.043  26.507  27.570  0.00  0.00    +0.000 A 
ATOM     16  C   UNL     1      23.713  26.875  26.269  0.00  0.00    +0.000 A 
ATOM     17  C   UNL     1      24.227  26.193  25.186  0.00  0.00    +0.000 A 
ATOM     18  C   UNL     1      25.079  25.132  25.437  0.00  0.00    +0.000 A 
ATOM     19  C   UNL     1      25.426  24.740  26.698  0.00  0.00    +0.000 A 
ENDBRANCH   8   9
BRANCH   1  20
ATOM     20  C   UNL     1      28.896  24.456  26.127  0.00  0.00    +0.000 C 
ATOM     21  O   UNL     1      29.828  23.826  26.689  0.00  0.00    +0.000 OA
BRANCH  20  23
ATOM     22  C   UNL     1      28.881  26.292  27.768  0.00  0.00    +0.000 C 
ATOM     23  O   UNL     1      28.772  25.768  26.445  0.00  0.00    +0.000 OA
ENDBRANCH  20  23
ENDBRANCH   1  20
TORSDOF 3
ENDMDL
MODEL 6
REMARK VINA RESULT:      -6.1     32.310     33.770
REMARK  Name = 
REMARK  3 active torsions:
REMARK  status: ('A' for Active; 'I' for Inactive)
REMARK    1  A    between atoms: O_2  and  C_3
REMARK    2  A    between atoms: C_3  and  C_5
REMARK    3  A    between atoms: C_12  and  C_13
REMARK                            x       y       z     vdW  Elec       q    Type
REMARK                         _______ _______ _______ _____ _____    ______ ____
ROOT
ATOM      1  C   UNL     1      18.263  -9.868  26.854  0.00  0.00    +0.000 C 
ATOM      2  C   UNL     1      18.390 -11.092  26.452  0.00  0.00    +0.000 C 
ATOM      3  C   UNL     1      19.016 -12.034  27.483  0.00  0.00    +0.000 C 
ATOM      4  N   UNL     1      18.160 -11.613  25.138  0.00  0.00    +0.000 NA
ATOM      5  C   UNL     1      17.763 -10.643  24.176  0.00  0.00    +0.000 C 
ATOM      6  O   UNL     1      17.520 -11.036  22.960  0.00  0.00    +0.000 OA
ATOM      7  N   UNL     1      17.658  -9.341  24.589  0.00  0.00    +0.000 NA
ATOM      8  C   UNL     1      17.470  -8.877  25.957  0.00  0.00    +0.000 C 
ENDROOT
BRANCH   8   9
ATOM      9  C   UNL     1      18.367  -7.582  26.038  0.00  0.00    +0.000 A 
ATOM     10  C   UNL     1      17.845  -6.485  26.653  0.00  0.00    +0.000 A 
ATOM     11  O   UNL     1      16.577  -6.428  27.213  0.00  0.00    +0.000 OA
ATOM     12  C   UNL     1      18.603  -5.304  26.753  0.00  0.00    +0.000 A 
ATOM     13  C   UNL     1      19.857  -5.313  26.216  0.00  0.00    +0.000 A 
ATOM     14  C   UNL     1      20.368  -6.410  25.604  0.00  0.00    +0.000 A 
ATOM     15  C   UNL     1      21.646  -6.358  25.079  0.00  0.00    +0.000 A 
ATOM     16  C   UNL     1      22.157  -7.493  24.455  0.00  0.00    +0.000 A 
ATOM     17  C   UNL     1      21.409  -8.649  24.360  0.00  0.00    +0.000 A 
ATOM     18  C   UNL     1      20.137  -8.640  24.905  0.00  0.00    +0.000 A 
ATOM     19  C   UNL     1      19.601  -7.548  25.524  0.00  0.00    +0.000 A 
ENDBRANCH   8   9
BRANCH   1  20
ATOM     20  C   UNL     1      18.701  -9.447  28.169  0.00  0.00    +0.000 C 
ATOM     21  O   UNL     1      19.905  -9.328  28.510  0.00  0.00    +0.000 OA
BRANCH  20  23
ATOM     22  C   UNL     1      17.426 -10.018  30.197  0.00  0.00    +0.000 C 
ATOM     23  O   UNL     1      17.772  -9.156  29.113  0.00  0.00    +0.000 OA
ENDBRANCH  20  23
ENDBRANCH   1  20
TORSDOF 3
ENDMDL
MODEL 7
REMARK VINA RESULT:      -6.1      1.831      3.569
REMARK  Name = 
REMARK  3 active torsions:
REMARK  status: ('A' for Active; 'I' for Inactive)
REMARK    1  A    between atoms: O_2  and  C_3
REMARK    2  A    between atoms: C_3  and  C_5
REMARK    3  A    between atoms: C_12  and  C_13
REMARK                            x       y       z     vdW  Elec       q    Type
REMARK                         _______ _______ _______ _____ _____    ______ ____
ROOT
ATOM      1  C   UNL     1      28.981  24.926  23.374  0.00  0.00    +0.000 C 
ATOM      2  C   UNL     1      28.413  25.604  22.428  0.00  0.00    +0.000 C 
ATOM      3  C   UNL     1      28.860  27.066  22.343  0.00  0.00    +0.000 C 
ATOM      4  N   UNL     1      27.335  25.195  21.581  0.00  0.00    +0.000 NA
ATOM      5  C   UNL     1      26.836  23.889  21.844  0.00  0.00    +0.000 C 
ATOM      6  O   UNL     1      25.864  23.434  21.108  0.00  0.00    +0.000 OA
ATOM      7  N   UNL     1      27.412  23.179  22.864  0.00  0.00    +0.000 NA
ATOM      8  C   UNL     1      28.738  23.392  23.428  0.00  0.00    +0.000 C 
ENDROOT
BRANCH   8   9
ATOM      9  C   UNL     1      28.530  23.154  24.973  0.00  0.00    +0.000 A 
ATOM     10  C   UNL     1      29.502  22.481  25.649  0.00  0.00    +0.000 A 
ATOM     11  O   UNL     1      30.664  21.990  25.071  0.00  0.00    +0.000 OA
ATOM     12  C   UNL     1      29.366  22.241  27.028  0.00  0.00    +0.000 A 
ATOM     13  C   UNL     1      28.238  22.706  27.640  0.00  0.00    +0.000 A 
ATOM     14  C   UNL     1      27.275  23.374  26.958  0.00  0.00    +0.000 A 
ATOM     15  C   UNL     1      26.155  23.821  27.634  0.00  0.00    +0.000 A 
ATOM     16  C   UNL     1      25.176  24.506  26.920  0.00  0.00    +0.000 A 
ATOM     17  C   UNL     1      25.314  24.738  25.567  0.00  0.00    +0.000 A 
ATOM     18  C   UNL     1      26.457  24.268  24.946  0.00  0.00    +0.000 A 
ATOM     19  C   UNL     1      27.440  23.592  25.611  0.00  0.00    +0.000 A 
ENDBRANCH   8   9
BRANCH   1  20
ATOM     20  C   UNL     1      29.945  25.528  24.273  0.00  0.00    +0.000 C 
ATOM     21  O   UNL     1      31.186  25.338  24.210  0.00  0.00    +0.000 OA
BRANCH  20  23
ATOM     22  C   UNL     1      30.288  27.389  25.849  0.00  0.00    +0.000 C 
ATOM     23  O   UNL     1      29.506  26.354  25.255  0.00  0.00    +0.000 OA
ENDBRANCH  20  23
ENDBRANCH   1  20
TORSDOF 3
ENDMDL
MODEL 8
REMARK VINA RESULT:      -6.0      2.069      4.682
REMARK  Name = 
REMARK  3 active torsions:
REMARK  status: ('A' for Active; 'I' for Inactive)
REMARK    1  A    between atoms: O_2  and  C_3
REMARK    2  A    between atoms: C_3  and  C_5
REMARK    3  A    between atoms: C_12  and  C_13
REMARK                            x       y       z     vdW  Elec       q    Type
REMARK                         _______ _______ _______ _____ _____    ______ ____
ROOT
ATOM      1  C   UNL     1      26.933  25.065  25.531  0.00  0.00    +0.000 C 
ATOM      2  C   UNL     1      25.672  24.936  25.265  0.00  0.00    +0.000 C 
ATOM      3  C   UNL     1      24.740  25.558  26.308  0.00  0.00    +0.000 C 
ATOM      4  N   UNL     1      25.070  24.167  24.218  0.00  0.00    +0.000 NA
ATOM      5  C   UNL     1      25.990  23.456  23.400  0.00  0.00    +0.000 C 
ATOM      6  O   UNL     1      25.524  22.743  22.415  0.00  0.00    +0.000 OA
ATOM      7  N   UNL     1      27.323  23.563  23.696  0.00  0.00    +0.000 NA
ATOM      8  C   UNL     1      27.961  24.635  24.447  0.00  0.00    +0.000 C 
ENDROOT
BRANCH   8   9
ATOM      9  C   UNL     1      29.048  23.889  25.313  0.00  0.00    +0.000 A 
ATOM     10  C   UNL     1      28.676  22.745  25.952  0.00  0.00    +0.000 A 
ATOM     11  O   UNL     1      27.406  22.191  25.894  0.00  0.00    +0.000 OA
ATOM     12  C   UNL     1      29.606  22.041  26.737  0.00  0.00    +0.000 A 
ATOM     13  C   UNL     1      30.870  22.549  26.823  0.00  0.00    +0.000 A 
ATOM     14  C   UNL     1      31.231  23.689  26.184  0.00  0.00    +0.000 A 
ATOM     15  C   UNL     1      32.527  24.155  26.310  0.00  0.00    +0.000 A 
ATOM     16  C   UNL     1      32.881  25.325  25.646  0.00  0.00    +0.000 A 
ATOM     17  C   UNL     1      31.964  26.012  24.878  0.00  0.00    +0.000 A 
ATOM     18  C   UNL     1      30.683  25.498  24.789  0.00  0.00    +0.000 A 
ATOM     19  C   UNL     1      30.297  24.353  25.425  0.00  0.00    +0.000 A 
ENDBRANCH   8   9
BRANCH   1  20
ATOM     20  C   UNL     1      27.397  25.732  26.730  0.00  0.00    +0.000 C 
ATOM     21  O   UNL     1      27.864  26.899  26.755  0.00  0.00    +0.000 OA
BRANCH  20  23
ATOM     22  C   UNL     1      28.400  25.026  28.865  0.00  0.00    +0.000 C 
ATOM     23  O   UNL     1      27.336  25.077  27.916  0.00  0.00    +0.000 OA
ENDBRANCH  20  23
ENDBRANCH   1  20
TORSDOF 3
ENDMDL
MODEL 9
REMARK VINA RESULT:      -6.0      2.894      5.254
REMARK  Name = 
REMARK  3 active torsions:
REMARK  status: ('A' for Active; 'I' for Inactive)
REMARK    1  A    between atoms: O_2  and  C_3
REMARK    2  A    between atoms: C_3  and  C_5
REMARK    3  A    between atoms: C_12  and  C_13
REMARK                            x       y       z     vdW  Elec       q    Type
REMARK                         _______ _______ _______ _____ _____    ______ ____
ROOT
ATOM      1  C   UNL     1      26.981  24.440  28.584  0.00  0.00    +0.000 C 
ATOM      2  C   UNL     1      26.442  24.648  29.743  0.00  0.00    +0.000 C 
ATOM      3  C   UNL     1      26.432  26.115  30.180  0.00  0.00    +0.000 C 
ATOM      4  N   UNL     1      26.009  23.674  30.697  0.00  0.00    +0.000 NA
ATOM      5  C   UNL     1      26.226  22.323  30.306  0.00  0.00    +0.000 C 
ATOM      6  O   UNL     1      25.847  21.374  31.112  0.00  0.00    +0.000 OA
ATOM      7  N   UNL     1      26.824  22.097  29.095  0.00  0.00    +0.000 NA
ATOM      8  C   UNL     1      26.873  23.017  27.967  0.00  0.00    +0.000 C 
ENDROOT
BRANCH   8   9
ATOM      9  C   UNL     1      28.323  22.811  27.380  0.00  0.00    +0.000 A 
ATOM     10  C   UNL     1      28.458  22.756  26.026  0.00  0.00    +0.000 A 
ATOM     11  O   UNL     1      27.408  22.869  25.127  0.00  0.00    +0.000 OA
ATOM     12  C   UNL     1      29.728  22.573  25.450  0.00  0.00    +0.000 A 
ATOM     13  C   UNL     1      30.792  22.458  26.296  0.00  0.00    +0.000 A 
ATOM     14  C   UNL     1      30.648  22.513  27.644  0.00  0.00    +0.000 A 
ATOM     15  C   UNL     1      31.764  22.389  28.449  0.00  0.00    +0.000 A 
ATOM     16  C   UNL     1      31.600  22.449  29.830  0.00  0.00    +0.000 A 
ATOM     17  C   UNL     1      30.351  22.628  30.389  0.00  0.00    +0.000 A 
ATOM     18  C   UNL     1      29.271  22.746  29.532  0.00  0.00    +0.000 A 
ATOM     19  C   UNL     1      29.393  22.693  28.173  0.00  0.00    +0.000 A 
ENDBRANCH   8   9
BRANCH   1  20
ATOM     20  C   UNL     1      27.536  25.520  27.794  0.00  0.00    +0.000 C 
ATOM     21  O   UNL     1      28.642  26.070  28.025  0.00  0.00    +0.000 OA
BRANCH  20  23
ATOM     22  C   UNL     1      27.407  26.726  25.650  0.00  0.00    +0.000 C 
ATOM     23  O   UNL     1      26.836  25.989  26.731  0.00  0.00    +0.000 OA
ENDBRANCH  20  23
ENDBRANCH   1  20
TORSDOF 3
ENDMDL
MODEL 10
REMARK VINA RESULT:      -6.0     17.538     19.589
REMARK  Name = 
REMARK  3 active torsions:
REMARK  status: ('A' for Active; 'I' for Inactive)
REMARK    1  A    between atoms: O_2  and  C_3
REMARK    2  A    between atoms: C_3  and  C_5
REMARK    3  A    between atoms: C_12  and  C_13
REMARK                            x       y       z     vdW  Elec       q    Type
REMARK                         _______ _______ _______ _____ _____    ______ ____
ROOT
ATOM      1  C   UNL     1      18.932  10.389  39.321  0.00  0.00    +0.000 C 
ATOM      2  C   UNL     1      17.718   9.938  39.316  0.00  0.00    +0.000 C 
ATOM      3  C   UNL     1      17.440   8.862  40.369  0.00  0.00    +0.000 C 
ATOM      4  N   UNL     1      16.683  10.213  38.366  0.00  0.00    +0.000 NA
ATOM      5  C   UNL     1      17.069  11.073  37.301  0.00  0.00    +0.000 C 
ATOM      6  O   UNL     1      16.183  11.384  36.400  0.00  0.00    +0.000 OA
ATOM      7  N   UNL     1      18.361  11.527  37.284  0.00  0.00    +0.000 NA
ATOM      8  C   UNL     1      19.266  11.611  38.422  0.00  0.00    +0.000 C 
ENDROOT
BRANCH   8   9
ATOM      9  C   UNL     1      20.663  11.194  37.819  0.00  0.00    +0.000 A 
ATOM     10  C   UNL     1      20.698  10.127  36.975  0.00  0.00    +0.000 A 
ATOM     11  O   UNL     1      19.588   9.380  36.607  0.00  0.00    +0.000 OA
ATOM     12  C   UNL     1      21.918   9.713  36.410  0.00  0.00    +0.000 A 
ATOM     13  C   UNL     1      23.038  10.419  36.743  0.00  0.00    +0.000 A 
ATOM     14  C   UNL     1      22.993  11.480  37.586  0.00  0.00    +0.000 A 
ATOM     15  C   UNL     1      24.162  12.155  37.885  0.00  0.00    +0.000 A 
ATOM     16  C   UNL     1      24.099  13.243  38.751  0.00  0.00    +0.000 A 
ATOM     17  C   UNL     1      22.900  13.645  39.302  0.00  0.00    +0.000 A 
ATOM     18  C   UNL     1      21.764  12.930  38.965  0.00  0.00    +0.000 A 
ATOM     19  C   UNL     1      21.785  11.858  38.120  0.00  0.00    +0.000 A 
ENDBRANCH   8   9
BRANCH   1  20
ATOM     20  C   UNL     1      19.929   9.889  40.246  0.00  0.00    +0.000 C 
ATOM     21  O   UNL     1      20.300  10.495  41.282  0.00  0.00    +0.000 OA
BRANCH  20  23
ATOM     22  C   UNL     1      21.918   8.443  40.109  0.00  0.00    +0.000 C 
ATOM     23  O   UNL     1      20.517   8.692  39.999  0.00  0.00    +0.000 OA
ENDBRANCH  20  23
ENDBRANCH   1  20
TORSDOF 3
ENDMDL
