MODEL 1
REMARK VINA RESULT:      -6.6      0.000      0.000
REMARK  Name = 
REMARK  2 active torsions:
REMARK  status: ('A' for Active; 'I' for Inactive)
REMARK    1  A    between atoms: C_2  and  C_3
REMARK    2  A    between atoms: N_8  and  C_9
REMARK                            x       y       z     vdW  Elec       q    Type
REMARK                         _______ _______ _______ _____ _____    ______ ____
ROOT
ATOM      1  C   UNL     1      17.752   9.925  36.100  0.00  0.00    +0.000 A 
ATOM      2  C   UNL     1      16.940  10.251  37.161  0.00  0.00    +0.000 A 
ATOM      3  O   UNL     1      17.304   9.980  38.494  0.00  0.00    +0.000 OA
ATOM      4  N   UNL     1      15.761  10.848  36.886  0.00  0.00    +0.000 N 
ATOM      5  C   UNL     1      15.390  11.119  35.598  0.00  0.00    +0.000 A 
ATOM      6  N   UNL     1      16.178  10.803  34.567  0.00  0.00    +0.000 N 
ATOM      7  C   UNL     1      17.360  10.208  34.793  0.00  0.00    +0.000 A 
ATOM      8  O   UNL     1      18.082   9.922  33.804  0.00  0.00    +0.000 OA
ATOM      9  C   UNL     1      14.089  11.778  35.311  0.00  0.00    +0.000 C 
ATOM     10  C   UNL     1      13.877  12.814  36.408  0.00  0.00    +0.000 C 
ATOM     11  C   UNL     1      13.769  12.065  37.699  0.00  0.00    +0.000 C 
ATOM     12  C   UNL     1      14.925  11.178  38.018  0.00  0.00    +0.000 C 
ENDROOT
BRANCH   6  13
ATOM     13  C   UNL     1      15.739  11.116  33.239  0.00  0.00    +0.000 A 
ATOM     14  C   UNL     1      14.878  10.293  32.548  0.00  0.00    +0.000 A 
ATOM     15  C   UNL     1      14.459  10.609  31.279  0.00  0.00    +0.000 A 
ATOM     16  C   UNL     1      14.897  11.763  30.671  0.00  0.00    +0.000 A 
ATOM     17  C   UNL     1      15.758  12.573  31.377  0.00  0.00    +0.000 A 
ATOM     18  C   UNL     1      16.183  12.272  32.643  0.00  0.00    +0.000 A 
ENDBRANCH   6  13
BRANCH   1  20
ATOM     19  C   UNL     1      20.055  10.259  36.903  0.00  0.00    +0.000 C 
ATOM     20  C   UNL     1      19.045   9.275  36.371  0.00  0.00    +0.000 C 
ENDBRANCH   1  20
TORSDOF 2
ENDMDL
MODEL 2
REMARK VINA RESULT:      -6.4     18.866     20.278
REMARK  Name = 
REMARK  2 active torsions:
REMARK  status: ('A' for Active; 'I' for Inactive)
REMARK    1  A    between atoms: C_2  and  C_3
REMARK    2  A    between atoms: N_8  and  C_9
REMARK                            x       y       z     vdW  Elec       q    Type
REMARK                         _______ _______ _______ _____ _____    ______ ____
ROOT
ATOM      1  C   UNL     1      33.543   1.445  34.556  0.00  0.00    +0.000 A 
ATOM      2  C   UNL     1      33.525   0.758  35.749  0.00  0.00    +0.000 A 
ATOM      3  O   UNL     1      33.147  -0.596  35.829  0.00  0.00    +0.000 OA
ATOM      4  N   UNL     1      33.886   1.432  36.861  0.00  0.00    +0.000 N 
ATOM      5  C   UNL     1      34.256   2.746  36.804  0.00  0.00    +0.000 A 
ATOM      6  N   UNL     1      34.273   3.413  35.646  0.00  0.00    +0.000 N 
ATOM      7  C   UNL     1      33.923   2.784  34.513  0.00  0.00    +0.000 A 
ATOM      8  O   UNL     1      33.948   3.436  33.438  0.00  0.00    +0.000 OA
ATOM      9  C   UNL     1      34.651   3.474  38.038  0.00  0.00    +0.000 C 
ATOM     10  C   UNL     1      35.445   2.487  38.887  0.00  0.00    +0.000 C 
ATOM     11  C   UNL     1      34.508   1.379  39.253  0.00  0.00    +0.000 C 
ATOM     12  C   UNL     1      33.856   0.689  38.102  0.00  0.00    +0.000 C 
ENDROOT
BRANCH   6  13
ATOM     13  C   UNL     1      34.675   4.789  35.646  0.00  0.00    +0.000 A 
ATOM     14  C   UNL     1      33.762   5.810  35.784  0.00  0.00    +0.000 A 
ATOM     15  C   UNL     1      34.162   7.124  35.790  0.00  0.00    +0.000 A 
ATOM     16  C   UNL     1      35.493   7.445  35.655  0.00  0.00    +0.000 A 
ATOM     17  C   UNL     1      36.391   6.410  35.518  0.00  0.00    +0.000 A 
ATOM     18  C   UNL     1      36.008   5.096  35.512  0.00  0.00    +0.000 A 
ENDBRANCH   6  13
BRANCH   1  20
ATOM     19  C   UNL     1      34.357   0.148  32.628  0.00  0.00    +0.000 C 
ATOM     20  C   UNL     1      33.156   0.735  33.325  0.00  0.00    +0.000 C 
ENDBRANCH   1  20
TORSDOF 2
ENDMDL
MODEL 3
REMARK VINA RESULT:      -6.2     20.269     21.608
REMARK  Name = 
REMARK  2 active torsions:
REMARK  status: ('A' for Active; 'I' for Inactive)
REMARK    1  A    between atoms: C_2  and  C_3
REMARK    2  A    between atoms: N_8  and  C_9
REMARK                            x       y       z     vdW  Elec       q    Type
REMARK                         _______ _______ _______ _____ _____    ______ ____
ROOT
ATOM      1  C   UNL     1      17.067 -10.396  29.040  0.00  0.00    +0.000 A 
ATOM      2  C   UNL     1      16.019 -10.882  28.293  0.00  0.00    +0.000 A 
ATOM      3  O   UNL     1      15.237 -11.972  28.719  0.00  0.00    +0.000 OA
ATOM      4  N   UNL     1      15.756 -10.274  27.117  0.00  0.00    +0.000 N 
ATOM      5  C   UNL     1      16.504  -9.214  26.686  0.00  0.00    +0.000 A 
ATOM      6  N   UNL     1      17.522  -8.742  27.411  0.00  0.00    +0.000 N 
ATOM      7  C   UNL     1      17.821  -9.315  28.588  0.00  0.00    +0.000 A 
ATOM      8  O   UNL     1      18.783  -8.850  29.250  0.00  0.00    +0.000 OA
ATOM      9  C   UNL     1      16.202  -8.554  25.389  0.00  0.00    +0.000 C 
ATOM     10  C   UNL     1      14.683  -8.527  25.260  0.00  0.00    +0.000 C 
ATOM     11  C   UNL     1      14.228  -9.951  25.201  0.00  0.00    +0.000 C 
ATOM     12  C   UNL     1      14.652 -10.804  26.349  0.00  0.00    +0.000 C 
ENDROOT
BRANCH   6  13
ATOM     13  C   UNL     1      18.268  -7.624  26.912  0.00  0.00    +0.000 A 
ATOM     14  C   UNL     1      17.884  -6.326  27.165  0.00  0.00    +0.000 A 
ATOM     15  C   UNL     1      18.612  -5.264  26.687  0.00  0.00    +0.000 A 
ATOM     16  C   UNL     1      19.746  -5.481  25.939  0.00  0.00    +0.000 A 
ATOM     17  C   UNL     1      20.114  -6.785  25.696  0.00  0.00    +0.000 A 
ATOM     18  C   UNL     1      19.399  -7.854  26.167  0.00  0.00    +0.000 A 
ENDBRANCH   6  13
BRANCH   1  20
ATOM     19  C   UNL     1      16.677 -10.346  31.470  0.00  0.00    +0.000 C 
ATOM     20  C   UNL     1      17.376 -11.039  30.329  0.00  0.00    +0.000 C 
ENDBRANCH   1  20
TORSDOF 2
ENDMDL
MODEL 4
REMARK VINA RESULT:      -6.1     19.208     20.630
REMARK  Name = 
REMARK  2 active torsions:
REMARK  status: ('A' for Active; 'I' for Inactive)
REMARK    1  A    between atoms: C_2  and  C_3
REMARK    2  A    between atoms: N_8  and  C_9
REMARK                            x       y       z     vdW  Elec       q    Type
REMARK                         _______ _______ _______ _____ _____    ______ ____
ROOT
ATOM      1  C   UNL     1      34.439   2.093  37.543  0.00  0.00    +0.000 A 
ATOM      2  C   UNL     1      34.304   3.167  36.693  0.00  0.00    +0.000 A 
ATOM      3  O   UNL     1      34.594   4.484  37.098  0.00  0.00    +0.000 OA
ATOM      4  N   UNL     1      33.876   2.919  35.437  0.00  0.00    +0.000 N 
ATOM      5  C   UNL     1      33.589   1.648  35.026  0.00  0.00    +0.000 A 
ATOM      6  N   UNL     1      33.720   0.605  35.850  0.00  0.00    +0.000 N 
ATOM      7  C   UNL     1      34.143   0.803  37.109  0.00  0.00    +0.000 A 
ATOM      8  O   UNL     1      34.257  -0.197  37.863  0.00  0.00    +0.000 OA
ATOM      9  C   UNL     1      33.120   1.391  33.639  0.00  0.00    +0.000 C 
ATOM     10  C   UNL     1      33.905   2.334  32.735  0.00  0.00    +0.000 C 
ATOM     11  C   UNL     1      33.527   3.728  33.128  0.00  0.00    +0.000 C 
ATOM     12  C   UNL     1      33.740   4.064  34.565  0.00  0.00    +0.000 C 
ENDROOT
BRANCH   6  13
ATOM     13  C   UNL     1      33.410  -0.707  35.361  0.00  0.00    +0.000 A 
ATOM     14  C   UNL     1      32.163  -1.266  35.531  0.00  0.00    +0.000 A 
ATOM     15  C   UNL     1      31.877  -2.521  35.051  0.00  0.00    +0.000 A 
ATOM     16  C   UNL     1      32.840  -3.247  34.389  0.00  0.00    +0.000 A 
ATOM     17  C   UNL     1      34.080  -2.671  34.230  0.00  0.00    +0.000 A 
ATOM     18  C   UNL     1      34.380  -1.421  34.701  0.00  0.00    +0.000 A 
ENDBRANCH   6  13
BRANCH   1  20
ATOM     19  C   UNL     1      33.752   2.597  39.853  0.00  0.00    +0.000 C 
ATOM     20  C   UNL     1      34.905   2.333  38.919  0.00  0.00    +0.000 C 
ENDBRANCH   1  20
TORSDOF 2
ENDMDL
MODEL 5
REMARK VINA RESULT:      -6.1     16.760     18.473
REMARK  Name = 
REMARK  2 active torsions:
REMARK  status: ('A' for Active; 'I' for Inactive)
REMARK    1  A    between atoms: C_2  and  C_3
REMARK    2  A    between atoms: N_8  and  C_9
REMARK                            x       y       z     vdW  Elec       q    Type
REMARK                         _______ _______ _______ _____ _____    ______ ____
ROOT
ATOM      1  C   UNL     1      26.560  23.532  29.184  0.00  0.00    +0.000 A 
ATOM      2  C   UNL     1      25.712  24.506  29.660  0.00  0.00    +0.000 A 
ATOM      3  O   UNL     1      25.475  24.686  31.036  0.00  0.00    +0.000 OA
ATOM      4  N   UNL     1      25.101  25.298  28.755  0.00  0.00    +0.000 N 
ATOM      5  C   UNL     1      25.318  25.139  27.414  0.00  0.00    +0.000 A 
ATOM      6  N   UNL     1      26.141  24.194  26.952  0.00  0.00    +0.000 N 
ATOM      7  C   UNL     1      26.772  23.382  27.815  0.00  0.00    +0.000 A 
ATOM      8  O   UNL     1      27.541  22.501  27.353  0.00  0.00    +0.000 OA
ATOM      9  C   UNL     1      24.639  26.021  26.429  0.00  0.00    +0.000 C 
ATOM     10  C   UNL     1      24.610  27.415  27.044  0.00  0.00    +0.000 C 
ATOM     11  C   UNL     1      23.771  27.327  28.280  0.00  0.00    +0.000 C 
ATOM     12  C   UNL     1      24.214  26.312  29.279  0.00  0.00    +0.000 C 
ENDROOT
BRANCH   6  13
ATOM     13  C   UNL     1      26.335  24.077  25.536  0.00  0.00    +0.000 A 
ATOM     14  C   UNL     1      25.565  23.233  24.767  0.00  0.00    +0.000 A 
ATOM     15  C   UNL     1      25.756  23.137  23.411  0.00  0.00    +0.000 A 
ATOM     16  C   UNL     1      26.730  23.886  22.792  0.00  0.00    +0.000 A 
ATOM     17  C   UNL     1      27.490  24.724  23.578  0.00  0.00    +0.000 A 
ATOM     18  C   UNL     1      27.310  24.832  24.931  0.00  0.00    +0.000 A 
ENDBRANCH   6  13
BRANCH   1  20
ATOM     19  C   UNL     1      26.388  21.465  30.510  0.00  0.00    +0.000 C 
ATOM     20  C   UNL     1      27.242  22.653  30.150  0.00  0.00    +0.000 C 
ENDBRANCH   1  20
TORSDOF 2
ENDMDL
MODEL 6
REMARK VINA RESULT:      -6.1     20.283     21.745
REMARK  Name = 
REMARK  2 active torsions:
REMARK  status: ('A' for Active; 'I' for Inactive)
REMARK    1  A    between atoms: C_2  and  C_3
REMARK    2  A    between atoms: N_8  and  C_9
REMARK                            x       y       z     vdW  Elec       q    Type
REMARK                         _______ _______ _______ _____ _____    ______ ____
ROOT
ATOM      1  C   UNL     1      15.429  -9.997  26.723  0.00  0.00    +0.000 A 
ATOM      2  C   UNL     1      15.770 -10.763  27.815  0.00  0.00    +0.000 A 
ATOM      3  O   UNL     1      15.005 -11.874  28.218  0.00  0.00    +0.000 OA
ATOM      4  N   UNL     1      16.877 -10.412  28.502  0.00  0.00    +0.000 N 
ATOM      5  C   UNL     1      17.631  -9.336  28.126  0.00  0.00    +0.000 A 
ATOM      6  N   UNL     1      17.302  -8.592  27.066  0.00  0.00    +0.000 N 
ATOM      7  C   UNL     1      16.209  -8.904  26.352  0.00  0.00    +0.000 A 
ATOM      8  O   UNL     1      15.921  -8.188  25.359  0.00  0.00    +0.000 OA
ATOM      9  C   UNL     1      18.849  -8.963  28.893  0.00  0.00    +0.000 C 
ATOM     10  C   UNL     1      19.520 -10.269  29.302  0.00  0.00    +0.000 C 
ATOM     11  C   UNL     1      18.568 -10.979  30.213  0.00  0.00    +0.000 C 
ATOM     12  C   UNL     1      17.212 -11.230  29.646  0.00  0.00    +0.000 C 
ENDROOT
BRANCH   6  13
ATOM     13  C   UNL     1      18.134  -7.479  26.715  0.00  0.00    +0.000 A 
ATOM     14  C   UNL     1      17.850  -6.201  27.139  0.00  0.00    +0.000 A 
ATOM     15  C   UNL     1      18.660  -5.145  26.802  0.00  0.00    +0.000 A 
ATOM     16  C   UNL     1      19.778  -5.348  26.027  0.00  0.00    +0.000 A 
ATOM     17  C   UNL     1      20.046  -6.633  25.613  0.00  0.00    +0.000 A 
ATOM     18  C   UNL     1      19.248  -7.696  25.941  0.00  0.00    +0.000 A 
ENDBRANCH   6  13
BRANCH   1  20
ATOM     19  C   UNL     1      13.012  -9.617  26.450  0.00  0.00    +0.000 C 
ATOM     20  C   UNL     1      14.227 -10.358  25.952  0.00  0.00    +0.000 C 
ENDBRANCH   1  20
TORSDOF 2
ENDMDL
MODEL 7
REMARK VINA RESULT:      -6.0     18.280     20.402
REMARK  Name = 
REMARK  2 active torsions:
REMARK  status: ('A' for Active; 'I' for Inactive)
REMARK    1  A    between atoms: C_2  and  C_3
REMARK    2  A    between atoms: N_8  and  C_9
REMARK                            x       y       z     vdW  Elec       q    Type
REMARK                         _______ _______ _______ _____ _____    ______ ____
ROOT
ATOM      1  C   UNL     1      27.631  22.993  28.127  0.00  0.00    +0.000 A 
ATOM      2  C   UNL     1      27.463  23.020  26.762  0.00  0.00    +0.000 A 
ATOM      3  O   UNL     1      26.191  23.115  26.165  0.00  0.00    +0.000 OA
ATOM      4  N   UNL     1      28.571  22.952  25.995  0.00  0.00    +0.000 N 
ATOM      5  C   UNL     1      29.814  22.859  26.556  0.00  0.00    +0.000 A 
ATOM      6  N   UNL     1      29.978  22.832  27.881  0.00  0.00    +0.000 N 
ATOM      7  C   UNL     1      28.905  22.898  28.684  0.00  0.00    +0.000 A 
ATOM      8  O   UNL     1      29.087  22.871  29.928  0.00  0.00    +0.000 OA
ATOM      9  C   UNL     1      31.026  22.786  25.698  0.00  0.00    +0.000 C 
ATOM     10  C   UNL     1      30.781  23.722  24.520  0.00  0.00    +0.000 C 
ATOM     11  C   UNL     1      29.612  23.171  23.764  0.00  0.00    +0.000 C 
ATOM     12  C   UNL     1      28.368  22.981  24.564  0.00  0.00    +0.000 C 
ENDROOT
BRANCH   6  13
ATOM     13  C   UNL     1      31.307  22.740  28.413  0.00  0.00    +0.000 A 
ATOM     14  C   UNL     1      31.841  21.538  28.821  0.00  0.00    +0.000 A 
ATOM     15  C   UNL     1      33.118  21.462  29.321  0.00  0.00    +0.000 A 
ATOM     16  C   UNL     1      33.890  22.596  29.426  0.00  0.00    +0.000 A 
ATOM     17  C   UNL     1      33.338  23.788  29.013  0.00  0.00    +0.000 A 
ATOM     18  C   UNL     1      32.068  23.879  28.511  0.00  0.00    +0.000 A 
ENDBRANCH   6  13
BRANCH   1  20
ATOM     19  C   UNL     1      26.068  24.497  29.291  0.00  0.00    +0.000 C 
ATOM     20  C   UNL     1      26.439  23.068  28.989  0.00  0.00    +0.000 C 
ENDBRANCH   1  20
TORSDOF 2
ENDMDL
MODEL 8
REMARK VINA RESULT:      -5.9      5.186      8.060
REMARK  Name = 
REMARK  2 active torsions:
REMARK  status: ('A' for Active; 'I' for Inactive)
REMARK    1  A    between atoms: C_2  and  C_3
REMARK    2  A    between atoms: N_8  and  C_9
REMARK                            x       y       z     vdW  Elec       q    Type
REMARK                         _______ _______ _______ _____ _____    ______ ____
ROOT
ATOM      1  C   UNL     1      22.940  13.542  38.831  0.00  0.00    +0.000 A 
ATOM      2  C   UNL     1      23.860  12.960  37.990  0.00  0.00    +0.000 A 
ATOM      3  O   UNL     1      25.128  13.527  37.759  0.00  0.00    +0.000 OA
ATOM      4  N   UNL     1      23.508  11.809  37.380  0.00  0.00    +0.000 N 
ATOM      5  C   UNL     1      22.282  11.243  37.592  0.00  0.00    +0.000 A 
ATOM      6  N   UNL     1      21.388  11.807  38.408  0.00  0.00    +0.000 N 
ATOM      7  C   UNL     1      21.694  12.953  39.037  0.00  0.00    +0.000 A 
ATOM      8  O   UNL     1      20.834  13.462  39.799  0.00  0.00    +0.000 OA
ATOM      9  C   UNL     1      21.909   9.973  36.914  0.00  0.00    +0.000 C 
ATOM     10  C   UNL     1      23.164   9.108  36.894  0.00  0.00    +0.000 C 
ATOM     11  C   UNL     1      24.175   9.829  36.059  0.00  0.00    +0.000 C 
ATOM     12  C   UNL     1      24.492  11.218  36.500  0.00  0.00    +0.000 C 
ENDROOT
BRANCH   6  13
ATOM     13  C   UNL     1      20.120  11.165  38.596  0.00  0.00    +0.000 A 
ATOM     14  C   UNL     1      19.041  11.442  37.787  0.00  0.00    +0.000 A 
ATOM     15  C   UNL     1      17.834  10.814  37.974  0.00  0.00    +0.000 A 
ATOM     16  C   UNL     1      17.681   9.891  38.982  0.00  0.00    +0.000 A 
ATOM     17  C   UNL     1      18.771   9.627  39.780  0.00  0.00    +0.000 A 
ATOM     18  C   UNL     1      19.981  10.244  39.606  0.00  0.00    +0.000 A 
ENDBRANCH   6  13
BRANCH   1  20
ATOM     19  C   UNL     1      22.911  16.000  38.688  0.00  0.00    +0.000 C 
ATOM     20  C   UNL     1      23.297  14.798  39.512  0.00  0.00    +0.000 C 
ENDBRANCH   1  20
TORSDOF 2
ENDMDL
MODEL 9
REMARK VINA RESULT:      -5.8     19.160     21.019
REMARK  Name = 
REMARK  2 active torsions:
REMARK  status: ('A' for Active; 'I' for Inactive)
REMARK    1  A    between atoms: C_2  and  C_3
REMARK    2  A    between atoms: N_8  and  C_9
REMARK                            x       y       z     vdW  Elec       q    Type
REMARK                         _______ _______ _______ _____ _____    ______ ____
ROOT
ATOM      1  C   UNL     1      29.470  22.791  25.953  0.00  0.00    +0.000 A 
ATOM      2  C   UNL     1      28.232  22.836  26.553  0.00  0.00    +0.000 A 
ATOM      3  O   UNL     1      27.933  22.093  27.711  0.00  0.00    +0.000 OA
ATOM      4  N   UNL     1      27.294  23.628  25.991  0.00  0.00    +0.000 N 
ATOM      5  C   UNL     1      27.566  24.357  24.867  0.00  0.00    +0.000 A 
ATOM      6  N   UNL     1      28.767  24.313  24.284  0.00  0.00    +0.000 N 
ATOM      7  C   UNL     1      29.732  23.540  24.808  0.00  0.00    +0.000 A 
ATOM      8  O   UNL     1      30.853  23.518  24.240  0.00  0.00    +0.000 OA
ATOM      9  C   UNL     1      26.523  25.225  24.260  0.00  0.00    +0.000 C 
ATOM     10  C   UNL     1      25.754  25.851  25.417  0.00  0.00    +0.000 C 
ATOM     11  C   UNL     1      25.088  24.730  26.152  0.00  0.00    +0.000 C 
ATOM     12  C   UNL     1      26.002  23.656  26.638  0.00  0.00    +0.000 C 
ENDROOT
BRANCH   6  13
ATOM     13  C   UNL     1      28.997  25.105  23.110  0.00  0.00    +0.000 A 
ATOM     14  C   UNL     1      28.994  24.549  21.851  0.00  0.00    +0.000 A 
ATOM     15  C   UNL     1      29.208  25.319  20.735  0.00  0.00    +0.000 A 
ATOM     16  C   UNL     1      29.431  26.671  20.857  0.00  0.00    +0.000 A 
ATOM     17  C   UNL     1      29.430  27.208  22.125  0.00  0.00    +0.000 A 
ATOM     18  C   UNL     1      29.218  26.453  23.247  0.00  0.00    +0.000 A 
ENDBRANCH   6  13
BRANCH   1  20
ATOM     19  C   UNL     1      31.276  22.668  27.622  0.00  0.00    +0.000 C 
ATOM     20  C   UNL     1      30.513  21.938  26.546  0.00  0.00    +0.000 C 
ENDBRANCH   1  20
TORSDOF 2
ENDMDL
MODEL 10
REMARK VINA RESULT:      -5.8     20.854     22.454
REMARK  Name = 
REMARK  2 active torsions:
REMARK  status: ('A' for Active; 'I' for Inactive)
REMARK    1  A    between atoms: C_2  and  C_3
REMARK    2  A    between atoms: N_8  and  C_9
REMARK                            x       y       z     vdW  Elec       q    Type
REMARK                         _______ _______ _______ _____ _____    ______ ____
ROOT
ATOM      1  C   UNL     1      24.286   4.091  13.963  0.00  0.00    +0.000 A 
ATOM      2  C   UNL     1      23.315   3.343  14.589  0.00  0.00    +0.000 A 
ATOM      3  O   UNL     1      22.312   2.665  13.870  0.00  0.00    +0.000 OA
ATOM      4  N   UNL     1      23.350   3.276  15.936  0.00  0.00    +0.000 N 
ATOM      5  C   UNL     1      24.316   3.928  16.651  0.00  0.00    +0.000 A 
ATOM      6  N   UNL     1      25.258   4.654  16.045  0.00  0.00    +0.000 N 
ATOM      7  C   UNL     1      25.264   4.749  14.706  0.00  0.00    +0.000 A 
ATOM      8  O   UNL     1      26.162   5.439  14.161  0.00  0.00    +0.000 OA
ATOM      9  C   UNL     1      24.342   3.843  18.136  0.00  0.00    +0.000 C 
ATOM     10  C   UNL     1      23.949   2.415  18.495  0.00  0.00    +0.000 C 
ATOM     11  C   UNL     1      22.544   2.219  18.020  0.00  0.00    +0.000 C 
ATOM     12  C   UNL     1      22.318   2.486  16.570  0.00  0.00    +0.000 C 
ENDROOT
BRANCH   6  13
ATOM     13  C   UNL     1      26.250   5.311  16.846  0.00  0.00    +0.000 A 
ATOM     14  C   UNL     1      27.446   4.706  17.156  0.00  0.00    +0.000 A 
ATOM     15  C   UNL     1      28.390   5.349  17.919  0.00  0.00    +0.000 A 
ATOM     16  C   UNL     1      28.153   6.619  18.391  0.00  0.00    +0.000 A 
ATOM     17  C   UNL     1      26.950   7.207  18.071  0.00  0.00    +0.000 A 
ATOM     18  C   UNL     1      26.000   6.579  17.311  0.00  0.00    +0.000 A 
ENDBRANCH   6  13
BRANCH   1  20
ATOM     19  C   UNL     1      25.101   3.087  11.868  0.00  0.00    +0.000 C 
ATOM     20  C   UNL     1      24.273   4.181  12.493  0.00  0.00    +0.000 C 
ENDBRANCH   1  20
TORSDOF 2
ENDMDL
