MODEL 1
REMARK VINA RESULT:      -6.7      0.000      0.000
REMARK  Name = 
REMARK  2 active torsions:
REMARK  status: ('A' for Active; 'I' for Inactive)
REMARK    1  A    between atoms: C_7  and  C_8
REMARK    2  A    between atoms: C_8  and  C_9
REMARK                            x       y       z     vdW  Elec       q    Type
REMARK                         _______ _______ _______ _____ _____    ______ ____
ROOT
ATOM      1  C   UNL     1      31.899  23.382  24.487  0.00  0.00    +0.000 C 
ATOM      2  C   UNL     1      30.442  23.258  24.671  0.00  0.00    +0.000 A 
ATOM      3  C   UNL     1      29.937  22.767  25.872  0.00  0.00    +0.000 A 
ATOM      4  C   UNL     1      30.906  22.386  26.929  0.00  0.00    +0.000 C 
ATOM      5  C   UNL     1      28.591  22.636  26.083  0.00  0.00    +0.000 A 
ATOM      6  O   UNL     1      28.120  22.138  27.302  0.00  0.00    +0.000 OA
ATOM      7  C   UNL     1      27.681  22.988  25.104  0.00  0.00    +0.000 A 
ATOM      8  C   UNL     1      28.166  23.476  23.909  0.00  0.00    +0.000 A 
ATOM      9  C   UNL     1      27.196  23.851  22.870  0.00  0.00    +0.000 C 
ATOM     10  C   UNL     1      29.533  23.610  23.695  0.00  0.00    +0.000 A 
ATOM     11  O   UNL     1      29.973  24.101  22.486  0.00  0.00    +0.000 OA
ENDROOT
BRANCH   7  12
ATOM     12  C   UNL     1      26.237  22.826  25.391  0.00  0.00    +0.000 C 
BRANCH  12  13
ATOM     13  C   UNL     1      25.679  24.008  26.105  0.00  0.00    +0.000 A 
ATOM     14  N   UNL     1      25.589  24.146  27.412  0.00  0.00    +0.000 NA
ATOM     15  C   UNL     1      25.081  25.232  27.925  0.00  0.00    +0.000 A 
ATOM     16  C   UNL     1      24.927  25.508  29.303  0.00  0.00    +0.000 A 
ATOM     17  C   UNL     1      24.378  26.689  29.693  0.00  0.00    +0.000 A 
ATOM     18  C   UNL     1      23.938  27.683  28.840  0.00  0.00    +0.000 A 
ATOM     19  C   UNL     1      24.089  27.409  27.495  0.00  0.00    +0.000 A 
ATOM     20  C   UNL     1      24.653  26.201  27.060  0.00  0.00    +0.000 A 
ATOM     21  S   UNL     1      25.015  25.477  25.547  0.00  0.00    +0.000 S 
ENDBRANCH  12  13
ENDBRANCH   7  12
TORSDOF 2
ENDMDL
MODEL 2
REMARK VINA RESULT:      -6.6      1.051      1.674
REMARK  Name = 
REMARK  2 active torsions:
REMARK  status: ('A' for Active; 'I' for Inactive)
REMARK    1  A    between atoms: C_7  and  C_8
REMARK    2  A    between atoms: C_8  and  C_9
REMARK                            x       y       z     vdW  Elec       q    Type
REMARK                         _______ _______ _______ _____ _____    ______ ____
ROOT
ATOM      1  C   UNL     1      31.936  23.487  24.485  0.00  0.00    +0.000 C 
ATOM      2  C   UNL     1      30.477  23.326  24.614  0.00  0.00    +0.000 A 
ATOM      3  C   UNL     1      29.939  22.824  25.796  0.00  0.00    +0.000 A 
ATOM      4  C   UNL     1      30.877  22.468  26.889  0.00  0.00    +0.000 C 
ATOM      5  C   UNL     1      28.591  22.659  25.957  0.00  0.00    +0.000 A 
ATOM      6  O   UNL     1      28.086  22.150  27.158  0.00  0.00    +0.000 OA
ATOM      7  C   UNL     1      27.709  22.988  24.944  0.00  0.00    +0.000 A 
ATOM      8  C   UNL     1      28.226  23.487  23.767  0.00  0.00    +0.000 A 
ATOM      9  C   UNL     1      27.287  23.836  22.692  0.00  0.00    +0.000 C 
ATOM     10  C   UNL     1      29.596  23.655  23.604  0.00  0.00    +0.000 A 
ATOM     11  O   UNL     1      30.069  24.157  22.411  0.00  0.00    +0.000 OA
ENDROOT
BRANCH   7  12
ATOM     12  C   UNL     1      26.259  22.789  25.176  0.00  0.00    +0.000 C 
BRANCH  12  13
ATOM     13  C   UNL     1      25.622  24.002  25.762  0.00  0.00    +0.000 A 
ATOM     14  N   UNL     1      25.039  24.969  25.084  0.00  0.00    +0.000 NA
ATOM     15  C   UNL     1      24.513  25.984  25.710  0.00  0.00    +0.000 A 
ATOM     16  C   UNL     1      23.860  27.085  25.109  0.00  0.00    +0.000 A 
ATOM     17  C   UNL     1      23.357  28.077  25.891  0.00  0.00    +0.000 A 
ATOM     18  C   UNL     1      23.426  28.114  27.271  0.00  0.00    +0.000 A 
ATOM     19  C   UNL     1      24.065  27.038  27.854  0.00  0.00    +0.000 A 
ATOM     20  C   UNL     1      24.594  25.999  27.076  0.00  0.00    +0.000 A 
ATOM     21  S   UNL     1      25.433  24.532  27.372  0.00  0.00    +0.000 S 
ENDBRANCH  12  13
ENDBRANCH   7  12
TORSDOF 2
ENDMDL
MODEL 3
REMARK VINA RESULT:      -6.4      2.775      7.012
REMARK  Name = 
REMARK  2 active torsions:
REMARK  status: ('A' for Active; 'I' for Inactive)
REMARK    1  A    between atoms: C_7  and  C_8
REMARK    2  A    between atoms: C_8  and  C_9
REMARK                            x       y       z     vdW  Elec       q    Type
REMARK                         _______ _______ _______ _____ _____    ______ ____
ROOT
ATOM      1  C   UNL     1      24.265  25.955  29.097  0.00  0.00    +0.000 C 
ATOM      2  C   UNL     1      25.257  24.935  28.715  0.00  0.00    +0.000 A 
ATOM      3  C   UNL     1      25.532  24.710  27.368  0.00  0.00    +0.000 A 
ATOM      4  C   UNL     1      24.801  25.523  26.365  0.00  0.00    +0.000 C 
ATOM      5  C   UNL     1      26.445  23.772  26.970  0.00  0.00    +0.000 A 
ATOM      6  O   UNL     1      26.695  23.573  25.608  0.00  0.00    +0.000 OA
ATOM      7  C   UNL     1      27.131  23.011  27.897  0.00  0.00    +0.000 A 
ATOM      8  C   UNL     1      26.870  23.221  29.235  0.00  0.00    +0.000 A 
ATOM      9  C   UNL     1      27.600  22.410  30.219  0.00  0.00    +0.000 C 
ATOM     10  C   UNL     1      25.941  24.174  29.639  0.00  0.00    +0.000 A 
ATOM     11  O   UNL     1      25.712  24.352  30.986  0.00  0.00    +0.000 OA
ENDROOT
BRANCH   7  12
ATOM     12  C   UNL     1      28.109  22.012  27.407  0.00  0.00    +0.000 C 
BRANCH  12  13
ATOM     13  C   UNL     1      29.434  22.630  27.120  0.00  0.00    +0.000 A 
ATOM     14  N   UNL     1      29.996  22.727  25.933  0.00  0.00    +0.000 NA
ATOM     15  C   UNL     1      31.164  23.293  25.804  0.00  0.00    +0.000 A 
ATOM     16  C   UNL     1      31.877  23.463  24.595  0.00  0.00    +0.000 A 
ATOM     17  C   UNL     1      33.091  24.075  24.612  0.00  0.00    +0.000 A 
ATOM     18  C   UNL     1      33.719  24.566  25.741  0.00  0.00    +0.000 A 
ATOM     19  C   UNL     1      33.019  24.398  26.919  0.00  0.00    +0.000 A 
ATOM     20  C   UNL     1      31.765  23.771  26.935  0.00  0.00    +0.000 A 
ATOM     21  S   UNL     1      30.596  23.370  28.126  0.00  0.00    +0.000 S 
ENDBRANCH  12  13
ENDBRANCH   7  12
TORSDOF 2
ENDMDL
MODEL 4
REMARK VINA RESULT:      -6.4      3.222      5.172
REMARK  Name = 
REMARK  2 active torsions:
REMARK  status: ('A' for Active; 'I' for Inactive)
REMARK    1  A    between atoms: C_7  and  C_8
REMARK    2  A    between atoms: C_8  and  C_9
REMARK                            x       y       z     vdW  Elec       q    Type
REMARK                         _______ _______ _______ _____ _____    ______ ____
ROOT
ATOM      1  C   UNL     1      30.653  22.199  27.014  0.00  0.00    +0.000 C 
ATOM      2  C   UNL     1      29.734  22.609  25.939  0.00  0.00    +0.000 A 
ATOM      3  C   UNL     1      30.248  23.062  24.726  0.00  0.00    +0.000 A 
ATOM      4  C   UNL     1      31.723  23.111  24.573  0.00  0.00    +0.000 C 
ATOM      5  C   UNL     1      29.430  23.453  23.702  0.00  0.00    +0.000 A 
ATOM      6  O   UNL     1      29.982  23.904  22.498  0.00  0.00    +0.000 OA
ATOM      7  C   UNL     1      28.054  23.411  23.836  0.00  0.00    +0.000 A 
ATOM      8  C   UNL     1      27.529  22.964  25.030  0.00  0.00    +0.000 A 
ATOM      9  C   UNL     1      26.067  22.920  25.170  0.00  0.00    +0.000 C 
ATOM     10  C   UNL     1      28.361  22.567  26.071  0.00  0.00    +0.000 A 
ATOM     11  O   UNL     1      27.794  22.128  27.247  0.00  0.00    +0.000 OA
ENDROOT
BRANCH   7  12
ATOM     12  C   UNL     1      27.219  23.845  22.692  0.00  0.00    +0.000 C 
BRANCH  12  13
ATOM     13  C   UNL     1      27.190  25.329  22.560  0.00  0.00    +0.000 A 
ATOM     14  N   UNL     1      27.371  26.005  21.444  0.00  0.00    +0.000 NA
ATOM     15  C   UNL     1      27.322  27.309  21.452  0.00  0.00    +0.000 A 
ATOM     16  C   UNL     1      27.498  28.154  20.332  0.00  0.00    +0.000 A 
ATOM     17  C   UNL     1      27.419  29.502  20.490  0.00  0.00    +0.000 A 
ATOM     18  C   UNL     1      27.175  30.150  21.687  0.00  0.00    +0.000 A 
ATOM     19  C   UNL     1      27.005  29.321  22.777  0.00  0.00    +0.000 A 
ATOM     20  C   UNL     1      27.080  27.927  22.647  0.00  0.00    +0.000 A 
ATOM     21  S   UNL     1      26.936  26.576  23.695  0.00  0.00    +0.000 S 
ENDBRANCH  12  13
ENDBRANCH   7  12
TORSDOF 2
ENDMDL
MODEL 5
REMARK VINA RESULT:      -6.2      3.703      5.623
REMARK  Name = 
REMARK  2 active torsions:
REMARK  status: ('A' for Active; 'I' for Inactive)
REMARK    1  A    between atoms: C_7  and  C_8
REMARK    2  A    between atoms: C_8  and  C_9
REMARK                            x       y       z     vdW  Elec       q    Type
REMARK                         _______ _______ _______ _____ _____    ______ ____
ROOT
ATOM      1  C   UNL     1      30.698  23.324  29.344  0.00  0.00    +0.000 C 
ATOM      2  C   UNL     1      30.392  23.179  27.910  0.00  0.00    +0.000 A 
ATOM      3  C   UNL     1      29.109  22.811  27.511  0.00  0.00    +0.000 A 
ATOM      4  C   UNL     1      28.094  22.578  28.568  0.00  0.00    +0.000 C 
ATOM      5  C   UNL     1      28.784  22.666  26.191  0.00  0.00    +0.000 A 
ATOM      6  O   UNL     1      27.485  22.294  25.827  0.00  0.00    +0.000 OA
ATOM      7  C   UNL     1      29.723  22.882  25.200  0.00  0.00    +0.000 A 
ATOM      8  C   UNL     1      30.997  23.247  25.578  0.00  0.00    +0.000 A 
ATOM      9  C   UNL     1      31.994  23.476  24.523  0.00  0.00    +0.000 C 
ATOM     10  C   UNL     1      31.329  23.395  26.920  0.00  0.00    +0.000 A 
ATOM     11  O   UNL     1      32.614  23.761  27.253  0.00  0.00    +0.000 OA
ENDROOT
BRANCH   7  12
ATOM     12  C   UNL     1      29.311  22.711  23.787  0.00  0.00    +0.000 C 
BRANCH  12  13
ATOM     13  C   UNL     1      28.975  24.015  23.148  0.00  0.00    +0.000 A 
ATOM     14  N   UNL     1      29.506  24.487  22.039  0.00  0.00    +0.000 NA
ATOM     15  C   UNL     1      29.129  25.646  21.573  0.00  0.00    +0.000 A 
ATOM     16  C   UNL     1      29.614  26.268  20.399  0.00  0.00    +0.000 A 
ATOM     17  C   UNL     1      29.127  27.484  20.034  0.00  0.00    +0.000 A 
ATOM     18  C   UNL     1      28.167  28.197  20.727  0.00  0.00    +0.000 A 
ATOM     19  C   UNL     1      27.697  27.587  21.872  0.00  0.00    +0.000 A 
ATOM     20  C   UNL     1      28.178  26.333  22.276  0.00  0.00    +0.000 A 
ATOM     21  S   UNL     1      27.884  25.253  23.577  0.00  0.00    +0.000 S 
ENDBRANCH  12  13
ENDBRANCH   7  12
TORSDOF 2
ENDMDL
MODEL 6
REMARK VINA RESULT:      -6.2      3.791      6.097
REMARK  Name = 
REMARK  2 active torsions:
REMARK  status: ('A' for Active; 'I' for Inactive)
REMARK    1  A    between atoms: C_7  and  C_8
REMARK    2  A    between atoms: C_8  and  C_9
REMARK                            x       y       z     vdW  Elec       q    Type
REMARK                         _______ _______ _______ _____ _____    ______ ____
ROOT
ATOM      1  C   UNL     1      28.464  29.240  20.730  0.00  0.00    +0.000 C 
ATOM      2  C   UNL     1      28.329  27.862  21.235  0.00  0.00    +0.000 A 
ATOM      3  C   UNL     1      29.105  26.845  20.684  0.00  0.00    +0.000 A 
ATOM      4  C   UNL     1      30.046  27.203  19.595  0.00  0.00    +0.000 C 
ATOM      5  C   UNL     1      29.011  25.553  21.124  0.00  0.00    +0.000 A 
ATOM      6  O   UNL     1      29.805  24.558  20.545  0.00  0.00    +0.000 OA
ATOM      7  C   UNL     1      28.136  25.210  22.138  0.00  0.00    +0.000 A 
ATOM      8  C   UNL     1      27.362  26.205  22.695  0.00  0.00    +0.000 A 
ATOM      9  C   UNL     1      26.433  25.839  23.773  0.00  0.00    +0.000 C 
ATOM     10  C   UNL     1      27.457  27.519  22.248  0.00  0.00    +0.000 A 
ATOM     11  O   UNL     1      26.664  28.481  22.832  0.00  0.00    +0.000 OA
ENDROOT
BRANCH   7  12
ATOM     12  C   UNL     1      28.079  23.796  22.574  0.00  0.00    +0.000 C 
BRANCH  12  13
ATOM     13  C   UNL     1      28.912  23.557  23.786  0.00  0.00    +0.000 A 
ATOM     14  N   UNL     1      28.484  23.057  24.927  0.00  0.00    +0.000 NA
ATOM     15  C   UNL     1      29.310  22.892  25.923  0.00  0.00    +0.000 A 
ATOM     16  C   UNL     1      28.985  22.369  27.196  0.00  0.00    +0.000 A 
ATOM     17  C   UNL     1      29.955  22.254  28.142  0.00  0.00    +0.000 A 
ATOM     18  C   UNL     1      31.279  22.613  27.972  0.00  0.00    +0.000 A 
ATOM     19  C   UNL     1      31.591  23.124  26.728  0.00  0.00    +0.000 A 
ATOM     20  C   UNL     1      30.614  23.255  25.731  0.00  0.00    +0.000 A 
ATOM     21  S   UNL     1      30.566  23.817  24.110  0.00  0.00    +0.000 S 
ENDBRANCH  12  13
ENDBRANCH   7  12
TORSDOF 2
ENDMDL
MODEL 7
REMARK VINA RESULT:      -6.2      2.864      4.347
REMARK  Name = 
REMARK  2 active torsions:
REMARK  status: ('A' for Active; 'I' for Inactive)
REMARK    1  A    between atoms: C_7  and  C_8
REMARK    2  A    between atoms: C_8  and  C_9
REMARK                            x       y       z     vdW  Elec       q    Type
REMARK                         _______ _______ _______ _____ _____    ______ ____
ROOT
ATOM      1  C   UNL     1      28.886  27.752  21.625  0.00  0.00    +0.000 C 
ATOM      2  C   UNL     1      28.042  26.808  22.379  0.00  0.00    +0.000 A 
ATOM      3  C   UNL     1      28.212  25.437  22.202  0.00  0.00    +0.000 A 
ATOM      4  C   UNL     1      29.251  24.984  21.245  0.00  0.00    +0.000 C 
ATOM      5  C   UNL     1      27.449  24.527  22.882  0.00  0.00    +0.000 A 
ATOM      6  O   UNL     1      27.646  23.157  22.677  0.00  0.00    +0.000 OA
ATOM      7  C   UNL     1      26.479  24.940  23.775  0.00  0.00    +0.000 A 
ATOM      8  C   UNL     1      26.299  26.294  23.962  0.00  0.00    +0.000 A 
ATOM      9  C   UNL     1      25.266  26.731  24.912  0.00  0.00    +0.000 C 
ATOM     10  C   UNL     1      27.074  27.219  23.271  0.00  0.00    +0.000 A 
ATOM     11  O   UNL     1      26.860  28.562  23.488  0.00  0.00    +0.000 OA
ENDROOT
BRANCH   7  12
ATOM     12  C   UNL     1      25.685  23.909  24.484  0.00  0.00    +0.000 C 
BRANCH  12  13
ATOM     13  C   UNL     1      26.266  23.585  25.817  0.00  0.00    +0.000 A 
ATOM     14  N   UNL     1      25.748  23.915  26.983  0.00  0.00    +0.000 NA
ATOM     15  C   UNL     1      26.349  23.573  28.089  0.00  0.00    +0.000 A 
ATOM     16  C   UNL     1      25.905  23.861  29.400  0.00  0.00    +0.000 A 
ATOM     17  C   UNL     1      26.638  23.440  30.464  0.00  0.00    +0.000 A 
ATOM     18  C   UNL     1      27.822  22.730  30.385  0.00  0.00    +0.000 A 
ATOM     19  C   UNL     1      28.252  22.453  29.102  0.00  0.00    +0.000 A 
ATOM     20  C   UNL     1      27.519  22.873  27.984  0.00  0.00    +0.000 A 
ATOM     21  S   UNL     1      27.679  22.749  26.280  0.00  0.00    +0.000 S 
ENDBRANCH  12  13
ENDBRANCH   7  12
TORSDOF 2
ENDMDL
MODEL 8
REMARK VINA RESULT:      -6.2      2.957      5.821
REMARK  Name = 
REMARK  2 active torsions:
REMARK  status: ('A' for Active; 'I' for Inactive)
REMARK    1  A    between atoms: C_7  and  C_8
REMARK    2  A    between atoms: C_8  and  C_9
REMARK                            x       y       z     vdW  Elec       q    Type
REMARK                         _______ _______ _______ _____ _____    ______ ____
ROOT
ATOM      1  C   UNL     1      28.549  23.948  31.225  0.00  0.00    +0.000 C 
ATOM      2  C   UNL     1      28.317  23.571  29.820  0.00  0.00    +0.000 A 
ATOM      3  C   UNL     1      27.074  23.810  29.237  0.00  0.00    +0.000 A 
ATOM      4  C   UNL     1      26.026  24.444  30.074  0.00  0.00    +0.000 C 
ATOM      5  C   UNL     1      26.817  23.475  27.936  0.00  0.00    +0.000 A 
ATOM      6  O   UNL     1      25.556  23.729  27.384  0.00  0.00    +0.000 OA
ATOM      7  C   UNL     1      27.788  22.884  27.149  0.00  0.00    +0.000 A 
ATOM      8  C   UNL     1      29.023  22.641  27.711  0.00  0.00    +0.000 A 
ATOM      9  C   UNL     1      30.054  22.013  26.873  0.00  0.00    +0.000 C 
ATOM     10  C   UNL     1      29.285  22.982  29.034  0.00  0.00    +0.000 A 
ATOM     11  O   UNL     1      30.533  22.721  29.554  0.00  0.00    +0.000 OA
ENDROOT
BRANCH   7  12
ATOM     12  C   UNL     1      27.452  22.546  25.746  0.00  0.00    +0.000 C 
BRANCH  12  13
ATOM     13  C   UNL     1      27.856  23.628  24.805  0.00  0.00    +0.000 A 
ATOM     14  N   UNL     1      28.267  23.455  23.565  0.00  0.00    +0.000 NA
ATOM     15  C   UNL     1      28.595  24.483  22.833  0.00  0.00    +0.000 A 
ATOM     16  C   UNL     1      29.049  24.440  21.495  0.00  0.00    +0.000 A 
ATOM     17  C   UNL     1      29.356  25.599  20.852  0.00  0.00    +0.000 A 
ATOM     18  C   UNL     1      29.262  26.863  21.403  0.00  0.00    +0.000 A 
ATOM     19  C   UNL     1      28.819  26.900  22.711  0.00  0.00    +0.000 A 
ATOM     20  C   UNL     1      28.494  25.723  23.400  0.00  0.00    +0.000 A 
ATOM     21  S   UNL     1      27.928  25.324  24.970  0.00  0.00    +0.000 S 
ENDBRANCH  12  13
ENDBRANCH   7  12
TORSDOF 2
ENDMDL
MODEL 9
REMARK VINA RESULT:      -6.1      2.586      5.831
REMARK  Name = 
REMARK  2 active torsions:
REMARK  status: ('A' for Active; 'I' for Inactive)
REMARK    1  A    between atoms: C_7  and  C_8
REMARK    2  A    between atoms: C_8  and  C_9
REMARK                            x       y       z     vdW  Elec       q    Type
REMARK                         _______ _______ _______ _____ _____    ______ ____
ROOT
ATOM      1  C   UNL     1      27.288  24.531  31.015  0.00  0.00    +0.000 C 
ATOM      2  C   UNL     1      26.848  24.277  29.631  0.00  0.00    +0.000 A 
ATOM      3  C   UNL     1      27.550  23.373  28.838  0.00  0.00    +0.000 A 
ATOM      4  C   UNL     1      28.727  22.695  29.434  0.00  0.00    +0.000 C 
ATOM      5  C   UNL     1      27.175  23.109  27.549  0.00  0.00    +0.000 A 
ATOM      6  O   UNL     1      27.904  22.195  26.782  0.00  0.00    +0.000 OA
ATOM      7  C   UNL     1      26.079  23.735  26.986  0.00  0.00    +0.000 A 
ATOM      8  C   UNL     1      25.374  24.634  27.758  0.00  0.00    +0.000 A 
ATOM      9  C   UNL     1      24.209  25.299  27.157  0.00  0.00    +0.000 C 
ATOM     10  C   UNL     1      25.755  24.902  29.068  0.00  0.00    +0.000 A 
ATOM     11  O   UNL     1      25.021  25.807  29.804  0.00  0.00    +0.000 OA
ENDROOT
BRANCH   7  12
ATOM     12  C   UNL     1      25.720  23.408  25.586  0.00  0.00    +0.000 C 
BRANCH  12  13
ATOM     13  C   UNL     1      26.506  24.215  24.611  0.00  0.00    +0.000 A 
ATOM     14  N   UNL     1      27.269  23.733  23.652  0.00  0.00    +0.000 NA
ATOM     15  C   UNL     1      27.911  24.541  22.855  0.00  0.00    +0.000 A 
ATOM     16  C   UNL     1      28.760  24.160  21.791  0.00  0.00    +0.000 A 
ATOM     17  C   UNL     1      29.366  25.117  21.039  0.00  0.00    +0.000 A 
ATOM     18  C   UNL     1      29.227  26.480  21.223  0.00  0.00    +0.000 A 
ATOM     19  C   UNL     1      28.398  26.848  22.264  0.00  0.00    +0.000 A 
ATOM     20  C   UNL     1      27.758  25.885  23.057  0.00  0.00    +0.000 A 
ATOM     21  S   UNL     1      26.687  25.897  24.398  0.00  0.00    +0.000 S 
ENDBRANCH  12  13
ENDBRANCH   7  12
TORSDOF 2
ENDMDL
MODEL 10
REMARK VINA RESULT:      -5.9      2.110      3.647
REMARK  Name = 
REMARK  2 active torsions:
REMARK  status: ('A' for Active; 'I' for Inactive)
REMARK    1  A    between atoms: C_7  and  C_8
REMARK    2  A    between atoms: C_8  and  C_9
REMARK                            x       y       z     vdW  Elec       q    Type
REMARK                         _______ _______ _______ _____ _____    ______ ____
ROOT
ATOM      1  C   UNL     1      33.418  24.461  26.810  0.00  0.00    +0.000 C 
ATOM      2  C   UNL     1      32.084  23.852  26.956  0.00  0.00    +0.000 A 
ATOM      3  C   UNL     1      31.387  23.437  25.823  0.00  0.00    +0.000 A 
ATOM      4  C   UNL     1      32.033  23.631  24.502  0.00  0.00    +0.000 C 
ATOM      5  C   UNL     1      30.147  22.867  25.914  0.00  0.00    +0.000 A 
ATOM      6  O   UNL     1      29.476  22.463  24.754  0.00  0.00    +0.000 OA
ATOM      7  C   UNL     1      29.538  22.683  27.141  0.00  0.00    +0.000 A 
ATOM      8  C   UNL     1      30.215  23.088  28.272  0.00  0.00    +0.000 A 
ATOM      9  C   UNL     1      29.566  22.891  29.575  0.00  0.00    +0.000 C 
ATOM     10  C   UNL     1      31.476  23.667  28.180  0.00  0.00    +0.000 A 
ATOM     11  O   UNL     1      32.116  24.058  29.335  0.00  0.00    +0.000 OA
ENDROOT
BRANCH   7  12
ATOM     12  C   UNL     1      28.195  22.059  27.177  0.00  0.00    +0.000 C 
BRANCH  12  13
ATOM     13  C   UNL     1      27.110  23.078  27.116  0.00  0.00    +0.000 A 
ATOM     14  N   UNL     1      26.672  23.672  26.025  0.00  0.00    +0.000 NA
ATOM     15  C   UNL     1      25.712  24.551  26.096  0.00  0.00    +0.000 A 
ATOM     16  C   UNL     1      25.149  25.259  25.009  0.00  0.00    +0.000 A 
ATOM     17  C   UNL     1      24.148  26.150  25.234  0.00  0.00    +0.000 A 
ATOM     18  C   UNL     1      23.606  26.442  26.472  0.00  0.00    +0.000 A 
ATOM     19  C   UNL     1      24.158  25.750  27.530  0.00  0.00    +0.000 A 
ATOM     20  C   UNL     1      25.192  24.823  27.331  0.00  0.00    +0.000 A 
ATOM     21  S   UNL     1      26.131  23.783  28.322  0.00  0.00    +0.000 S 
ENDBRANCH  12  13
ENDBRANCH   7  12
TORSDOF 2
ENDMDL
