MODEL 1
REMARK VINA RESULT:      -6.5      0.000      0.000
REMARK  Name = 
REMARK  3 active torsions:
REMARK  status: ('A' for Active; 'I' for Inactive)
REMARK    1  A    between atoms: O_2  and  C_3
REMARK    2  A    between atoms: C_8  and  O_9
REMARK    3  A    between atoms: C_15  and  C_16
REMARK                            x       y       z     vdW  Elec       q    Type
REMARK                         _______ _______ _______ _____ _____    ______ ____
ROOT
ATOM      1  C   UNL     1      29.861  22.364  26.496  0.00  0.00    +0.000 A 
ATOM      2  C   UNL     1      30.277  22.741  25.253  0.00  0.00    +0.000 A 
ATOM      3  C   UNL     1      29.340  23.104  24.268  0.00  0.00    +0.000 A 
ATOM      4  C   UNL     1      28.000  23.077  24.564  0.00  0.00    +0.000 A 
ATOM      5  C   UNL     1      27.563  22.691  25.839  0.00  0.00    +0.000 A 
ATOM      6  C   UNL     1      28.510  22.347  26.764  0.00  0.00    +0.000 A 
ATOM      7  C   UNL     1      27.069  23.451  23.538  0.00  0.00    +0.000 C 
ATOM      8  C   UNL     1      25.610  23.402  23.923  0.00  0.00    +0.000 C 
ATOM      9  N   UNL     1      27.432  23.795  22.408  0.00  0.00    +0.000 N 
ATOM     10  O   UNL     1      26.492  24.141  21.472  0.00  0.00    +0.000 OA
ATOM     11  C   UNL     1      28.830  23.896  21.870  0.00  0.00    +0.000 C 
ATOM     12  N   UNL     1      29.709  23.490  23.001  0.00  0.00    +0.000 NA
ENDROOT
BRANCH  11  13
ATOM     13  C   UNL     1      28.975  25.472  21.996  0.00  0.00    +0.000 A 
ATOM     14  C   UNL     1      29.136  26.182  20.837  0.00  0.00    +0.000 A 
ATOM     15  C   UNL     1      29.273  27.574  20.930  0.00  0.00    +0.000 A 
ATOM     16  C   UNL     1      29.239  28.164  22.171  0.00  0.00    +0.000 A 
ATOM     17  C   UNL     1      29.076  27.436  23.322  0.00  0.00    +0.000 A 
ATOM     18  C   UNL     1      28.944  26.072  23.197  0.00  0.00    +0.000 A 
ENDBRANCH  11  13
BRANCH   1  20
ATOM     19  C   UNL     1      31.601  22.985  28.102  0.00  0.00    +0.000 C 
ATOM     20  O   UNL     1      30.781  21.994  27.509  0.00  0.00    +0.000 OA
ENDBRANCH   1  20
BRANCH   6  21
ATOM     21  O   UNL     1      28.128  21.957  28.044  0.00  0.00    +0.000 OA
ATOM     22  C   UNL     1      27.630  22.914  28.956  0.00  0.00    +0.000 C 
ENDBRANCH   6  21
TORSDOF 3
ENDMDL
MODEL 2
REMARK VINA RESULT:      -6.2      2.558      4.430
REMARK  Name = 
REMARK  3 active torsions:
REMARK  status: ('A' for Active; 'I' for Inactive)
REMARK    1  A    between atoms: O_2  and  C_3
REMARK    2  A    between atoms: C_8  and  O_9
REMARK    3  A    between atoms: C_15  and  C_16
REMARK                            x       y       z     vdW  Elec       q    Type
REMARK                         _______ _______ _______ _____ _____    ______ ____
ROOT
ATOM      1  C   UNL     1      26.793  23.112  28.537  0.00  0.00    +0.000 A 
ATOM      2  C   UNL     1      27.901  22.454  28.091  0.00  0.00    +0.000 A 
ATOM      3  C   UNL     1      28.429  22.731  26.816  0.00  0.00    +0.000 A 
ATOM      4  C   UNL     1      27.822  23.669  26.020  0.00  0.00    +0.000 A 
ATOM      5  C   UNL     1      26.682  24.350  26.469  0.00  0.00    +0.000 A 
ATOM      6  C   UNL     1      26.205  24.048  27.715  0.00  0.00    +0.000 A 
ATOM      7  C   UNL     1      28.384  23.928  24.725  0.00  0.00    +0.000 C 
ATOM      8  C   UNL     1      27.672  24.970  23.895  0.00  0.00    +0.000 C 
ATOM      9  N   UNL     1      29.388  23.340  24.309  0.00  0.00    +0.000 N 
ATOM     10  O   UNL     1      29.876  23.635  23.062  0.00  0.00    +0.000 OA
ATOM     11  C   UNL     1      30.204  22.289  25.003  0.00  0.00    +0.000 C 
ATOM     12  N   UNL     1      29.544  22.095  26.322  0.00  0.00    +0.000 NA
ENDROOT
BRANCH  11  13
ATOM     13  C   UNL     1      31.396  23.234  25.457  0.00  0.00    +0.000 A 
ATOM     14  C   UNL     1      31.516  23.493  26.796  0.00  0.00    +0.000 A 
ATOM     15  C   UNL     1      32.559  24.331  27.215  0.00  0.00    +0.000 A 
ATOM     16  C   UNL     1      33.411  24.854  26.272  0.00  0.00    +0.000 A 
ATOM     17  C   UNL     1      33.275  24.583  24.934  0.00  0.00    +0.000 A 
ATOM     18  C   UNL     1      32.242  23.757  24.555  0.00  0.00    +0.000 A 
ENDBRANCH  11  13
BRANCH   1  20
ATOM     19  C   UNL     1      26.427  21.585  30.414  0.00  0.00    +0.000 C 
ATOM     20  O   UNL     1      26.237  22.855  29.816  0.00  0.00    +0.000 OA
ENDBRANCH   1  20
BRANCH   6  21
ATOM     21  O   UNL     1      25.076  24.696  28.207  0.00  0.00    +0.000 OA
ATOM     22  C   UNL     1      24.401  25.646  27.409  0.00  0.00    +0.000 C 
ENDBRANCH   6  21
TORSDOF 3
ENDMDL
MODEL 3
REMARK VINA RESULT:      -6.0      2.526      3.603
REMARK  Name = 
REMARK  3 active torsions:
REMARK  status: ('A' for Active; 'I' for Inactive)
REMARK    1  A    between atoms: O_2  and  C_3
REMARK    2  A    between atoms: C_8  and  O_9
REMARK    3  A    between atoms: C_15  and  C_16
REMARK                            x       y       z     vdW  Elec       q    Type
REMARK                         _______ _______ _______ _____ _____    ______ ____
ROOT
ATOM      1  C   UNL     1      27.579  22.704  29.820  0.00  0.00    +0.000 A 
ATOM      2  C   UNL     1      27.884  22.268  28.564  0.00  0.00    +0.000 A 
ATOM      3  C   UNL     1      27.217  22.799  27.444  0.00  0.00    +0.000 A 
ATOM      4  C   UNL     1      26.253  23.761  27.622  0.00  0.00    +0.000 A 
ATOM      5  C   UNL     1      25.933  24.214  28.909  0.00  0.00    +0.000 A 
ATOM      6  C   UNL     1      26.608  23.670  29.967  0.00  0.00    +0.000 A 
ATOM      7  C   UNL     1      25.591  24.281  26.460  0.00  0.00    +0.000 C 
ATOM      8  C   UNL     1      24.541  25.336  26.719  0.00  0.00    +0.000 C 
ATOM      9  N   UNL     1      25.858  23.896  25.317  0.00  0.00    +0.000 N 
ATOM     10  O   UNL     1      25.188  24.434  24.249  0.00  0.00    +0.000 OA
ATOM     11  C   UNL     1      26.863  22.866  24.894  0.00  0.00    +0.000 C 
ATOM     12  N   UNL     1      27.488  22.393  26.159  0.00  0.00    +0.000 NA
ENDROOT
BRANCH  11  13
ATOM     13  C   UNL     1      27.993  23.877  24.422  0.00  0.00    +0.000 A 
ATOM     14  C   UNL     1      28.509  23.699  23.166  0.00  0.00    +0.000 A 
ATOM     15  C   UNL     1      29.513  24.579  22.735  0.00  0.00    +0.000 A 
ATOM     16  C   UNL     1      29.932  25.575  23.584  0.00  0.00    +0.000 A 
ATOM     17  C   UNL     1      29.402  25.738  24.838  0.00  0.00    +0.000 A 
ATOM     18  C   UNL     1      28.419  24.859  25.232  0.00  0.00    +0.000 A 
ENDBRANCH  11  13
BRANCH   1  20
ATOM     19  C   UNL     1      29.614  22.446  31.155  0.00  0.00    +0.000 C 
ATOM     20  O   UNL     1      28.234  22.188  30.967  0.00  0.00    +0.000 OA
ENDBRANCH   1  20
BRANCH   6  21
ATOM     21  O   UNL     1      26.327  24.086  31.264  0.00  0.00    +0.000 OA
ATOM     22  C   UNL     1      25.929  25.419  31.509  0.00  0.00    +0.000 C 
ENDBRANCH   6  21
TORSDOF 3
ENDMDL
MODEL 4
REMARK VINA RESULT:      -6.0      3.420      4.897
REMARK  Name = 
REMARK  3 active torsions:
REMARK  status: ('A' for Active; 'I' for Inactive)
REMARK    1  A    between atoms: O_2  and  C_3
REMARK    2  A    between atoms: C_8  and  O_9
REMARK    3  A    between atoms: C_15  and  C_16
REMARK                            x       y       z     vdW  Elec       q    Type
REMARK                         _______ _______ _______ _____ _____    ______ ____
ROOT
ATOM      1  C   UNL     1      25.805  24.537  29.994  0.00  0.00    +0.000 A 
ATOM      2  C   UNL     1      26.635  23.603  29.445  0.00  0.00    +0.000 A 
ATOM      3  C   UNL     1      26.729  23.468  28.048  0.00  0.00    +0.000 A 
ATOM      4  C   UNL     1      25.980  24.282  27.235  0.00  0.00    +0.000 A 
ATOM      5  C   UNL     1      25.125  25.244  27.789  0.00  0.00    +0.000 A 
ATOM      6  C   UNL     1      25.066  25.340  29.152  0.00  0.00    +0.000 A 
ATOM      7  C   UNL     1      26.099  24.118  25.815  0.00  0.00    +0.000 C 
ATOM      8  C   UNL     1      25.251  25.042  24.972  0.00  0.00    +0.000 C 
ATOM      9  N   UNL     1      26.847  23.277  25.305  0.00  0.00    +0.000 N 
ATOM     10  O   UNL     1      26.915  23.172  23.940  0.00  0.00    +0.000 OA
ATOM     11  C   UNL     1      27.746  22.293  25.994  0.00  0.00    +0.000 C 
ATOM     12  N   UNL     1      27.550  22.543  27.448  0.00  0.00    +0.000 NA
ENDROOT
BRANCH  11  13
ATOM     13  C   UNL     1      29.104  23.089  25.786  0.00  0.00    +0.000 A 
ATOM     14  C   UNL     1      29.982  22.600  24.855  0.00  0.00    +0.000 A 
ATOM     15  C   UNL     1      31.189  23.287  24.663  0.00  0.00    +0.000 A 
ATOM     16  C   UNL     1      31.439  24.413  25.411  0.00  0.00    +0.000 A 
ATOM     17  C   UNL     1      30.547  24.888  26.338  0.00  0.00    +0.000 A 
ATOM     18  C   UNL     1      29.372  24.192  26.503  0.00  0.00    +0.000 A 
ENDBRANCH  11  13
BRANCH   1  20
ATOM     19  C   UNL     1      26.745  25.305  32.119  0.00  0.00    +0.000 C 
ATOM     20  O   UNL     1      25.688  24.698  31.397  0.00  0.00    +0.000 OA
ENDBRANCH   1  20
BRANCH   6  21
ATOM     21  O   UNL     1      24.232  26.279  29.752  0.00  0.00    +0.000 OA
ATOM     22  C   UNL     1      23.099  26.761  29.061  0.00  0.00    +0.000 C 
ENDBRANCH   6  21
TORSDOF 3
ENDMDL
MODEL 5
REMARK VINA RESULT:      -5.9     32.144     33.972
REMARK  Name = 
REMARK  3 active torsions:
REMARK  status: ('A' for Active; 'I' for Inactive)
REMARK    1  A    between atoms: O_2  and  C_3
REMARK    2  A    between atoms: C_8  and  O_9
REMARK    3  A    between atoms: C_15  and  C_16
REMARK                            x       y       z     vdW  Elec       q    Type
REMARK                         _______ _______ _______ _____ _____    ______ ____
ROOT
ATOM      1  C   UNL     1      22.253  -9.077  25.178  0.00  0.00    +0.000 A 
ATOM      2  C   UNL     1      21.142  -9.595  25.777  0.00  0.00    +0.000 A 
ATOM      3  C   UNL     1      20.082  -8.752  26.162  0.00  0.00    +0.000 A 
ATOM      4  C   UNL     1      20.172  -7.402  25.933  0.00  0.00    +0.000 A 
ATOM      5  C   UNL     1      21.310  -6.861  25.319  0.00  0.00    +0.000 A 
ATOM      6  C   UNL     1      22.314  -7.718  24.961  0.00  0.00    +0.000 A 
ATOM      7  C   UNL     1      19.075  -6.570  26.339  0.00  0.00    +0.000 C 
ATOM      8  C   UNL     1      19.231  -5.094  26.061  0.00  0.00    +0.000 C 
ATOM      9  N   UNL     1      18.063  -7.026  26.881  0.00  0.00    +0.000 N 
ATOM     10  O   UNL     1      17.050  -6.177  27.245  0.00  0.00    +0.000 OA
ATOM     11  C   UNL     1      17.755  -8.454  27.225  0.00  0.00    +0.000 C 
ATOM     12  N   UNL     1      18.943  -9.226  26.768  0.00  0.00    +0.000 NA
ENDROOT
BRANCH  11  13
ATOM     13  C   UNL     1      16.785  -8.745  26.003  0.00  0.00    +0.000 A 
ATOM     14  C   UNL     1      15.473  -8.379  26.142  0.00  0.00    +0.000 A 
ATOM     15  C   UNL     1      14.600  -8.634  25.075  0.00  0.00    +0.000 A 
ATOM     16  C   UNL     1      15.093  -9.236  23.942  0.00  0.00    +0.000 A 
ATOM     17  C   UNL     1      16.412  -9.595  23.821  0.00  0.00    +0.000 A 
ATOM     18  C   UNL     1      17.243  -9.331  24.885  0.00  0.00    +0.000 A 
ENDBRANCH  11  13
BRANCH   1  20
ATOM     19  C   UNL     1      24.099 -10.572  25.763  0.00  0.00    +0.000 C 
ATOM     20  O   UNL     1      23.336  -9.900  24.778  0.00  0.00    +0.000 OA
ENDBRANCH   1  20
BRANCH   6  21
ATOM     21  O   UNL     1      23.464  -7.230  24.349  0.00  0.00    +0.000 OA
ATOM     22  C   UNL     1      23.559  -7.206  22.940  0.00  0.00    +0.000 C 
ENDBRANCH   6  21
TORSDOF 3
ENDMDL
MODEL 6
REMARK VINA RESULT:      -5.6     33.685     35.377
REMARK  Name = 
REMARK  3 active torsions:
REMARK  status: ('A' for Active; 'I' for Inactive)
REMARK    1  A    between atoms: O_2  and  C_3
REMARK    2  A    between atoms: C_8  and  O_9
REMARK    3  A    between atoms: C_15  and  C_16
REMARK                            x       y       z     vdW  Elec       q    Type
REMARK                         _______ _______ _______ _____ _____    ______ ____
ROOT
ATOM      1  C   UNL     1      16.465 -10.877  29.792  0.00  0.00    +0.000 A 
ATOM      2  C   UNL     1      17.671 -10.317  29.488  0.00  0.00    +0.000 A 
ATOM      3  C   UNL     1      18.006 -10.031  28.151  0.00  0.00    +0.000 A 
ATOM      4  C   UNL     1      17.112 -10.320  27.151  0.00  0.00    +0.000 A 
ATOM      5  C   UNL     1      15.871 -10.896  27.454  0.00  0.00    +0.000 A 
ATOM      6  C   UNL     1      15.588 -11.156  28.766  0.00  0.00    +0.000 A 
ATOM      7  C   UNL     1      17.485 -10.017  25.799  0.00  0.00    +0.000 C 
ATOM      8  C   UNL     1      16.460 -10.356  24.742  0.00  0.00    +0.000 C 
ATOM      9  N   UNL     1      18.573  -9.509  25.509  0.00  0.00    +0.000 N 
ATOM     10  O   UNL     1      18.868  -9.244  24.197  0.00  0.00    +0.000 OA
ATOM     11  C   UNL     1      19.690  -9.114  26.431  0.00  0.00    +0.000 C 
ATOM     12  N   UNL     1      19.208  -9.467  27.794  0.00  0.00    +0.000 NA
ENDROOT
BRANCH  11  13
ATOM     13  C   UNL     1      19.384  -7.557  26.454  0.00  0.00    +0.000 A 
ATOM     14  C   UNL     1      20.231  -6.740  25.754  0.00  0.00    +0.000 A 
ATOM     15  C   UNL     1      19.980  -5.361  25.769  0.00  0.00    +0.000 A 
ATOM     16  C   UNL     1      18.902  -4.889  26.480  0.00  0.00    +0.000 A 
ATOM     17  C   UNL     1      18.064  -5.723  27.175  0.00  0.00    +0.000 A 
ATOM     18  C   UNL     1      18.337  -7.071  27.141  0.00  0.00    +0.000 A 
ENDBRANCH  11  13
BRANCH   1  20
ATOM     19  C   UNL     1      17.107 -11.316  32.112  0.00  0.00    +0.000 C 
ATOM     20  O   UNL     1      16.098 -11.177  31.128  0.00  0.00    +0.000 OA
ENDBRANCH   1  20
BRANCH   6  21
ATOM     21  O   UNL     1      14.369 -11.727  29.119  0.00  0.00    +0.000 OA
ATOM     22  C   UNL     1      13.166 -11.203  28.599  0.00  0.00    +0.000 C 
ENDBRANCH   6  21
TORSDOF 3
ENDMDL
MODEL 7
REMARK VINA RESULT:      -5.6     20.267     22.688
REMARK  Name = 
REMARK  3 active torsions:
REMARK  status: ('A' for Active; 'I' for Inactive)
REMARK    1  A    between atoms: O_2  and  C_3
REMARK    2  A    between atoms: C_8  and  O_9
REMARK    3  A    between atoms: C_15  and  C_16
REMARK                            x       y       z     vdW  Elec       q    Type
REMARK                         _______ _______ _______ _____ _____    ______ ____
ROOT
ATOM      1  C   UNL     1      19.510   7.350  40.281  0.00  0.00    +0.000 A 
ATOM      2  C   UNL     1      18.390   7.923  39.752  0.00  0.00    +0.000 A 
ATOM      3  C   UNL     1      18.446   9.215  39.198  0.00  0.00    +0.000 A 
ATOM      4  C   UNL     1      19.635   9.900  39.192  0.00  0.00    +0.000 A 
ATOM      5  C   UNL     1      20.791   9.320  39.733  0.00  0.00    +0.000 A 
ATOM      6  C   UNL     1      20.689   8.062  40.260  0.00  0.00    +0.000 A 
ATOM      7  C   UNL     1      19.658  11.216  38.620  0.00  0.00    +0.000 C 
ATOM      8  C   UNL     1      20.995  11.920  38.642  0.00  0.00    +0.000 C 
ATOM      9  N   UNL     1      18.652  11.747  38.138  0.00  0.00    +0.000 N 
ATOM     10  O   UNL     1      18.742  13.007  37.607  0.00  0.00    +0.000 OA
ATOM     11  C   UNL     1      17.263  11.188  38.039  0.00  0.00    +0.000 C 
ATOM     12  N   UNL     1      17.346   9.835  38.654  0.00  0.00    +0.000 NA
ENDROOT
BRANCH  11  13
ATOM     13  C   UNL     1      17.328  10.770  36.509  0.00  0.00    +0.000 A 
ATOM     14  C   UNL     1      17.782   9.512  36.221  0.00  0.00    +0.000 A 
ATOM     15  C   UNL     1      17.852   9.128  34.874  0.00  0.00    +0.000 A 
ATOM     16  C   UNL     1      17.465  10.025  33.906  0.00  0.00    +0.000 A 
ATOM     17  C   UNL     1      17.013  11.282  34.215  0.00  0.00    +0.000 A 
ATOM     18  C   UNL     1      16.955  11.628  35.545  0.00  0.00    +0.000 A 
ENDBRANCH  11  13
BRANCH   1  20
ATOM     19  C   UNL     1      18.249   5.487  41.245  0.00  0.00    +0.000 C 
ATOM     20  O   UNL     1      19.486   6.050  40.846  0.00  0.00    +0.000 OA
ENDBRANCH   1  20
BRANCH   6  21
ATOM     21  O   UNL     1      21.807   7.442  40.810  0.00  0.00    +0.000 OA
ATOM     22  C   UNL     1      23.097   7.750  40.324  0.00  0.00    +0.000 C 
ENDBRANCH   6  21
TORSDOF 3
ENDMDL
MODEL 8
REMARK VINA RESULT:      -5.5      2.903      5.729
REMARK  Name = 
REMARK  3 active torsions:
REMARK  status: ('A' for Active; 'I' for Inactive)
REMARK    1  A    between atoms: O_2  and  C_3
REMARK    2  A    between atoms: C_8  and  O_9
REMARK    3  A    between atoms: C_15  and  C_16
REMARK                            x       y       z     vdW  Elec       q    Type
REMARK                         _______ _______ _______ _____ _____    ______ ____
ROOT
ATOM      1  C   UNL     1      24.830  26.684  25.197  0.00  0.00    +0.000 A 
ATOM      2  C   UNL     1      25.186  25.383  24.999  0.00  0.00    +0.000 A 
ATOM      3  C   UNL     1      26.321  25.063  24.232  0.00  0.00    +0.000 A 
ATOM      4  C   UNL     1      27.072  26.071  23.680  0.00  0.00    +0.000 A 
ATOM      5  C   UNL     1      26.714  27.412  23.877  0.00  0.00    +0.000 A 
ATOM      6  C   UNL     1      25.603  27.674  24.630  0.00  0.00    +0.000 A 
ATOM      7  C   UNL     1      28.224  25.712  22.903  0.00  0.00    +0.000 C 
ATOM      8  C   UNL     1      29.010  26.864  22.322  0.00  0.00    +0.000 C 
ATOM      9  N   UNL     1      28.558  24.538  22.716  0.00  0.00    +0.000 N 
ATOM     10  O   UNL     1      29.670  24.262  21.963  0.00  0.00    +0.000 OA
ATOM     11  C   UNL     1      27.891  23.290  23.218  0.00  0.00    +0.000 C 
ATOM     12  N   UNL     1      26.721  23.768  24.004  0.00  0.00    +0.000 NA
ENDROOT
BRANCH  11  13
ATOM     13  C   UNL     1      28.893  23.001  24.415  0.00  0.00    +0.000 A 
ATOM     14  C   UNL     1      30.232  23.036  24.135  0.00  0.00    +0.000 A 
ATOM     15  C   UNL     1      31.132  22.776  25.179  0.00  0.00    +0.000 A 
ATOM     16  C   UNL     1      30.635  22.499  26.430  0.00  0.00    +0.000 A 
ATOM     17  C   UNL     1      29.289  22.469  26.692  0.00  0.00    +0.000 A 
ATOM     18  C   UNL     1      28.433  22.729  25.647  0.00  0.00    +0.000 A 
ENDBRANCH  11  13
BRANCH   1  20
ATOM     19  C   UNL     1      23.277  26.193  27.023  0.00  0.00    +0.000 C 
ATOM     20  O   UNL     1      23.692  27.038  25.965  0.00  0.00    +0.000 OA
ENDBRANCH   1  20
BRANCH   6  21
ATOM     21  O   UNL     1      25.206  28.988  24.856  0.00  0.00    +0.000 OA
ATOM     22  C   UNL     1      25.005  29.863  23.765  0.00  0.00    +0.000 C 
ENDBRANCH   6  21
TORSDOF 3
ENDMDL
MODEL 9
REMARK VINA RESULT:      -5.3      2.402      3.593
REMARK  Name = 
REMARK  3 active torsions:
REMARK  status: ('A' for Active; 'I' for Inactive)
REMARK    1  A    between atoms: O_2  and  C_3
REMARK    2  A    between atoms: C_8  and  O_9
REMARK    3  A    between atoms: C_15  and  C_16
REMARK                            x       y       z     vdW  Elec       q    Type
REMARK                         _______ _______ _______ _____ _____    ______ ____
ROOT
ATOM      1  C   UNL     1      31.643  22.457  29.605  0.00  0.00    +0.000 A 
ATOM      2  C   UNL     1      31.679  22.314  28.249  0.00  0.00    +0.000 A 
ATOM      3  C   UNL     1      30.504  22.451  27.487  0.00  0.00    +0.000 A 
ATOM      4  C   UNL     1      29.317  22.732  28.116  0.00  0.00    +0.000 A 
ATOM      5  C   UNL     1      29.270  22.880  29.509  0.00  0.00    +0.000 A 
ATOM      6  C   UNL     1      30.437  22.738  30.208  0.00  0.00    +0.000 A 
ATOM      7  C   UNL     1      28.136  22.865  27.311  0.00  0.00    +0.000 C 
ATOM      8  C   UNL     1      26.861  23.174  28.060  0.00  0.00    +0.000 C 
ATOM      9  N   UNL     1      28.154  22.738  26.082  0.00  0.00    +0.000 N 
ATOM     10  O   UNL     1      26.991  22.879  25.371  0.00  0.00    +0.000 OA
ATOM     11  C   UNL     1      29.327  22.435  25.196  0.00  0.00    +0.000 C 
ATOM     12  N   UNL     1      30.488  22.316  26.119  0.00  0.00    +0.000 NA
ENDROOT
BRANCH  11  13
ATOM     13  C   UNL     1      29.570  23.916  24.679  0.00  0.00    +0.000 A 
ATOM     14  C   UNL     1      29.295  24.175  23.363  0.00  0.00    +0.000 A 
ATOM     15  C   UNL     1      29.510  25.477  22.888  0.00  0.00    +0.000 A 
ATOM     16  C   UNL     1      29.985  26.431  23.756  0.00  0.00    +0.000 A 
ATOM     17  C   UNL     1      30.255  26.152  25.071  0.00  0.00    +0.000 A 
ATOM     18  C   UNL     1      30.033  24.866  25.507  0.00  0.00    +0.000 A 
ENDBRANCH  11  13
BRANCH   1  20
ATOM     19  C   UNL     1      34.074  22.226  29.768  0.00  0.00    +0.000 C 
ATOM     20  O   UNL     1      32.810  22.324  30.399  0.00  0.00    +0.000 OA
ENDBRANCH   1  20
BRANCH   6  21
ATOM     21  O   UNL     1      30.444  22.876  31.592  0.00  0.00    +0.000 OA
ATOM     22  C   UNL     1      30.175  21.761  32.416  0.00  0.00    +0.000 C 
ENDBRANCH   6  21
TORSDOF 3
ENDMDL
MODEL 10
REMARK VINA RESULT:      -5.2     32.432     33.799
REMARK  Name = 
REMARK  3 active torsions:
REMARK  status: ('A' for Active; 'I' for Inactive)
REMARK    1  A    between atoms: O_2  and  C_3
REMARK    2  A    between atoms: C_8  and  O_9
REMARK    3  A    between atoms: C_15  and  C_16
REMARK                            x       y       z     vdW  Elec       q    Type
REMARK                         _______ _______ _______ _____ _____    ______ ____
ROOT
ATOM      1  C   UNL     1      18.826  -7.782  27.031  0.00  0.00    +0.000 A 
ATOM      2  C   UNL     1      19.567  -7.146  26.079  0.00  0.00    +0.000 A 
ATOM      3  C   UNL     1      20.798  -7.683  25.657  0.00  0.00    +0.000 A 
ATOM      4  C   UNL     1      21.252  -8.854  26.211  0.00  0.00    +0.000 A 
ATOM      5  C   UNL     1      20.498  -9.515  27.190  0.00  0.00    +0.000 A 
ATOM      6  C   UNL     1      19.308  -8.956  27.568  0.00  0.00    +0.000 A 
ATOM      7  C   UNL     1      22.511  -9.375  25.760  0.00  0.00    +0.000 C 
ATOM      8  C   UNL     1      22.958 -10.666  26.405  0.00  0.00    +0.000 C 
ATOM      9  N   UNL     1      23.192  -8.809  24.898  0.00  0.00    +0.000 N 
ATOM     10  O   UNL     1      24.386  -9.359  24.511  0.00  0.00    +0.000 OA
ATOM     11  C   UNL     1      22.893  -7.533  24.167  0.00  0.00    +0.000 C 
ATOM     12  N   UNL     1      21.581  -7.079  24.702  0.00  0.00    +0.000 NA
ENDROOT
BRANCH  11  13
ATOM     13  C   UNL     1      22.394  -8.195  22.813  0.00  0.00    +0.000 A 
ATOM     14  C   UNL     1      23.009  -7.799  21.656  0.00  0.00    +0.000 A 
ATOM     15  C   UNL     1      22.576  -8.369  20.450  0.00  0.00    +0.000 A 
ATOM     16  C   UNL     1      21.561  -9.295  20.479  0.00  0.00    +0.000 A 
ATOM     17  C   UNL     1      20.957  -9.680  21.649  0.00  0.00    +0.000 A 
ATOM     18  C   UNL     1      21.404  -9.103  22.815  0.00  0.00    +0.000 A 
ENDBRANCH  11  13
BRANCH   1  20
ATOM     19  C   UNL     1      16.438  -7.404  26.653  0.00  0.00    +0.000 C 
ATOM     20  O   UNL     1      17.583  -7.267  27.476  0.00  0.00    +0.000 OA
ENDBRANCH   1  20
BRANCH   6  21
ATOM     21  O   UNL     1      18.522  -9.574  28.536  0.00  0.00    +0.000 OA
ATOM     22  C   UNL     1      18.916  -9.544  29.891  0.00  0.00    +0.000 C 
ENDBRANCH   6  21
TORSDOF 3
ENDMDL
