MODEL 1
REMARK VINA RESULT:      -8.5      0.000      0.000
REMARK  Name = 
REMARK  5 active torsions:
REMARK  status: ('A' for Active; 'I' for Inactive)
REMARK    1  A    between atoms: C_2  and  N_3
REMARK    2  A    between atoms: C_12  and  N_13
REMARK    3  A    between atoms: C_14  and  C_16
REMARK    4  A    between atoms: C_16  and  N_17
REMARK    5  A    between atoms: N_17  and  C_18
REMARK                            x       y       z     vdW  Elec       q    Type
REMARK                         _______ _______ _______ _____ _____    ______ ____
ROOT
ATOM      1  N   UNL     1      35.223  -1.353  16.667  0.00  0.00    +0.000 N 
ATOM      2  C   UNL     1      35.862  -2.174  15.806  0.00  0.00    +0.000 A 
ATOM      3  C   UNL     1      35.925  -3.551  15.663  0.00  0.00    +0.000 A 
ATOM      4  C   UNL     1      36.687  -4.133  14.651  0.00  0.00    +0.000 A 
ATOM      5  C   UNL     1      37.375  -3.313  13.799  0.00  0.00    +0.000 A 
ATOM      6  C   UNL     1      37.330  -1.930  13.919  0.00  0.00    +0.000 A 
ATOM      7  C   UNL     1      36.565  -1.373  14.933  0.00  0.00    +0.000 A 
ATOM      8  C   UNL     1      36.327  -0.058  15.300  0.00  0.00    +0.000 A 
ATOM      9  C   UNL     1      36.734   1.167  14.829  0.00  0.00    +0.000 A 
ATOM     10  C   UNL     1      36.357   2.383  15.372  0.00  0.00    +0.000 A 
ATOM     11  C   UNL     1      35.508   2.336  16.465  0.00  0.00    +0.000 A 
ATOM     12  C   UNL     1      35.075   1.128  16.970  0.00  0.00    +0.000 A 
ATOM     13  C   UNL     1      35.482  -0.061  16.390  0.00  0.00    +0.000 A 
ENDROOT
BRANCH  10  14
ATOM     14  N   UNL     1      36.823   3.621  14.835  0.00  0.00    +0.000 NA
ATOM     15  C   UNL     1      38.053   4.133  15.323  0.00  0.00    +0.000 C 
ATOM     16  O   UNL     1      38.654   3.467  16.197  0.00  0.00    +0.000 OA
BRANCH  15  17
ATOM     17  C   UNL     1      38.613   5.436  14.802  0.00  0.00    +0.000 C 
BRANCH  17  18
ATOM     18  N   UNL     1      39.941   5.653  15.342  0.00  0.00    +0.000 NA
BRANCH  18  19
ATOM     19  C   UNL     1      39.908   7.193  15.808  0.00  0.00    +0.000 C 
ATOM     20  C   UNL     1      41.399   7.490  15.179  0.00  0.00    +0.000 C 
ATOM     21  C   UNL     1      42.308   6.397  15.554  0.00  0.00    +0.000 C 
ATOM     22  C   UNL     1      42.714   6.690  16.983  0.00  0.00    +0.000 C 
ATOM     23  C   UNL     1      41.493   6.645  17.776  0.00  0.00    +0.000 A 
ATOM     24  C   UNL     1      41.651   6.361  19.115  0.00  0.00    +0.000 A 
ATOM     25  C   UNL     1      40.569   6.293  19.981  0.00  0.00    +0.000 A 
ATOM     26  C   UNL     1      39.305   6.517  19.480  0.00  0.00    +0.000 A 
ATOM     27  C   UNL     1      39.171   6.804  18.114  0.00  0.00    +0.000 A 
ATOM     28  C   UNL     1      40.282   6.859  17.304  0.00  0.00    +0.000 A 
ENDBRANCH  18  19
ENDBRANCH  17  18
ENDBRANCH  15  17
ENDBRANCH  10  14
BRANCH   1  30
ATOM     29  C   UNL     1      32.937  -1.921  17.297  0.00  0.00    +0.000 C 
ATOM     30  C   UNL     1      34.368  -1.761  17.759  0.00  0.00    +0.000 C 
ENDBRANCH   1  30
TORSDOF 5
ENDMDL
MODEL 2
REMARK VINA RESULT:      -8.4      2.379      9.569
REMARK  Name = 
REMARK  5 active torsions:
REMARK  status: ('A' for Active; 'I' for Inactive)
REMARK    1  A    between atoms: C_2  and  N_3
REMARK    2  A    between atoms: C_12  and  N_13
REMARK    3  A    between atoms: C_14  and  C_16
REMARK    4  A    between atoms: C_16  and  N_17
REMARK    5  A    between atoms: N_17  and  C_18
REMARK                            x       y       z     vdW  Elec       q    Type
REMARK                         _______ _______ _______ _____ _____    ______ ____
ROOT
ATOM      1  N   UNL     1      40.318   8.776  19.566  0.00  0.00    +0.000 N 
ATOM      2  C   UNL     1      41.400   8.276  20.201  0.00  0.00    +0.000 A 
ATOM      3  C   UNL     1      42.425   8.844  20.939  0.00  0.00    +0.000 A 
ATOM      4  C   UNL     1      43.435   8.057  21.490  0.00  0.00    +0.000 A 
ATOM      5  C   UNL     1      43.393   6.705  21.286  0.00  0.00    +0.000 A 
ATOM      6  C   UNL     1      42.377   6.108  20.550  0.00  0.00    +0.000 A 
ATOM      7  C   UNL     1      41.383   6.911  20.011  0.00  0.00    +0.000 A 
ATOM      8  C   UNL     1      40.264   6.617  19.249  0.00  0.00    +0.000 A 
ATOM      9  C   UNL     1      39.715   5.464  18.741  0.00  0.00    +0.000 A 
ATOM     10  C   UNL     1      38.558   5.411  17.984  0.00  0.00    +0.000 A 
ATOM     11  C   UNL     1      37.926   6.618  17.734  0.00  0.00    +0.000 A 
ATOM     12  C   UNL     1      38.443   7.800  18.224  0.00  0.00    +0.000 A 
ATOM     13  C   UNL     1      39.605   7.797  18.976  0.00  0.00    +0.000 A 
ENDROOT
BRANCH  10  14
ATOM     14  N   UNL     1      38.044   4.177  17.482  0.00  0.00    +0.000 NA
ATOM     15  C   UNL     1      38.027   3.990  16.077  0.00  0.00    +0.000 C 
ATOM     16  O   UNL     1      38.461   4.922  15.360  0.00  0.00    +0.000 OA
BRANCH  15  17
ATOM     17  C   UNL     1      37.501   2.710  15.469  0.00  0.00    +0.000 C 
BRANCH  17  18
ATOM     18  N   UNL     1      37.089   1.798  16.518  0.00  0.00    +0.000 NA
BRANCH  18  19
ATOM     19  C   UNL     1      36.287   0.651  15.724  0.00  0.00    +0.000 C 
ATOM     20  C   UNL     1      35.057   0.655  16.816  0.00  0.00    +0.000 C 
ATOM     21  C   UNL     1      35.618   0.663  18.175  0.00  0.00    +0.000 C 
ATOM     22  C   UNL     1      36.021  -0.770  18.448  0.00  0.00    +0.000 C 
ATOM     23  C   UNL     1      37.045  -1.103  17.466  0.00  0.00    +0.000 A 
ATOM     24  C   UNL     1      37.914  -2.113  17.817  0.00  0.00    +0.000 A 
ATOM     25  C   UNL     1      38.932  -2.529  16.970  0.00  0.00    +0.000 A 
ATOM     26  C   UNL     1      39.069  -1.911  15.746  0.00  0.00    +0.000 A 
ATOM     27  C   UNL     1      38.171  -0.886  15.413  0.00  0.00    +0.000 A 
ATOM     28  C   UNL     1      37.182  -0.517  16.294  0.00  0.00    +0.000 A 
ENDBRANCH  18  19
ENDBRANCH  17  18
ENDBRANCH  15  17
ENDBRANCH  10  14
BRANCH   1  30
ATOM     29  C   UNL     1      39.087  10.557  20.686  0.00  0.00    +0.000 C 
ATOM     30  C   UNL     1      39.937  10.169  19.498  0.00  0.00    +0.000 C 
ENDBRANCH   1  30
TORSDOF 5
ENDMDL
MODEL 3
REMARK VINA RESULT:      -8.2      1.928      9.427
REMARK  Name = 
REMARK  5 active torsions:
REMARK  status: ('A' for Active; 'I' for Inactive)
REMARK    1  A    between atoms: C_2  and  N_3
REMARK    2  A    between atoms: C_12  and  N_13
REMARK    3  A    between atoms: C_14  and  C_16
REMARK    4  A    between atoms: C_16  and  N_17
REMARK    5  A    between atoms: N_17  and  C_18
REMARK                            x       y       z     vdW  Elec       q    Type
REMARK                         _______ _______ _______ _____ _____    ______ ____
ROOT
ATOM      1  N   UNL     1      42.313   7.204  17.022  0.00  0.00    +0.000 N 
ATOM      2  C   UNL     1      42.622   7.123  18.334  0.00  0.00    +0.000 A 
ATOM      3  C   UNL     1      43.687   7.575  19.097  0.00  0.00    +0.000 A 
ATOM      4  C   UNL     1      43.738   7.338  20.470  0.00  0.00    +0.000 A 
ATOM      5  C   UNL     1      42.710   6.646  21.051  0.00  0.00    +0.000 A 
ATOM      6  C   UNL     1      41.631   6.182  20.310  0.00  0.00    +0.000 A 
ATOM      7  C   UNL     1      41.602   6.430  18.946  0.00  0.00    +0.000 A 
ATOM      8  C   UNL     1      40.681   6.102  17.964  0.00  0.00    +0.000 A 
ATOM      9  C   UNL     1      39.482   5.431  17.945  0.00  0.00    +0.000 A 
ATOM     10  C   UNL     1      38.717   5.218  16.812  0.00  0.00    +0.000 A 
ATOM     11  C   UNL     1      39.214   5.729  15.625  0.00  0.00    +0.000 A 
ATOM     12  C   UNL     1      40.413   6.411  15.598  0.00  0.00    +0.000 A 
ATOM     13  C   UNL     1      41.141   6.595  16.760  0.00  0.00    +0.000 A 
ENDROOT
BRANCH  10  14
ATOM     14  N   UNL     1      37.481   4.505  16.863  0.00  0.00    +0.000 NA
ATOM     15  C   UNL     1      37.446   3.201  16.306  0.00  0.00    +0.000 C 
ATOM     16  O   UNL     1      38.502   2.756  15.800  0.00  0.00    +0.000 OA
BRANCH  15  17
ATOM     17  C   UNL     1      36.176   2.382  16.325  0.00  0.00    +0.000 C 
BRANCH  17  18
ATOM     18  N   UNL     1      36.307   1.289  17.268  0.00  0.00    +0.000 NA
BRANCH  18  19
ATOM     19  C   UNL     1      35.636   0.046  16.497  0.00  0.00    +0.000 C 
ATOM     20  C   UNL     1      34.916  -0.508  17.868  0.00  0.00    +0.000 C 
ATOM     21  C   UNL     1      35.890  -0.480  18.970  0.00  0.00    +0.000 C 
ATOM     22  C   UNL     1      36.749  -1.711  18.773  0.00  0.00    +0.000 C 
ATOM     23  C   UNL     1      37.414  -1.547  17.487  0.00  0.00    +0.000 A 
ATOM     24  C   UNL     1      38.598  -2.234  17.327  0.00  0.00    +0.000 A 
ATOM     25  C   UNL     1      39.329  -2.166  16.149  0.00  0.00    +0.000 A 
ATOM     26  C   UNL     1      38.850  -1.389  15.116  0.00  0.00    +0.000 A 
ATOM     27  C   UNL     1      37.643  -0.701  15.305  0.00  0.00    +0.000 A 
ATOM     28  C   UNL     1      36.963  -0.807  16.495  0.00  0.00    +0.000 A 
ENDBRANCH  18  19
ENDBRANCH  17  18
ENDBRANCH  15  17
ENDBRANCH  10  14
BRANCH   1  30
ATOM     29  C   UNL     1      44.128   6.892  15.424  0.00  0.00    +0.000 C 
ATOM     30  C   UNL     1      43.105   7.846  15.997  0.00  0.00    +0.000 C 
ENDBRANCH   1  30
TORSDOF 5
ENDMDL
MODEL 4
REMARK VINA RESULT:      -8.1      1.997      3.404
REMARK  Name = 
REMARK  5 active torsions:
REMARK  status: ('A' for Active; 'I' for Inactive)
REMARK    1  A    between atoms: C_2  and  N_3
REMARK    2  A    between atoms: C_12  and  N_13
REMARK    3  A    between atoms: C_14  and  C_16
REMARK    4  A    between atoms: C_16  and  N_17
REMARK    5  A    between atoms: N_17  and  C_18
REMARK                            x       y       z     vdW  Elec       q    Type
REMARK                         _______ _______ _______ _____ _____    ______ ____
ROOT
ATOM      1  N   UNL     1      37.686  -1.531  15.263  0.00  0.00    +0.000 N 
ATOM      2  C   UNL     1      36.512  -1.667  15.915  0.00  0.00    +0.000 A 
ATOM      3  C   UNL     1      35.779  -2.759  16.353  0.00  0.00    +0.000 A 
ATOM      4  C   UNL     1      34.566  -2.590  17.018  0.00  0.00    +0.000 A 
ATOM      5  C   UNL     1      34.111  -1.317  17.232  0.00  0.00    +0.000 A 
ATOM      6  C   UNL     1      34.824  -0.204  16.804  0.00  0.00    +0.000 A 
ATOM      7  C   UNL     1      36.029  -0.397  16.145  0.00  0.00    +0.000 A 
ATOM      8  C   UNL     1      36.947   0.493  15.611  0.00  0.00    +0.000 A 
ATOM      9  C   UNL     1      37.030   1.862  15.525  0.00  0.00    +0.000 A 
ATOM     10  C   UNL     1      38.071   2.551  14.928  0.00  0.00    +0.000 A 
ATOM     11  C   UNL     1      39.091   1.784  14.388  0.00  0.00    +0.000 A 
ATOM     12  C   UNL     1      39.048   0.407  14.453  0.00  0.00    +0.000 A 
ATOM     13  C   UNL     1      37.983  -0.233  15.061  0.00  0.00    +0.000 A 
ENDROOT
BRANCH  10  14
ATOM     14  N   UNL     1      38.092   3.977  14.867  0.00  0.00    +0.000 NA
ATOM     15  C   UNL     1      38.266   4.688  16.082  0.00  0.00    +0.000 C 
ATOM     16  O   UNL     1      38.388   4.021  17.135  0.00  0.00    +0.000 OA
BRANCH  15  17
ATOM     17  C   UNL     1      38.301   6.199  16.099  0.00  0.00    +0.000 C 
BRANCH  17  18
ATOM     18  N   UNL     1      38.430   6.675  17.462  0.00  0.00    +0.000 NA
BRANCH  18  19
ATOM     19  C   UNL     1      39.666   7.703  17.386  0.00  0.00    +0.000 C 
ATOM     20  C   UNL     1      40.672   6.663  18.168  0.00  0.00    +0.000 C 
ATOM     21  C   UNL     1      39.971   6.095  19.330  0.00  0.00    +0.000 C 
ATOM     22  C   UNL     1      40.042   7.164  20.399  0.00  0.00    +0.000 C 
ATOM     23  C   UNL     1      39.325   8.319  19.873  0.00  0.00    +0.000 A 
ATOM     24  C   UNL     1      38.808   9.187  20.810  0.00  0.00    +0.000 A 
ATOM     25  C   UNL     1      38.107  10.327  20.442  0.00  0.00    +0.000 A 
ATOM     26  C   UNL     1      37.928  10.591  19.101  0.00  0.00    +0.000 A 
ATOM     27  C   UNL     1      38.465   9.692  18.168  0.00  0.00    +0.000 A 
ATOM     28  C   UNL     1      39.150   8.578  18.593  0.00  0.00    +0.000 A 
ENDBRANCH  18  19
ENDBRANCH  17  18
ENDBRANCH  15  17
ENDBRANCH  10  14
BRANCH   1  30
ATOM     29  C   UNL     1      39.471  -3.054  15.925  0.00  0.00    +0.000 C 
ATOM     30  C   UNL     1      38.544  -2.606  14.818  0.00  0.00    +0.000 C 
ENDBRANCH   1  30
TORSDOF 5
ENDMDL
MODEL 5
REMARK VINA RESULT:      -8.1      2.057      3.636
REMARK  Name = 
REMARK  5 active torsions:
REMARK  status: ('A' for Active; 'I' for Inactive)
REMARK    1  A    between atoms: C_2  and  N_3
REMARK    2  A    between atoms: C_12  and  N_13
REMARK    3  A    between atoms: C_14  and  C_16
REMARK    4  A    between atoms: C_16  and  N_17
REMARK    5  A    between atoms: N_17  and  C_18
REMARK                            x       y       z     vdW  Elec       q    Type
REMARK                         _______ _______ _______ _____ _____    ______ ____
ROOT
ATOM      1  N   UNL     1      37.503  -0.592  14.923  0.00  0.00    +0.000 N 
ATOM      2  C   UNL     1      36.425  -0.985  15.635  0.00  0.00    +0.000 A 
ATOM      3  C   UNL     1      35.790  -2.203  15.819  0.00  0.00    +0.000 A 
ATOM      4  C   UNL     1      34.665  -2.309  16.636  0.00  0.00    +0.000 A 
ATOM      5  C   UNL     1      34.199  -1.182  17.255  0.00  0.00    +0.000 A 
ATOM      6  C   UNL     1      34.816   0.052  17.088  0.00  0.00    +0.000 A 
ATOM      7  C   UNL     1      35.933   0.134  16.271  0.00  0.00    +0.000 A 
ATOM      8  C   UNL     1      36.747   1.198  15.917  0.00  0.00    +0.000 A 
ATOM      9  C   UNL     1      36.773   2.539  16.218  0.00  0.00    +0.000 A 
ATOM     10  C   UNL     1      37.708   3.436  15.732  0.00  0.00    +0.000 A 
ATOM     11  C   UNL     1      38.677   2.923  14.885  0.00  0.00    +0.000 A 
ATOM     12  C   UNL     1      38.688   1.582  14.557  0.00  0.00    +0.000 A 
ATOM     13  C   UNL     1      37.729   0.727  15.070  0.00  0.00    +0.000 A 
ENDROOT
BRANCH  10  14
ATOM     14  N   UNL     1      37.673   4.820  16.081  0.00  0.00    +0.000 NA
ATOM     15  C   UNL     1      38.250   5.205  17.318  0.00  0.00    +0.000 C 
ATOM     16  O   UNL     1      38.753   4.305  18.031  0.00  0.00    +0.000 OA
BRANCH  15  17
ATOM     17  C   UNL     1      38.256   6.651  17.756  0.00  0.00    +0.000 C 
BRANCH  17  18
ATOM     18  N   UNL     1      39.560   7.004  18.280  0.00  0.00    +0.000 NA
BRANCH  18  19
ATOM     19  C   UNL     1      39.344   6.980  19.874  0.00  0.00    +0.000 C 
ATOM     20  C   UNL     1      38.702   8.494  19.882  0.00  0.00    +0.000 C 
ATOM     21  C   UNL     1      39.531   9.374  19.043  0.00  0.00    +0.000 C 
ATOM     22  C   UNL     1      40.722   9.738  19.904  0.00  0.00    +0.000 C 
ATOM     23  C   UNL     1      41.417   8.490  20.193  0.00  0.00    +0.000 A 
ATOM     24  C   UNL     1      42.758   8.600  20.491  0.00  0.00    +0.000 A 
ATOM     25  C   UNL     1      43.534   7.489  20.789  0.00  0.00    +0.000 A 
ATOM     26  C   UNL     1      42.940   6.245  20.784  0.00  0.00    +0.000 A 
ATOM     27  C   UNL     1      41.574   6.161  20.478  0.00  0.00    +0.000 A 
ATOM     28  C   UNL     1      40.856   7.298  20.191  0.00  0.00    +0.000 A 
ENDBRANCH  18  19
ENDBRANCH  17  18
ENDBRANCH  15  17
ENDBRANCH  10  14
BRANCH   1  30
ATOM     29  C   UNL     1      39.462  -2.044  14.899  0.00  0.00    +0.000 C 
ATOM     30  C   UNL     1      38.333  -1.439  14.096  0.00  0.00    +0.000 C 
ENDBRANCH   1  30
TORSDOF 5
ENDMDL
MODEL 6
REMARK VINA RESULT:      -8.0     25.315     28.719
REMARK  Name = 
REMARK  5 active torsions:
REMARK  status: ('A' for Active; 'I' for Inactive)
REMARK    1  A    between atoms: C_2  and  N_3
REMARK    2  A    between atoms: C_12  and  N_13
REMARK    3  A    between atoms: C_14  and  C_16
REMARK    4  A    between atoms: C_16  and  N_17
REMARK    5  A    between atoms: N_17  and  C_18
REMARK                            x       y       z     vdW  Elec       q    Type
REMARK                         _______ _______ _______ _____ _____    ______ ____
ROOT
ATOM      1  N   UNL     1      24.998  17.759  35.037  0.00  0.00    +0.000 N 
ATOM      2  C   UNL     1      25.109  16.759  34.137  0.00  0.00    +0.000 A 
ATOM      3  C   UNL     1      24.881  16.666  32.773  0.00  0.00    +0.000 A 
ATOM      4  C   UNL     1      25.088  15.469  32.090  0.00  0.00    +0.000 A 
ATOM      5  C   UNL     1      25.524  14.381  32.797  0.00  0.00    +0.000 A 
ATOM      6  C   UNL     1      25.760  14.445  34.165  0.00  0.00    +0.000 A 
ATOM      7  C   UNL     1      25.548  15.647  34.823  0.00  0.00    +0.000 A 
ATOM      8  C   UNL     1      25.693  16.015  36.151  0.00  0.00    +0.000 A 
ATOM      9  C   UNL     1      26.087  15.368  37.297  0.00  0.00    +0.000 A 
ATOM     10  C   UNL     1      26.155  15.955  38.548  0.00  0.00    +0.000 A 
ATOM     11  C   UNL     1      25.798  17.291  38.625  0.00  0.00    +0.000 A 
ATOM     12  C   UNL     1      25.396  17.980  37.499  0.00  0.00    +0.000 A 
ATOM     13  C   UNL     1      25.344  17.344  36.271  0.00  0.00    +0.000 A 
ENDROOT
BRANCH  10  14
ATOM     14  N   UNL     1      26.569  15.222  39.701  0.00  0.00    +0.000 NA
ATOM     15  C   UNL     1      25.604  14.410  40.350  0.00  0.00    +0.000 C 
ATOM     16  O   UNL     1      24.446  14.388  39.872  0.00  0.00    +0.000 OA
BRANCH  15  17
ATOM     17  C   UNL     1      25.965  13.601  41.573  0.00  0.00    +0.000 C 
BRANCH  17  18
ATOM     18  N   UNL     1      26.662  12.392  41.179  0.00  0.00    +0.000 NA
BRANCH  18  19
ATOM     19  C   UNL     1      27.331  11.880  42.550  0.00  0.00    +0.000 C 
ATOM     20  C   UNL     1      28.800  11.673  41.840  0.00  0.00    +0.000 C 
ATOM     21  C   UNL     1      28.621  10.989  40.550  0.00  0.00    +0.000 C 
ATOM     22  C   UNL     1      28.442   9.526  40.897  0.00  0.00    +0.000 C 
ATOM     23  C   UNL     1      27.232   9.439  41.704  0.00  0.00    +0.000 A 
ATOM     24  C   UNL     1      26.587   8.222  41.697  0.00  0.00    +0.000 A 
ATOM     25  C   UNL     1      25.426   8.006  42.426  0.00  0.00    +0.000 A 
ATOM     26  C   UNL     1      24.912   9.042  43.175  0.00  0.00    +0.000 A 
ATOM     27  C   UNL     1      25.588  10.271  43.165  0.00  0.00    +0.000 A 
ATOM     28  C   UNL     1      26.735  10.425  42.422  0.00  0.00    +0.000 A 
ENDBRANCH  18  19
ENDBRANCH  17  18
ENDBRANCH  15  17
ENDBRANCH  10  14
BRANCH   1  30
ATOM     29  C   UNL     1      25.725  19.967  34.302  0.00  0.00    +0.000 C 
ATOM     30  C   UNL     1      24.566  19.111  34.760  0.00  0.00    +0.000 C 
ENDBRANCH   1  30
TORSDOF 5
ENDMDL
MODEL 7
REMARK VINA RESULT:      -8.0      2.038      9.698
REMARK  Name = 
REMARK  5 active torsions:
REMARK  status: ('A' for Active; 'I' for Inactive)
REMARK    1  A    between atoms: C_2  and  N_3
REMARK    2  A    between atoms: C_12  and  N_13
REMARK    3  A    between atoms: C_14  and  C_16
REMARK    4  A    between atoms: C_16  and  N_17
REMARK    5  A    between atoms: N_17  and  C_18
REMARK                            x       y       z     vdW  Elec       q    Type
REMARK                         _______ _______ _______ _____ _____    ______ ____
ROOT
ATOM      1  N   UNL     1      42.966   7.118  19.955  0.00  0.00    +0.000 N 
ATOM      2  C   UNL     1      43.946   7.177  19.028  0.00  0.00    +0.000 A 
ATOM      3  C   UNL     1      45.290   7.511  19.074  0.00  0.00    +0.000 A 
ATOM      4  C   UNL     1      46.078   7.479  17.925  0.00  0.00    +0.000 A 
ATOM      5  C   UNL     1      45.494   7.110  16.744  0.00  0.00    +0.000 A 
ATOM      6  C   UNL     1      44.149   6.770  16.668  0.00  0.00    +0.000 A 
ATOM      7  C   UNL     1      43.385   6.809  17.825  0.00  0.00    +0.000 A 
ATOM      8  C   UNL     1      42.049   6.531  18.063  0.00  0.00    +0.000 A 
ATOM      9  C   UNL     1      40.991   6.125  17.285  0.00  0.00    +0.000 A 
ATOM     10  C   UNL     1      39.708   5.906  17.755  0.00  0.00    +0.000 A 
ATOM     11  C   UNL     1      39.500   6.116  19.108  0.00  0.00    +0.000 A 
ATOM     12  C   UNL     1      40.534   6.524  19.926  0.00  0.00    +0.000 A 
ATOM     13  C   UNL     1      41.799   6.729  19.405  0.00  0.00    +0.000 A 
ENDROOT
BRANCH  10  14
ATOM     14  N   UNL     1      38.651   5.490  16.889  0.00  0.00    +0.000 NA
ATOM     15  C   UNL     1      37.941   4.311  17.231  0.00  0.00    +0.000 C 
ATOM     16  O   UNL     1      38.287   3.705  18.272  0.00  0.00    +0.000 OA
BRANCH  15  17
ATOM     17  C   UNL     1      36.808   3.809  16.367  0.00  0.00    +0.000 C 
BRANCH  17  18
ATOM     18  N   UNL     1      36.878   2.366  16.250  0.00  0.00    +0.000 NA
BRANCH  18  19
ATOM     19  C   UNL     1      35.633   2.005  15.296  0.00  0.00    +0.000 C 
ATOM     20  C   UNL     1      34.667   1.639  16.575  0.00  0.00    +0.000 C 
ATOM     21  C   UNL     1      35.417   0.802  17.524  0.00  0.00    +0.000 C 
ATOM     22  C   UNL     1      35.383  -0.593  16.937  0.00  0.00    +0.000 C 
ATOM     23  C   UNL     1      36.071  -0.517  15.654  0.00  0.00    +0.000 A 
ATOM     24  C   UNL     1      36.619  -1.694  15.192  0.00  0.00    +0.000 A 
ATOM     25  C   UNL     1      37.297  -1.758  13.982  0.00  0.00    +0.000 A 
ATOM     26  C   UNL     1      37.419  -0.610  13.230  0.00  0.00    +0.000 A 
ATOM     27  C   UNL     1      36.852   0.573  13.723  0.00  0.00    +0.000 A 
ATOM     28  C   UNL     1      36.191   0.576  14.929  0.00  0.00    +0.000 A 
ENDBRANCH  18  19
ENDBRANCH  17  18
ENDBRANCH  15  17
ENDBRANCH  10  14
BRANCH   1  30
ATOM     29  C   UNL     1      43.632   6.235  22.127  0.00  0.00    +0.000 C 
ATOM     30  C   UNL     1      43.102   7.425  21.361  0.00  0.00    +0.000 C 
ENDBRANCH   1  30
TORSDOF 5
ENDMDL
MODEL 8
REMARK VINA RESULT:      -8.0      2.353      9.814
REMARK  Name = 
REMARK  5 active torsions:
REMARK  status: ('A' for Active; 'I' for Inactive)
REMARK    1  A    between atoms: C_2  and  N_3
REMARK    2  A    between atoms: C_12  and  N_13
REMARK    3  A    between atoms: C_14  and  C_16
REMARK    4  A    between atoms: C_16  and  N_17
REMARK    5  A    between atoms: N_17  and  C_18
REMARK                            x       y       z     vdW  Elec       q    Type
REMARK                         _______ _______ _______ _____ _____    ______ ____
ROOT
ATOM      1  N   UNL     1      41.241   8.298  18.676  0.00  0.00    +0.000 N 
ATOM      2  C   UNL     1      40.406   8.961  19.506  0.00  0.00    +0.000 A 
ATOM      3  C   UNL     1      40.582   9.976  20.432  0.00  0.00    +0.000 A 
ATOM      4  C   UNL     1      39.506  10.476  21.163  0.00  0.00    +0.000 A 
ATOM      5  C   UNL     1      38.265   9.940  20.947  0.00  0.00    +0.000 A 
ATOM      6  C   UNL     1      38.060   8.921  20.025  0.00  0.00    +0.000 A 
ATOM      7  C   UNL     1      39.146   8.440  19.309  0.00  0.00    +0.000 A 
ATOM      8  C   UNL     1      39.256   7.454  18.342  0.00  0.00    +0.000 A 
ATOM      9  C   UNL     1      38.375   6.594  17.732  0.00  0.00    +0.000 A 
ATOM     10  C   UNL     1      38.722   5.666  16.766  0.00  0.00    +0.000 A 
ATOM     11  C   UNL     1      40.058   5.620  16.405  0.00  0.00    +0.000 A 
ATOM     12  C   UNL     1      40.977   6.465  16.992  0.00  0.00    +0.000 A 
ATOM     13  C   UNL     1      40.577   7.375  17.954  0.00  0.00    +0.000 A 
ENDROOT
BRANCH  10  14
ATOM     14  N   UNL     1      37.755   4.797  16.176  0.00  0.00    +0.000 NA
ATOM     15  C   UNL     1      37.329   3.673  16.929  0.00  0.00    +0.000 C 
ATOM     16  O   UNL     1      37.830   3.510  18.066  0.00  0.00    +0.000 OA
BRANCH  15  17
ATOM     17  C   UNL     1      36.305   2.710  16.375  0.00  0.00    +0.000 C 
BRANCH  17  18
ATOM     18  N   UNL     1      36.375   1.450  17.088  0.00  0.00    +0.000 NA
BRANCH  18  19
ATOM     19  C   UNL     1      35.811   0.383  16.022  0.00  0.00    +0.000 C 
ATOM     20  C   UNL     1      34.816  -0.309  17.134  0.00  0.00    +0.000 C 
ATOM     21  C   UNL     1      35.559  -0.512  18.387  0.00  0.00    +0.000 C 
ATOM     22  C   UNL     1      36.385  -1.761  18.163  0.00  0.00    +0.000 C 
ATOM     23  C   UNL     1      37.293  -1.462  17.063  0.00  0.00    +0.000 A 
ATOM     24  C   UNL     1      38.454  -2.203  17.019  0.00  0.00    +0.000 A 
ATOM     25  C   UNL     1      39.401  -2.019  16.021  0.00  0.00    +0.000 A 
ATOM     26  C   UNL     1      39.165  -1.068  15.051  0.00  0.00    +0.000 A 
ATOM     27  C   UNL     1      37.976  -0.328  15.119  0.00  0.00    +0.000 A 
ATOM     28  C   UNL     1      37.075  -0.555  16.132  0.00  0.00    +0.000 A 
ENDBRANCH  18  19
ENDBRANCH  17  18
ENDBRANCH  15  17
ENDBRANCH  10  14
BRANCH   1  30
ATOM     29  C   UNL     1      43.436   7.621  19.493  0.00  0.00    +0.000 C 
ATOM     30  C   UNL     1      42.664   8.514  18.548  0.00  0.00    +0.000 C 
ENDBRANCH   1  30
TORSDOF 5
ENDMDL
MODEL 9
REMARK VINA RESULT:      -8.0      1.989      9.281
REMARK  Name = 
REMARK  5 active torsions:
REMARK  status: ('A' for Active; 'I' for Inactive)
REMARK    1  A    between atoms: C_2  and  N_3
REMARK    2  A    between atoms: C_12  and  N_13
REMARK    3  A    between atoms: C_14  and  C_16
REMARK    4  A    between atoms: C_16  and  N_17
REMARK    5  A    between atoms: N_17  and  C_18
REMARK                            x       y       z     vdW  Elec       q    Type
REMARK                         _______ _______ _______ _____ _____    ______ ____
ROOT
ATOM      1  N   UNL     1      38.848   7.566  16.361  0.00  0.00    +0.000 N 
ATOM      2  C   UNL     1      39.366   7.628  17.606  0.00  0.00    +0.000 A 
ATOM      3  C   UNL     1      39.978   8.630  18.342  0.00  0.00    +0.000 A 
ATOM      4  C   UNL     1      40.423   8.396  19.642  0.00  0.00    +0.000 A 
ATOM      5  C   UNL     1      40.243   7.152  20.180  0.00  0.00    +0.000 A 
ATOM      6  C   UNL     1      39.633   6.128  19.466  0.00  0.00    +0.000 A 
ATOM      7  C   UNL     1      39.198   6.383  18.174  0.00  0.00    +0.000 A 
ATOM      8  C   UNL     1      38.568   5.585  17.233  0.00  0.00    +0.000 A 
ATOM      9  C   UNL     1      38.141   4.279  17.201  0.00  0.00    +0.000 A 
ATOM     10  C   UNL     1      37.520   3.681  16.119  0.00  0.00    +0.000 A 
ATOM     11  C   UNL     1      37.324   4.474  15.001  0.00  0.00    +0.000 A 
ATOM     12  C   UNL     1      37.737   5.791  14.990  0.00  0.00    +0.000 A 
ATOM     13  C   UNL     1      38.355   6.341  16.099  0.00  0.00    +0.000 A 
ENDROOT
BRANCH  10  14
ATOM     14  N   UNL     1      37.106   2.315  16.151  0.00  0.00    +0.000 NA
ATOM     15  C   UNL     1      35.714   2.044  16.149  0.00  0.00    +0.000 C 
ATOM     16  O   UNL     1      34.932   3.023  16.122  0.00  0.00    +0.000 OA
BRANCH  15  17
ATOM     17  C   UNL     1      35.198   0.625  16.178  0.00  0.00    +0.000 C 
BRANCH  17  18
ATOM     18  N   UNL     1      36.180  -0.245  16.794  0.00  0.00    +0.000 NA
BRANCH  18  19
ATOM     19  C   UNL     1      35.285  -1.387  17.491  0.00  0.00    +0.000 C 
ATOM     20  C   UNL     1      35.544  -0.774  18.995  0.00  0.00    +0.000 C 
ATOM     21  C   UNL     1      36.971  -0.453  19.147  0.00  0.00    +0.000 C 
ATOM     22  C   UNL     1      37.648  -1.776  19.433  0.00  0.00    +0.000 C 
ATOM     23  C   UNL     1      37.426  -2.614  18.262  0.00  0.00    +0.000 A 
ATOM     24  C   UNL     1      38.345  -3.620  18.056  0.00  0.00    +0.000 A 
ATOM     25  C   UNL     1      38.246  -4.490  16.979  0.00  0.00    +0.000 A 
ATOM     26  C   UNL     1      37.197  -4.339  16.099  0.00  0.00    +0.000 A 
ATOM     27  C   UNL     1      36.276  -3.308  16.332  0.00  0.00    +0.000 A 
ATOM     28  C   UNL     1      36.426  -2.475  17.417  0.00  0.00    +0.000 A 
ENDBRANCH  18  19
ENDBRANCH  17  18
ENDBRANCH  15  17
ENDBRANCH  10  14
BRANCH   1  30
ATOM     29  C   UNL     1      40.073   8.679  14.571  0.00  0.00    +0.000 C 
ATOM     30  C   UNL     1      38.810   8.645  15.400  0.00  0.00    +0.000 C 
ENDBRANCH   1  30
TORSDOF 5
ENDMDL
MODEL 10
REMARK VINA RESULT:      -7.8      2.253      3.059
REMARK  Name = 
REMARK  5 active torsions:
REMARK  status: ('A' for Active; 'I' for Inactive)
REMARK    1  A    between atoms: C_2  and  N_3
REMARK    2  A    between atoms: C_12  and  N_13
REMARK    3  A    between atoms: C_14  and  C_16
REMARK    4  A    between atoms: C_16  and  N_17
REMARK    5  A    between atoms: N_17  and  C_18
REMARK                            x       y       z     vdW  Elec       q    Type
REMARK                         _______ _______ _______ _____ _____    ______ ____
ROOT
ATOM      1  N   UNL     1      37.429  -1.632  15.521  0.00  0.00    +0.000 N 
ATOM      2  C   UNL     1      38.710  -1.895  15.184  0.00  0.00    +0.000 A 
ATOM      3  C   UNL     1      39.450  -3.060  15.064  0.00  0.00    +0.000 A 
ATOM      4  C   UNL     1      40.791  -3.023  14.687  0.00  0.00    +0.000 A 
ATOM      5  C   UNL     1      41.365  -1.807  14.435  0.00  0.00    +0.000 A 
ATOM      6  C   UNL     1      40.647  -0.623  14.547  0.00  0.00    +0.000 A 
ATOM      7  C   UNL     1      39.314  -0.684  14.924  0.00  0.00    +0.000 A 
ATOM      8  C   UNL     1      38.359   0.301  15.116  0.00  0.00    +0.000 A 
ATOM      9  C   UNL     1      38.348   1.672  15.017  0.00  0.00    +0.000 A 
ATOM     10  C   UNL     1      37.245   2.470  15.265  0.00  0.00    +0.000 A 
ATOM     11  C   UNL     1      36.081   1.818  15.638  0.00  0.00    +0.000 A 
ATOM     12  C   UNL     1      36.048   0.443  15.750  0.00  0.00    +0.000 A 
ATOM     13  C   UNL     1      37.180  -0.308  15.491  0.00  0.00    +0.000 A 
ENDROOT
BRANCH  10  14
ATOM     14  N   UNL     1      37.305   3.891  15.148  0.00  0.00    +0.000 NA
ATOM     15  C   UNL     1      37.880   4.620  16.221  0.00  0.00    +0.000 C 
ATOM     16  O   UNL     1      38.298   3.970  17.207  0.00  0.00    +0.000 OA
BRANCH  15  17
ATOM     17  C   UNL     1      37.983   6.127  16.169  0.00  0.00    +0.000 C 
BRANCH  17  18
ATOM     18  N   UNL     1      38.179   6.654  17.505  0.00  0.00    +0.000 NA
BRANCH  18  19
ATOM     19  C   UNL     1      39.413   7.673  17.329  0.00  0.00    +0.000 C 
ATOM     20  C   UNL     1      40.467   6.633  18.043  0.00  0.00    +0.000 C 
ATOM     21  C   UNL     1      39.851   6.080  19.259  0.00  0.00    +0.000 C 
ATOM     22  C   UNL     1      40.007   7.158  20.310  0.00  0.00    +0.000 C 
ATOM     23  C   UNL     1      39.260   8.313  19.829  0.00  0.00    +0.000 A 
ATOM     24  C   UNL     1      38.819   9.193  20.793  0.00  0.00    +0.000 A 
ATOM     25  C   UNL     1      38.100  10.334  20.467  0.00  0.00    +0.000 A 
ATOM     26  C   UNL     1      37.824  10.588  19.141  0.00  0.00    +0.000 A 
ATOM     27  C   UNL     1      38.285   9.677  18.179  0.00  0.00    +0.000 A 
ATOM     28  C   UNL     1      38.993   8.562  18.563  0.00  0.00    +0.000 A 
ENDBRANCH  18  19
ENDBRANCH  17  18
ENDBRANCH  15  17
ENDBRANCH  10  14
BRANCH   1  30
ATOM     29  C   UNL     1      35.878  -3.298  14.649  0.00  0.00    +0.000 C 
ATOM     30  C   UNL     1      36.424  -2.608  15.877  0.00  0.00    +0.000 C 
ENDBRANCH   1  30
TORSDOF 5
ENDMDL
