MODEL 1
REMARK VINA RESULT:      -7.8      0.000      0.000
REMARK  Name = 
REMARK  0 active torsions:
REMARK  status: ('A' for Active; 'I' for Inactive)
REMARK                            x       y       z     vdW  Elec       q    Type
REMARK                         _______ _______ _______ _____ _____    ______ ____
ROOT
ATOM      1  C   UNL     1      27.600  25.292  28.467  0.00  0.00    +0.000 C 
ATOM      2  C   UNL     1      26.690  24.118  28.588  0.00  0.00    +0.000 C 
ATOM      3  C   UNL     1      25.573  24.018  27.707  0.00  0.00    +0.000 C 
ATOM      4  C   UNL     1      26.215  24.133  26.310  0.00  0.00    +0.000 C 
ATOM      5  C   UNL     1      27.055  22.771  26.128  0.00  0.00    +0.000 C 
ATOM      6  C   UNL     1      27.806  23.195  24.831  0.00  0.00    +0.000 A 
ATOM      7  C   UNL     1      27.049  23.730  23.843  0.00  0.00    +0.000 A 
ATOM      8  C   UNL     1      27.670  24.117  22.650  0.00  0.00    +0.000 A 
ATOM      9  C   UNL     1      29.030  23.953  22.496  0.00  0.00    +0.000 A 
ATOM     10  N   UNL     1      29.601  24.363  21.270  0.00  0.00    +0.000 NA
ATOM     11  C   UNL     1      29.742  23.411  23.520  0.00  0.00    +0.000 A 
ATOM     12  C   UNL     1      29.128  23.021  24.713  0.00  0.00    +0.000 A 
ATOM     13  C   UNL     1      30.040  22.437  25.738  0.00  0.00    +0.000 C 
ATOM     14  C   UNL     1      29.146  21.954  26.894  0.00  0.00    +0.000 C 
ATOM     15  C   UNL     1      28.331  23.306  27.116  0.00  0.00    +0.000 C 
ATOM     16  C   UNL     1      27.566  22.766  28.497  0.00  0.00    +0.000 C 
ATOM     17  C   UNL     1      28.617  23.406  29.522  0.00  0.00    +0.000 C 
ATOM     18  C   UNL     1      27.840  23.900  30.638  0.00  0.00    +0.000 C 
ATOM     19  C   UNL     1      26.294  24.057  30.148  0.00  0.00    +0.000 C 
ATOM     20  O   UNL     1      26.004  22.579  30.208  0.00  0.00    +0.000 OA
ENDROOT
TORSDOF 0
ENDMDL
MODEL 2
REMARK VINA RESULT:      -7.5      3.312      6.140
REMARK  Name = 
REMARK  0 active torsions:
REMARK  status: ('A' for Active; 'I' for Inactive)
REMARK                            x       y       z     vdW  Elec       q    Type
REMARK                         _______ _______ _______ _____ _____    ______ ____
ROOT
ATOM      1  C   UNL     1      29.513  25.691  24.420  0.00  0.00    +0.000 C 
ATOM      2  C   UNL     1      29.317  24.465  23.596  0.00  0.00    +0.000 C 
ATOM      3  C   UNL     1      29.836  23.225  24.073  0.00  0.00    +0.000 C 
ATOM      4  C   UNL     1      29.218  23.102  25.480  0.00  0.00    +0.000 C 
ATOM      5  C   UNL     1      27.647  22.864  25.222  0.00  0.00    +0.000 C 
ATOM      6  C   UNL     1      27.193  23.033  26.702  0.00  0.00    +0.000 A 
ATOM      7  C   UNL     1      27.899  22.344  27.632  0.00  0.00    +0.000 A 
ATOM      8  C   UNL     1      27.527  22.450  28.977  0.00  0.00    +0.000 A 
ATOM      9  C   UNL     1      26.461  23.245  29.337  0.00  0.00    +0.000 A 
ATOM     10  N   UNL     1      26.133  23.313  30.710  0.00  0.00    +0.000 NA
ATOM     11  C   UNL     1      25.787  23.914  28.363  0.00  0.00    +0.000 A 
ATOM     12  C   UNL     1      26.152  23.813  27.018  0.00  0.00    +0.000 A 
ATOM     13  C   UNL     1      25.314  24.600  26.069  0.00  0.00    +0.000 C 
ATOM     14  C   UNL     1      25.795  24.233  24.655  0.00  0.00    +0.000 C 
ATOM     15  C   UNL     1      27.350  24.503  24.879  0.00  0.00    +0.000 C 
ATOM     16  C   UNL     1      27.746  24.298  23.271  0.00  0.00    +0.000 C 
ATOM     17  C   UNL     1      27.684  25.853  22.892  0.00  0.00    +0.000 C 
ATOM     18  C   UNL     1      28.773  26.086  21.969  0.00  0.00    +0.000 C 
ATOM     19  C   UNL     1      29.838  24.863  22.125  0.00  0.00    +0.000 C 
ATOM     20  O   UNL     1      28.996  23.878  21.357  0.00  0.00    +0.000 OA
ENDROOT
TORSDOF 0
ENDMDL
MODEL 3
REMARK VINA RESULT:      -7.2      1.545      2.048
REMARK  Name = 
REMARK  0 active torsions:
REMARK  status: ('A' for Active; 'I' for Inactive)
REMARK                            x       y       z     vdW  Elec       q    Type
REMARK                         _______ _______ _______ _____ _____    ______ ____
ROOT
ATOM      1  C   UNL     1      28.863  25.102  29.015  0.00  0.00    +0.000 C 
ATOM      2  C   UNL     1      28.554  23.755  29.574  0.00  0.00    +0.000 C 
ATOM      3  C   UNL     1      27.227  23.246  29.450  0.00  0.00    +0.000 C 
ATOM      4  C   UNL     1      26.954  23.339  27.936  0.00  0.00    +0.000 C 
ATOM      5  C   UNL     1      27.924  22.238  27.273  0.00  0.00    +0.000 C 
ATOM      6  C   UNL     1      27.700  22.667  25.793  0.00  0.00    +0.000 A 
ATOM      7  C   UNL     1      26.414  22.845  25.404  0.00  0.00    +0.000 A 
ATOM      8  C   UNL     1      26.154  23.220  24.081  0.00  0.00    +0.000 A 
ATOM      9  C   UNL     1      27.196  23.404  23.199  0.00  0.00    +0.000 A 
ATOM     10  N   UNL     1      26.872  23.783  21.876  0.00  0.00    +0.000 NA
ATOM     11  C   UNL     1      28.468  23.212  23.642  0.00  0.00    +0.000 A 
ATOM     12  C   UNL     1      28.735  22.836  24.961  0.00  0.00    +0.000 A 
ATOM     13  C   UNL     1      30.177  22.658  25.293  0.00  0.00    +0.000 C 
ATOM     14  C   UNL     1      30.230  22.114  26.732  0.00  0.00    +0.000 C 
ATOM     15  C   UNL     1      29.305  23.219  27.414  0.00  0.00    +0.000 C 
ATOM     16  C   UNL     1      29.597  22.685  28.968  0.00  0.00    +0.000 C 
ATOM     17  C   UNL     1      30.789  23.712  29.268  0.00  0.00    +0.000 C 
ATOM     18  C   UNL     1      30.625  24.126  30.644  0.00  0.00    +0.000 C 
ATOM     19  C   UNL     1      29.093  23.801  31.092  0.00  0.00    +0.000 C 
ATOM     20  O   UNL     1      29.331  22.321  31.248  0.00  0.00    +0.000 OA
ENDROOT
TORSDOF 0
ENDMDL
MODEL 4
REMARK VINA RESULT:      -7.0      3.332      5.973
REMARK  Name = 
REMARK  0 active torsions:
REMARK  status: ('A' for Active; 'I' for Inactive)
REMARK                            x       y       z     vdW  Elec       q    Type
REMARK                         _______ _______ _______ _____ _____    ______ ____
ROOT
ATOM      1  C   UNL     1      29.294  25.544  24.609  0.00  0.00    +0.000 C 
ATOM      2  C   UNL     1      29.367  24.271  23.838  0.00  0.00    +0.000 C 
ATOM      3  C   UNL     1      30.586  23.531  23.844  0.00  0.00    +0.000 C 
ATOM      4  C   UNL     1      30.871  23.334  25.346  0.00  0.00    +0.000 C 
ATOM      5  C   UNL     1      29.726  22.322  25.854  0.00  0.00    +0.000 C 
ATOM      6  C   UNL     1      30.021  22.467  27.377  0.00  0.00    +0.000 A 
ATOM      7  C   UNL     1      31.318  22.359  27.753  0.00  0.00    +0.000 A 
ATOM      8  C   UNL     1      31.639  22.470  29.111  0.00  0.00    +0.000 A 
ATOM      9  C   UNL     1      30.643  22.685  30.040  0.00  0.00    +0.000 A 
ATOM     10  N   UNL     1      31.028  22.789  31.396  0.00  0.00    +0.000 NA
ATOM     11  C   UNL     1      29.358  22.785  29.606  0.00  0.00    +0.000 A 
ATOM     12  C   UNL     1      29.030  22.675  28.253  0.00  0.00    +0.000 A 
ATOM     13  C   UNL     1      27.579  22.799  27.936  0.00  0.00    +0.000 C 
ATOM     14  C   UNL     1      27.433  22.508  26.432  0.00  0.00    +0.000 C 
ATOM     15  C   UNL     1      28.534  23.534  25.907  0.00  0.00    +0.000 C 
ATOM     16  C   UNL     1      28.155  23.311  24.297  0.00  0.00    +0.000 C 
ATOM     17  C   UNL     1      27.157  24.560  24.194  0.00  0.00    +0.000 C 
ATOM     18  C   UNL     1      27.390  25.154  22.896  0.00  0.00    +0.000 C 
ATOM     19  C   UNL     1      28.844  24.649  22.361  0.00  0.00    +0.000 C 
ATOM     20  O   UNL     1      28.355  23.274  21.981  0.00  0.00    +0.000 OA
ENDROOT
TORSDOF 0
ENDMDL
MODEL 5
REMARK VINA RESULT:      -6.8     21.078     22.787
REMARK  Name = 
REMARK  0 active torsions:
REMARK  status: ('A' for Active; 'I' for Inactive)
REMARK                            x       y       z     vdW  Elec       q    Type
REMARK                         _______ _______ _______ _____ _____    ______ ____
ROOT
ATOM      1  C   UNL     1      37.618   5.483  36.520  0.00  0.00    +0.000 C 
ATOM      2  C   UNL     1      36.575   6.535  36.684  0.00  0.00    +0.000 C 
ATOM      3  C   UNL     1      35.895   7.015  35.526  0.00  0.00    +0.000 C 
ATOM      4  C   UNL     1      35.346   5.728  34.880  0.00  0.00    +0.000 C 
ATOM      5  C   UNL     1      34.205   5.212  35.891  0.00  0.00    +0.000 C 
ATOM      6  C   UNL     1      33.982   3.824  35.220  0.00  0.00    +0.000 A 
ATOM      7  C   UNL     1      33.827   3.824  33.873  0.00  0.00    +0.000 A 
ATOM      8  C   UNL     1      33.613   2.605  33.219  0.00  0.00    +0.000 A 
ATOM      9  C   UNL     1      33.563   1.433  33.942  0.00  0.00    +0.000 A 
ATOM     10  N   UNL     1      33.344   0.234  33.227  0.00  0.00    +0.000 NA
ATOM     11  C   UNL     1      33.725   1.492  35.292  0.00  0.00    +0.000 A 
ATOM     12  C   UNL     1      33.938   2.704  35.952  0.00  0.00    +0.000 A 
ATOM     13  C   UNL     1      34.090   2.606  37.432  0.00  0.00    +0.000 C 
ATOM     14  C   UNL     1      34.171   4.050  37.959  0.00  0.00    +0.000 C 
ATOM     15  C   UNL     1      35.328   4.568  36.993  0.00  0.00    +0.000 C 
ATOM     16  C   UNL     1      35.494   6.035  37.771  0.00  0.00    +0.000 C 
ATOM     17  C   UNL     1      36.698   5.576  38.723  0.00  0.00    +0.000 C 
ATOM     18  C   UNL     1      37.598   6.705  38.804  0.00  0.00    +0.000 C 
ATOM     19  C   UNL     1      37.284   7.694  37.548  0.00  0.00    +0.000 C 
ATOM     20  O   UNL     1      36.030   8.263  38.160  0.00  0.00    +0.000 OA
ENDROOT
TORSDOF 0
ENDMDL
MODEL 6
REMARK VINA RESULT:      -6.7      3.435      5.333
REMARK  Name = 
REMARK  0 active torsions:
REMARK  status: ('A' for Active; 'I' for Inactive)
REMARK                            x       y       z     vdW  Elec       q    Type
REMARK                         _______ _______ _______ _____ _____    ______ ____
ROOT
ATOM      1  C   UNL     1      28.095  25.615  24.761  0.00  0.00    +0.000 C 
ATOM      2  C   UNL     1      28.224  24.532  23.745  0.00  0.00    +0.000 C 
ATOM      3  C   UNL     1      29.298  24.591  22.808  0.00  0.00    +0.000 C 
ATOM      4  C   UNL     1      30.544  24.716  23.708  0.00  0.00    +0.000 C 
ATOM      5  C   UNL     1      30.666  23.289  24.444  0.00  0.00    +0.000 C 
ATOM      6  C   UNL     1      31.772  23.703  25.459  0.00  0.00    +0.000 A 
ATOM      7  C   UNL     1      32.841  24.363  24.950  0.00  0.00    +0.000 A 
ATOM      8  C   UNL     1      33.870  24.749  25.816  0.00  0.00    +0.000 A 
ATOM      9  C   UNL     1      33.786  24.459  27.161  0.00  0.00    +0.000 A 
ATOM     10  N   UNL     1      34.856  24.875  27.986  0.00  0.00    +0.000 NA
ATOM     11  C   UNL     1      32.690  23.795  27.617  0.00  0.00    +0.000 A 
ATOM     12  C   UNL     1      31.659  23.405  26.759  0.00  0.00    +0.000 A 
ATOM     13  C   UNL     1      30.530  22.680  27.408  0.00  0.00    +0.000 C 
ATOM     14  C   UNL     1      29.593  22.228  26.274  0.00  0.00    +0.000 C 
ATOM     15  C   UNL     1      29.427  23.641  25.555  0.00  0.00    +0.000 C 
ATOM     16  C   UNL     1      28.250  23.107  24.499  0.00  0.00    +0.000 C 
ATOM     17  C   UNL     1      27.008  23.583  25.392  0.00  0.00    +0.000 C 
ATOM     18  C   UNL     1      26.020  24.092  24.466  0.00  0.00    +0.000 C 
ATOM     19  C   UNL     1      26.770  24.428  23.060  0.00  0.00    +0.000 C 
ATOM     20  O   UNL     1      26.868  22.986  22.634  0.00  0.00    +0.000 OA
ENDROOT
TORSDOF 0
ENDMDL
MODEL 7
REMARK VINA RESULT:      -6.6     20.710     22.056
REMARK  Name = 
REMARK  0 active torsions:
REMARK  status: ('A' for Active; 'I' for Inactive)
REMARK                            x       y       z     vdW  Elec       q    Type
REMARK                         _______ _______ _______ _____ _____    ______ ____
ROOT
ATOM      1  C   UNL     1      26.438   6.330  14.869  0.00  0.00    +0.000 C 
ATOM      2  C   UNL     1      27.282   6.634  16.059  0.00  0.00    +0.000 C 
ATOM      3  C   UNL     1      26.644   7.008  17.279  0.00  0.00    +0.000 C 
ATOM      4  C   UNL     1      25.656   5.851  17.529  0.00  0.00    +0.000 C 
ATOM      5  C   UNL     1      26.584   4.583  17.876  0.00  0.00    +0.000 C 
ATOM      6  C   UNL     1      25.453   3.513  17.828  0.00  0.00    +0.000 A 
ATOM      7  C   UNL     1      24.318   3.803  18.509  0.00  0.00    +0.000 A 
ATOM      8  C   UNL     1      23.274   2.872  18.509  0.00  0.00    +0.000 A 
ATOM      9  C   UNL     1      23.408   1.684  17.823  0.00  0.00    +0.000 A 
ATOM     10  N   UNL     1      22.320   0.784  17.858  0.00  0.00    +0.000 NA
ATOM     11  C   UNL     1      24.569   1.445  17.156  0.00  0.00    +0.000 A 
ATOM     12  C   UNL     1      25.617   2.369  17.152  0.00  0.00    +0.000 A 
ATOM     13  C   UNL     1      26.826   1.959  16.383  0.00  0.00    +0.000 C 
ATOM     14  C   UNL     1      27.889   3.044  16.630  0.00  0.00    +0.000 C 
ATOM     15  C   UNL     1      26.998   4.310  16.250  0.00  0.00    +0.000 C 
ATOM     16  C   UNL     1      28.269   5.388  16.332  0.00  0.00    +0.000 C 
ATOM     17  C   UNL     1      28.613   5.348  14.768  0.00  0.00    +0.000 C 
ATOM     18  C   UNL     1      28.958   6.703  14.398  0.00  0.00    +0.000 C 
ATOM     19  C   UNL     1      28.367   7.705  15.538  0.00  0.00    +0.000 C 
ATOM     20  O   UNL     1      29.442   7.383  16.544  0.00  0.00    +0.000 OA
ENDROOT
TORSDOF 0
ENDMDL
MODEL 8
REMARK VINA RESULT:      -6.4     32.293     33.383
REMARK  Name = 
REMARK  0 active torsions:
REMARK  status: ('A' for Active; 'I' for Inactive)
REMARK                            x       y       z     vdW  Elec       q    Type
REMARK                         _______ _______ _______ _____ _____    ______ ____
ROOT
ATOM      1  C   UNL     1      16.984  -9.589  24.540  0.00  0.00    +0.000 C 
ATOM      2  C   UNL     1      17.090 -10.023  25.962  0.00  0.00    +0.000 C 
ATOM      3  C   UNL     1      18.155 -10.893  26.339  0.00  0.00    +0.000 C 
ATOM      4  C   UNL     1      19.412 -10.146  25.848  0.00  0.00    +0.000 C 
ATOM      5  C   UNL     1      19.524  -8.856  26.805  0.00  0.00    +0.000 C 
ATOM      6  C   UNL     1      20.645  -8.133  26.001  0.00  0.00    +0.000 A 
ATOM      7  C   UNL     1      21.717  -8.885  25.650  0.00  0.00    +0.000 A 
ATOM      8  C   UNL     1      22.760  -8.283  24.936  0.00  0.00    +0.000 A 
ATOM      9  C   UNL     1      22.686  -6.949  24.601  0.00  0.00    +0.000 A 
ATOM     10  N   UNL     1      23.769  -6.396  23.880  0.00  0.00    +0.000 NA
ATOM     11  C   UNL     1      21.587  -6.241  24.979  0.00  0.00    +0.000 A 
ATOM     12  C   UNL     1      20.543  -6.834  25.692  0.00  0.00    +0.000 A 
ATOM     13  C   UNL     1      19.412  -5.928  26.040  0.00  0.00    +0.000 C 
ATOM     14  C   UNL     1      18.458  -6.741  26.933  0.00  0.00    +0.000 C 
ATOM     15  C   UNL     1      18.302  -8.010  25.981  0.00  0.00    +0.000 C 
ATOM     16  C   UNL     1      17.107  -8.716  26.908  0.00  0.00    +0.000 C 
ATOM     17  C   UNL     1      15.880  -8.121  26.068  0.00  0.00    +0.000 C 
ATOM     18  C   UNL     1      14.889  -9.172  26.006  0.00  0.00    +0.000 C 
ATOM     19  C   UNL     1      15.628 -10.585  26.337  0.00  0.00    +0.000 C 
ATOM     20  O   UNL     1      15.706 -10.330  27.820  0.00  0.00    +0.000 OA
ENDROOT
TORSDOF 0
ENDMDL
MODEL 9
REMARK VINA RESULT:      -6.3     21.247     22.407
REMARK  Name = 
REMARK  0 active torsions:
REMARK  status: ('A' for Active; 'I' for Inactive)
REMARK                            x       y       z     vdW  Elec       q    Type
REMARK                         _______ _______ _______ _____ _____    ______ ____
ROOT
ATOM      1  C   UNL     1      25.353   1.239  17.357  0.00  0.00    +0.000 C 
ATOM      2  C   UNL     1      24.056   1.907  17.662  0.00  0.00    +0.000 C 
ATOM      3  C   UNL     1      23.974   2.764  18.800  0.00  0.00    +0.000 C 
ATOM      4  C   UNL     1      25.122   3.767  18.570  0.00  0.00    +0.000 C 
ATOM      5  C   UNL     1      24.653   4.648  17.307  0.00  0.00    +0.000 C 
ATOM      6  C   UNL     1      26.009   5.380  17.084  0.00  0.00    +0.000 A 
ATOM      7  C   UNL     1      26.591   5.920  18.183  0.00  0.00    +0.000 A 
ATOM      8  C   UNL     1      27.806   6.599  18.039  0.00  0.00    +0.000 A 
ATOM      9  C   UNL     1      28.391   6.710  16.796  0.00  0.00    +0.000 A 
ATOM     10  N   UNL     1      29.618   7.407  16.713  0.00  0.00    +0.000 NA
ATOM     11  C   UNL     1      27.763   6.150  15.727  0.00  0.00    +0.000 A 
ATOM     12  C   UNL     1      26.550   5.471  15.863  0.00  0.00    +0.000 A 
ATOM     13  C   UNL     1      25.984   4.919  14.599  0.00  0.00    +0.000 C 
ATOM     14  C   UNL     1      24.600   4.348  14.955  0.00  0.00    +0.000 C 
ATOM     15  C   UNL     1      25.051   3.437  16.183  0.00  0.00    +0.000 C 
ATOM     16  C   UNL     1      23.559   2.708  16.352  0.00  0.00    +0.000 C 
ATOM     17  C   UNL     1      23.909   1.422  15.464  0.00  0.00    +0.000 C 
ATOM     18  C   UNL     1      23.281   0.296  16.121  0.00  0.00    +0.000 C 
ATOM     19  C   UNL     1      22.966   0.722  17.662  0.00  0.00    +0.000 C 
ATOM     20  O   UNL     1      21.771   1.569  17.305  0.00  0.00    +0.000 OA
ENDROOT
TORSDOF 0
ENDMDL
MODEL 10
REMARK VINA RESULT:      -6.3      2.793      3.866
REMARK  Name = 
REMARK  0 active torsions:
REMARK  status: ('A' for Active; 'I' for Inactive)
REMARK                            x       y       z     vdW  Elec       q    Type
REMARK                         _______ _______ _______ _____ _____    ______ ____
ROOT
ATOM      1  C   UNL     1      30.701  25.236  28.381  0.00  0.00    +0.000 C 
ATOM      2  C   UNL     1      31.053  23.850  28.801  0.00  0.00    +0.000 C 
ATOM      3  C   UNL     1      30.019  22.992  29.278  0.00  0.00    +0.000 C 
ATOM      4  C   UNL     1      28.980  23.023  28.140  0.00  0.00    +0.000 C 
ATOM      5  C   UNL     1      29.684  22.245  26.918  0.00  0.00    +0.000 C 
ATOM      6  C   UNL     1      28.625  22.614  25.836  0.00  0.00    +0.000 A 
ATOM      7  C   UNL     1      27.326  22.429  26.176  0.00  0.00    +0.000 A 
ATOM      8  C   UNL     1      26.333  22.733  25.238  0.00  0.00    +0.000 A 
ATOM      9  C   UNL     1      26.683  23.212  23.994  0.00  0.00    +0.000 A 
ATOM     10  N   UNL     1      25.636  23.502  23.089  0.00  0.00    +0.000 NA
ATOM     11  C   UNL     1      28.002  23.378  23.706  0.00  0.00    +0.000 A 
ATOM     12  C   UNL     1      28.999  23.076  24.637  0.00  0.00    +0.000 A 
ATOM     13  C   UNL     1      30.396  23.304  24.171  0.00  0.00    +0.000 C 
ATOM     14  C   UNL     1      31.319  22.779  25.285  0.00  0.00    +0.000 C 
ATOM     15  C   UNL     1      30.662  23.572  26.501  0.00  0.00    +0.000 C 
ATOM     16  C   UNL     1      31.839  23.122  27.595  0.00  0.00    +0.000 C 
ATOM     17  C   UNL     1      32.735  24.438  27.416  0.00  0.00    +0.000 C 
ATOM     18  C   UNL     1      33.225  24.773  28.735  0.00  0.00    +0.000 C 
ATOM     19  C   UNL     1      32.279  24.026  29.831  0.00  0.00    +0.000 C 
ATOM     20  O   UNL     1      32.899  22.669  29.613  0.00  0.00    +0.000 OA
ENDROOT
TORSDOF 0
ENDMDL
