MODEL 1
REMARK VINA RESULT:      -7.9      0.000      0.000
REMARK  Name = 
REMARK  6 active torsions:
REMARK  status: ('A' for Active; 'I' for Inactive)
REMARK    1  A    between atoms: C_2  and  C_10
REMARK    2  A    between atoms: N_3  and  C_4
REMARK    3  A    between atoms: N_16  and  C_17
REMARK    4  A    between atoms: C_20  and  O_21
REMARK    5  A    between atoms: O_21  and  C_22
REMARK    6  A    between atoms: C_22  and  C_23
REMARK                            x       y       z     vdW  Elec       q    Type
REMARK                         _______ _______ _______ _____ _____    ______ ____
ROOT
ATOM      1  C   UNL     1      36.595   3.203  15.345  0.00  0.00    +0.000 A 
ATOM      2  C   UNL     1      35.645   3.507  14.363  0.00  0.00    +0.000 A 
ATOM      3  C   UNL     1      35.533   4.802  13.921  0.00  0.00    +0.000 A 
ATOM      4  C   UNL     1      36.359   5.775  14.452  0.00  0.00    +0.000 A 
ATOM      5  N   UNL     1      37.269   5.441  15.403  0.00  0.00    +0.000 NA
ATOM      6  C   UNL     1      37.403   4.187  15.856  0.00  0.00    +0.000 A 
ATOM      7  N   UNL     1      38.390   3.912  16.830  0.00  0.00    +0.000 NA
ENDROOT
BRANCH   7   8
ATOM      8  C   UNL     1      39.218   4.958  17.377  0.00  0.00    +0.000 A 
ATOM      9  C   UNL     1      40.228   5.542  16.641  0.00  0.00    +0.000 A 
ATOM     10  C   UNL     1      41.028   6.534  17.192  0.00  0.00    +0.000 A 
ATOM     11  C   UNL     1      40.866   6.990  18.484  0.00  0.00    +0.000 A 
ATOM     12  C   UNL     1      39.837   6.390  19.220  0.00  0.00    +0.000 A 
ATOM     13  C   UNL     1      39.048   5.406  18.665  0.00  0.00    +0.000 A 
BRANCH  11  14
ATOM     14  O   UNL     1      41.629   7.970  19.086  0.00  0.00    +0.000 OA
BRANCH  14  15
ATOM     15  C   UNL     1      42.037   7.947  20.416  0.00  0.00    +0.000 C 
BRANCH  15  16
ATOM     16  C   UNL     1      43.249   7.108  20.566  0.00  0.00    +0.000 A 
ATOM     17  C   UNL     1      43.288   6.192  21.588  0.00  0.00    +0.000 A 
ATOM     18  C   UNL     1      44.382   5.407  21.752  0.00  0.00    +0.000 A 
ATOM     19  C   UNL     1      45.443   5.528  20.902  0.00  0.00    +0.000 A 
ATOM     20  C   UNL     1      45.426   6.437  19.876  0.00  0.00    +0.000 A 
ATOM     21  C   UNL     1      44.324   7.234  19.703  0.00  0.00    +0.000 A 
ENDBRANCH  15  16
ENDBRANCH  14  15
ENDBRANCH  11  14
ENDBRANCH   7   8
BRANCH   1  23
ATOM     22  O   UNL     1      36.215   1.549  16.947  0.00  0.00    +0.000 OA
ATOM     23  C   UNL     1      36.711   1.828  15.836  0.00  0.00    +0.000 C 
ATOM     24  N   UNL     1      37.363   0.806  15.102  0.00  0.00    +0.000 NA
BRANCH  24  25
ATOM     25  C   UNL     1      37.426  -0.520  15.664  0.00  0.00    +0.000 C 
ATOM     26  C   UNL     1      38.823  -1.034  15.451  0.00  0.00    +0.000 C 
ATOM     27  C   UNL     1      39.062  -2.393  16.061  0.00  0.00    +0.000 C 
ATOM     28  C   UNL     1      37.893  -3.322  15.791  0.00  0.00    +0.000 C 
ATOM     29  C   UNL     1      36.962  -2.758  14.738  0.00  0.00    +0.000 C 
ATOM     30  C   UNL     1      36.349  -1.442  15.197  0.00  0.00    +0.000 C 
ENDBRANCH  24  25
ENDBRANCH   1  23
TORSDOF 6
ENDMDL
MODEL 2
REMARK VINA RESULT:      -7.7     25.117     27.752
REMARK  Name = 
REMARK  6 active torsions:
REMARK  status: ('A' for Active; 'I' for Inactive)
REMARK    1  A    between atoms: C_2  and  C_10
REMARK    2  A    between atoms: N_3  and  C_4
REMARK    3  A    between atoms: N_16  and  C_17
REMARK    4  A    between atoms: C_20  and  O_21
REMARK    5  A    between atoms: O_21  and  C_22
REMARK    6  A    between atoms: C_22  and  C_23
REMARK                            x       y       z     vdW  Elec       q    Type
REMARK                         _______ _______ _______ _____ _____    ______ ____
ROOT
ATOM      1  C   UNL     1      25.263  17.031  33.821  0.00  0.00    +0.000 A 
ATOM      2  C   UNL     1      25.071  16.448  32.563  0.00  0.00    +0.000 A 
ATOM      3  C   UNL     1      25.134  15.081  32.444  0.00  0.00    +0.000 A 
ATOM      4  C   UNL     1      25.382  14.313  33.566  0.00  0.00    +0.000 A 
ATOM      5  N   UNL     1      25.563  14.915  34.769  0.00  0.00    +0.000 NA
ATOM      6  C   UNL     1      25.509  16.246  34.918  0.00  0.00    +0.000 A 
ATOM      7  N   UNL     1      25.683  16.798  36.208  0.00  0.00    +0.000 NA
ENDROOT
BRANCH   7   8
ATOM      8  C   UNL     1      25.964  15.965  37.351  0.00  0.00    +0.000 A 
ATOM      9  C   UNL     1      24.961  15.299  38.026  0.00  0.00    +0.000 A 
ATOM     10  C   UNL     1      25.250  14.517  39.137  0.00  0.00    +0.000 A 
ATOM     11  C   UNL     1      26.530  14.360  39.625  0.00  0.00    +0.000 A 
ATOM     12  C   UNL     1      27.538  15.040  38.931  0.00  0.00    +0.000 A 
ATOM     13  C   UNL     1      27.243  15.814  37.830  0.00  0.00    +0.000 A 
BRANCH  11  14
ATOM     14  O   UNL     1      26.877  13.599  40.723  0.00  0.00    +0.000 OA
BRANCH  14  15
ATOM     15  C   UNL     1      26.494  12.276  40.921  0.00  0.00    +0.000 C 
BRANCH  15  16
ATOM     16  C   UNL     1      27.673  11.383  40.842  0.00  0.00    +0.000 A 
ATOM     17  C   UNL     1      28.917  11.951  40.716  0.00  0.00    +0.000 A 
ATOM     18  C   UNL     1      30.017  11.162  40.644  0.00  0.00    +0.000 A 
ATOM     19  C   UNL     1      29.889   9.804  40.696  0.00  0.00    +0.000 A 
ATOM     20  C   UNL     1      28.657   9.216  40.822  0.00  0.00    +0.000 A 
ATOM     21  C   UNL     1      27.539  10.006  40.895  0.00  0.00    +0.000 A 
ENDBRANCH  15  16
ENDBRANCH  14  15
ENDBRANCH  11  14
ENDBRANCH   7   8
BRANCH   1  23
ATOM     22  O   UNL     1      26.282  19.130  33.856  0.00  0.00    +0.000 OA
ATOM     23  C   UNL     1      25.215  18.489  33.956  0.00  0.00    +0.000 C 
ATOM     24  N   UNL     1      24.011  19.196  34.194  0.00  0.00    +0.000 NA
BRANCH  24  25
ATOM     25  C   UNL     1      24.060  20.631  34.311  0.00  0.00    +0.000 C 
ATOM     26  C   UNL     1      23.423  21.001  35.621  0.00  0.00    +0.000 C 
ATOM     27  C   UNL     1      23.472  22.479  35.918  0.00  0.00    +0.000 C 
ATOM     28  C   UNL     1      23.125  23.291  34.683  0.00  0.00    +0.000 C 
ATOM     29  C   UNL     1      22.527  22.426  33.594  0.00  0.00    +0.000 C 
ATOM     30  C   UNL     1      23.518  21.367  33.130  0.00  0.00    +0.000 C 
ENDBRANCH  24  25
ENDBRANCH   1  23
TORSDOF 6
ENDMDL
MODEL 3
REMARK VINA RESULT:      -7.4      2.231      3.517
REMARK  Name = 
REMARK  6 active torsions:
REMARK  status: ('A' for Active; 'I' for Inactive)
REMARK    1  A    between atoms: C_2  and  C_10
REMARK    2  A    between atoms: N_3  and  C_4
REMARK    3  A    between atoms: N_16  and  C_17
REMARK    4  A    between atoms: C_20  and  O_21
REMARK    5  A    between atoms: O_21  and  C_22
REMARK    6  A    between atoms: C_22  and  C_23
REMARK                            x       y       z     vdW  Elec       q    Type
REMARK                         _______ _______ _______ _____ _____    ______ ____
ROOT
ATOM      1  C   UNL     1      37.023   0.874  15.426  0.00  0.00    +0.000 A 
ATOM      2  C   UNL     1      35.872   0.112  15.662  0.00  0.00    +0.000 A 
ATOM      3  C   UNL     1      34.881   0.630  16.459  0.00  0.00    +0.000 A 
ATOM      4  C   UNL     1      35.039   1.888  17.009  0.00  0.00    +0.000 A 
ATOM      5  N   UNL     1      36.170   2.596  16.757  0.00  0.00    +0.000 NA
ATOM      6  C   UNL     1      37.155   2.119  15.984  0.00  0.00    +0.000 A 
ATOM      7  N   UNL     1      38.291   2.927  15.748  0.00  0.00    +0.000 NA
ENDROOT
BRANCH   7   8
ATOM      8  C   UNL     1      38.431   4.226  16.359  0.00  0.00    +0.000 A 
ATOM      9  C   UNL     1      38.524   4.376  17.727  0.00  0.00    +0.000 A 
ATOM     10  C   UNL     1      38.638   5.637  18.298  0.00  0.00    +0.000 A 
ATOM     11  C   UNL     1      38.666   6.794  17.548  0.00  0.00    +0.000 A 
ATOM     12  C   UNL     1      38.572   6.628  16.161  0.00  0.00    +0.000 A 
ATOM     13  C   UNL     1      38.459   5.373  15.603  0.00  0.00    +0.000 A 
BRANCH  11  14
ATOM     14  O   UNL     1      38.776   8.072  18.057  0.00  0.00    +0.000 OA
BRANCH  14  15
ATOM     15  C   UNL     1      39.945   8.828  18.050  0.00  0.00    +0.000 C 
BRANCH  15  16
ATOM     16  C   UNL     1      41.057   8.058  18.655  0.00  0.00    +0.000 A 
ATOM     17  C   UNL     1      42.049   7.584  17.833  0.00  0.00    +0.000 A 
ATOM     18  C   UNL     1      43.082   6.877  18.355  0.00  0.00    +0.000 A 
ATOM     19  C   UNL     1      43.136   6.638  19.698  0.00  0.00    +0.000 A 
ATOM     20  C   UNL     1      42.156   7.102  20.538  0.00  0.00    +0.000 A 
ATOM     21  C   UNL     1      41.108   7.817  20.018  0.00  0.00    +0.000 A 
ENDBRANCH  15  16
ENDBRANCH  14  15
ENDBRANCH  11  14
ENDBRANCH   7   8
BRANCH   1  23
ATOM     22  O   UNL     1      37.971   0.390  13.349  0.00  0.00    +0.000 OA
ATOM     23  C   UNL     1      38.093   0.325  14.590  0.00  0.00    +0.000 C 
ATOM     24  N   UNL     1      39.256  -0.276  15.133  0.00  0.00    +0.000 NA
BRANCH  24  25
ATOM     25  C   UNL     1      40.257  -0.788  14.232  0.00  0.00    +0.000 C 
ATOM     26  C   UNL     1      40.539  -2.210  14.631  0.00  0.00    +0.000 C 
ATOM     27  C   UNL     1      41.521  -2.906  13.722  0.00  0.00    +0.000 C 
ATOM     28  C   UNL     1      42.689  -1.997  13.387  0.00  0.00    +0.000 C 
ATOM     29  C   UNL     1      42.723  -0.777  14.285  0.00  0.00    +0.000 C 
ATOM     30  C   UNL     1      41.472   0.071  14.104  0.00  0.00    +0.000 C 
ENDBRANCH  24  25
ENDBRANCH   1  23
TORSDOF 6
ENDMDL
MODEL 4
REMARK VINA RESULT:      -7.4      1.995      3.361
REMARK  Name = 
REMARK  6 active torsions:
REMARK  status: ('A' for Active; 'I' for Inactive)
REMARK    1  A    between atoms: C_2  and  C_10
REMARK    2  A    between atoms: N_3  and  C_4
REMARK    3  A    between atoms: N_16  and  C_17
REMARK    4  A    between atoms: C_20  and  O_21
REMARK    5  A    between atoms: O_21  and  C_22
REMARK    6  A    between atoms: C_22  and  C_23
REMARK                            x       y       z     vdW  Elec       q    Type
REMARK                         _______ _______ _______ _____ _____    ______ ____
ROOT
ATOM      1  C   UNL     1      36.997   3.575  15.171  0.00  0.00    +0.000 A 
ATOM      2  C   UNL     1      36.066   3.959  14.198  0.00  0.00    +0.000 A 
ATOM      3  C   UNL     1      35.904   5.295  13.921  0.00  0.00    +0.000 A 
ATOM      4  C   UNL     1      36.661   6.227  14.605  0.00  0.00    +0.000 A 
ATOM      5  N   UNL     1      37.554   5.815  15.541  0.00  0.00    +0.000 NA
ATOM      6  C   UNL     1      37.736   4.520  15.834  0.00  0.00    +0.000 A 
ATOM      7  N   UNL     1      38.702   4.168  16.804  0.00  0.00    +0.000 NA
ENDROOT
BRANCH   7   8
ATOM      8  C   UNL     1      39.457   5.171  17.513  0.00  0.00    +0.000 A 
ATOM      9  C   UNL     1      40.498   5.851  16.915  0.00  0.00    +0.000 A 
ATOM     10  C   UNL     1      41.226   6.800  17.621  0.00  0.00    +0.000 A 
ATOM     11  C   UNL     1      40.960   7.115  18.937  0.00  0.00    +0.000 A 
ATOM     12  C   UNL     1      39.901   6.418  19.532  0.00  0.00    +0.000 A 
ATOM     13  C   UNL     1      39.184   5.479  18.824  0.00  0.00    +0.000 A 
BRANCH  11  14
ATOM     14  O   UNL     1      41.648   8.046  19.689  0.00  0.00    +0.000 OA
BRANCH  14  15
ATOM     15  C   UNL     1      41.714   9.405  19.398  0.00  0.00    +0.000 C 
BRANCH  15  16
ATOM     16  C   UNL     1      40.378  10.027  19.552  0.00  0.00    +0.000 A 
ATOM     17  C   UNL     1      39.741  10.498  18.430  0.00  0.00    +0.000 A 
ATOM     18  C   UNL     1      38.517  11.071  18.537  0.00  0.00    +0.000 A 
ATOM     19  C   UNL     1      37.918  11.181  19.759  0.00  0.00    +0.000 A 
ATOM     20  C   UNL     1      38.536  10.719  20.892  0.00  0.00    +0.000 A 
ATOM     21  C   UNL     1      39.774  10.137  20.793  0.00  0.00    +0.000 A 
ENDBRANCH  15  16
ENDBRANCH  14  15
ENDBRANCH  11  14
ENDBRANCH   7   8
BRANCH   1  23
ATOM     22  O   UNL     1      36.683   1.720  16.552  0.00  0.00    +0.000 OA
ATOM     23  C   UNL     1      37.166   2.154  15.486  0.00  0.00    +0.000 C 
ATOM     24  N   UNL     1      37.854   1.258  14.631  0.00  0.00    +0.000 NA
BRANCH  24  25
ATOM     25  C   UNL     1      37.969  -0.124  15.024  0.00  0.00    +0.000 C 
ATOM     26  C   UNL     1      39.423  -0.498  14.941  0.00  0.00    +0.000 C 
ATOM     27  C   UNL     1      39.708  -1.906  15.400  0.00  0.00    +0.000 C 
ATOM     28  C   UNL     1      38.674  -2.874  14.855  0.00  0.00    +0.000 C 
ATOM     29  C   UNL     1      37.835  -2.241  13.765  0.00  0.00    +0.000 C 
ATOM     30  C   UNL     1      37.050  -1.052  14.299  0.00  0.00    +0.000 C 
ENDBRANCH  24  25
ENDBRANCH   1  23
TORSDOF 6
ENDMDL
MODEL 5
REMARK VINA RESULT:      -7.4      4.074      9.888
REMARK  Name = 
REMARK  6 active torsions:
REMARK  status: ('A' for Active; 'I' for Inactive)
REMARK    1  A    between atoms: C_2  and  C_10
REMARK    2  A    between atoms: N_3  and  C_4
REMARK    3  A    between atoms: N_16  and  C_17
REMARK    4  A    between atoms: C_20  and  O_21
REMARK    5  A    between atoms: O_21  and  C_22
REMARK    6  A    between atoms: C_22  and  C_23
REMARK                            x       y       z     vdW  Elec       q    Type
REMARK                         _______ _______ _______ _____ _____    ______ ____
ROOT
ATOM      1  C   UNL     1      36.220   1.429  16.444  0.00  0.00    +0.000 A 
ATOM      2  C   UNL     1      35.051   1.124  17.153  0.00  0.00    +0.000 A 
ATOM      3  C   UNL     1      34.593  -0.170  17.159  0.00  0.00    +0.000 A 
ATOM      4  C   UNL     1      35.294  -1.142  16.470  0.00  0.00    +0.000 A 
ATOM      5  N   UNL     1      36.423  -0.807  15.794  0.00  0.00    +0.000 NA
ATOM      6  C   UNL     1      36.896   0.446  15.768  0.00  0.00    +0.000 A 
ATOM      7  N   UNL     1      38.092   0.712  15.063  0.00  0.00    +0.000 NA
ENDROOT
BRANCH   7   8
ATOM      8  C   UNL     1      38.782  -0.324  14.336  0.00  0.00    +0.000 A 
ATOM      9  C   UNL     1      38.344  -0.757  13.101  0.00  0.00    +0.000 A 
ATOM     10  C   UNL     1      39.011  -1.770  12.425  0.00  0.00    +0.000 A 
ATOM     11  C   UNL     1      40.130  -2.394  12.934  0.00  0.00    +0.000 A 
ATOM     12  C   UNL     1      40.565  -1.945  14.187  0.00  0.00    +0.000 A 
ATOM     13  C   UNL     1      39.898  -0.940  14.851  0.00  0.00    +0.000 A 
BRANCH  11  14
ATOM     14  O   UNL     1      40.833  -3.405  12.310  0.00  0.00    +0.000 OA
BRANCH  14  15
ATOM     15  C   UNL     1      41.941  -3.209  11.491  0.00  0.00    +0.000 C 
BRANCH  15  16
ATOM     16  C   UNL     1      41.537  -3.237  10.066  0.00  0.00    +0.000 A 
ATOM     17  C   UNL     1      41.167  -2.058   9.467  0.00  0.00    +0.000 A 
ATOM     18  C   UNL     1      40.793  -2.049   8.164  0.00  0.00    +0.000 A 
ATOM     19  C   UNL     1      40.785  -3.211   7.447  0.00  0.00    +0.000 A 
ATOM     20  C   UNL     1      41.150  -4.399   8.026  0.00  0.00    +0.000 A 
ATOM     21  C   UNL     1      41.529  -4.418   9.343  0.00  0.00    +0.000 A 
ENDBRANCH  15  16
ENDBRANCH  14  15
ENDBRANCH  11  14
ENDBRANCH   7   8
BRANCH   1  23
ATOM     22  O   UNL     1      36.133   3.629  15.670  0.00  0.00    +0.000 OA
ATOM     23  C   UNL     1      36.708   2.810  16.418  0.00  0.00    +0.000 C 
ATOM     24  N   UNL     1      37.801   3.250  17.203  0.00  0.00    +0.000 NA
BRANCH  24  25
ATOM     25  C   UNL     1      38.210   4.629  17.112  0.00  0.00    +0.000 C 
ATOM     26  C   UNL     1      39.153   4.745  15.947  0.00  0.00    +0.000 C 
ATOM     27  C   UNL     1      39.607   6.159  15.679  0.00  0.00    +0.000 C 
ATOM     28  C   UNL     1      39.957   6.869  16.974  0.00  0.00    +0.000 C 
ATOM     29  C   UNL     1      40.061   5.900  18.133  0.00  0.00    +0.000 C 
ATOM     30  C   UNL     1      38.730   5.206  18.387  0.00  0.00    +0.000 C 
ENDBRANCH  24  25
ENDBRANCH   1  23
TORSDOF 6
ENDMDL
MODEL 6
REMARK VINA RESULT:      -7.4      2.294      9.190
REMARK  Name = 
REMARK  6 active torsions:
REMARK  status: ('A' for Active; 'I' for Inactive)
REMARK    1  A    between atoms: C_2  and  C_10
REMARK    2  A    between atoms: N_3  and  C_4
REMARK    3  A    between atoms: N_16  and  C_17
REMARK    4  A    between atoms: C_20  and  O_21
REMARK    5  A    between atoms: O_21  and  C_22
REMARK    6  A    between atoms: C_22  and  C_23
REMARK                            x       y       z     vdW  Elec       q    Type
REMARK                         _______ _______ _______ _____ _____    ______ ____
ROOT
ATOM      1  C   UNL     1      39.920   8.413  20.041  0.00  0.00    +0.000 A 
ATOM      2  C   UNL     1      39.204   9.439  20.671  0.00  0.00    +0.000 A 
ATOM      3  C   UNL     1      37.863   9.574  20.411  0.00  0.00    +0.000 A 
ATOM      4  C   UNL     1      37.250   8.698  19.535  0.00  0.00    +0.000 A 
ATOM      5  N   UNL     1      37.977   7.716  18.943  0.00  0.00    +0.000 NA
ATOM      6  C   UNL     1      39.288   7.558  19.177  0.00  0.00    +0.000 A 
ATOM      7  N   UNL     1      39.972   6.496  18.541  0.00  0.00    +0.000 NA
ENDROOT
BRANCH   7   8
ATOM      8  C   UNL     1      39.302   5.616  17.616  0.00  0.00    +0.000 A 
ATOM      9  C   UNL     1      38.453   4.620  18.050  0.00  0.00    +0.000 A 
ATOM     10  C   UNL     1      37.833   3.769  17.144  0.00  0.00    +0.000 A 
ATOM     11  C   UNL     1      38.023   3.866  15.781  0.00  0.00    +0.000 A 
ATOM     12  C   UNL     1      38.886   4.882  15.354  0.00  0.00    +0.000 A 
ATOM     13  C   UNL     1      39.497   5.721  16.259  0.00  0.00    +0.000 A 
BRANCH  11  14
ATOM     14  O   UNL     1      37.436   3.051  14.834  0.00  0.00    +0.000 OA
BRANCH  14  15
ATOM     15  C   UNL     1      36.077   2.762  14.773  0.00  0.00    +0.000 C 
BRANCH  15  16
ATOM     16  C   UNL     1      35.801   1.455  15.415  0.00  0.00    +0.000 A 
ATOM     17  C   UNL     1      36.352   0.325  14.863  0.00  0.00    +0.000 A 
ATOM     18  C   UNL     1      36.120  -0.886  15.427  0.00  0.00    +0.000 A 
ATOM     19  C   UNL     1      35.341  -0.982  16.544  0.00  0.00    +0.000 A 
ATOM     20  C   UNL     1      34.780   0.133  17.111  0.00  0.00    +0.000 A 
ATOM     21  C   UNL     1      35.009   1.362  16.547  0.00  0.00    +0.000 A 
ENDBRANCH  15  16
ENDBRANCH  14  15
ENDBRANCH  11  14
ENDBRANCH   7   8
BRANCH   1  23
ATOM     22  O   UNL     1      42.084   9.276  20.174  0.00  0.00    +0.000 OA
ATOM     23  C   UNL     1      41.355   8.270  20.300  0.00  0.00    +0.000 C 
ATOM     24  N   UNL     1      41.944   7.041  20.684  0.00  0.00    +0.000 NA
BRANCH  24  25
ATOM     25  C   UNL     1      43.365   6.996  20.919  0.00  0.00    +0.000 C 
ATOM     26  C   UNL     1      44.019   6.525  19.650  0.00  0.00    +0.000 C 
ATOM     27  C   UNL     1      45.525   6.502  19.722  0.00  0.00    +0.000 C 
ATOM     28  C   UNL     1      45.996   5.922  21.044  0.00  0.00    +0.000 C 
ATOM     29  C   UNL     1      44.866   5.244  21.791  0.00  0.00    +0.000 C 
ATOM     30  C   UNL     1      43.767   6.237  22.141  0.00  0.00    +0.000 C 
ENDBRANCH  24  25
ENDBRANCH   1  23
TORSDOF 6
ENDMDL
MODEL 7
REMARK VINA RESULT:      -7.3      4.095      9.412
REMARK  Name = 
REMARK  6 active torsions:
REMARK  status: ('A' for Active; 'I' for Inactive)
REMARK    1  A    between atoms: C_2  and  C_10
REMARK    2  A    between atoms: N_3  and  C_4
REMARK    3  A    between atoms: N_16  and  C_17
REMARK    4  A    between atoms: C_20  and  O_21
REMARK    5  A    between atoms: O_21  and  C_22
REMARK    6  A    between atoms: C_22  and  C_23
REMARK                            x       y       z     vdW  Elec       q    Type
REMARK                         _______ _______ _______ _____ _____    ______ ____
ROOT
ATOM      1  C   UNL     1      36.124   1.252  16.436  0.00  0.00    +0.000 A 
ATOM      2  C   UNL     1      34.921   0.936  17.079  0.00  0.00    +0.000 A 
ATOM      3  C   UNL     1      34.492  -0.368  17.088  0.00  0.00    +0.000 A 
ATOM      4  C   UNL     1      35.254  -1.339  16.466  0.00  0.00    +0.000 A 
ATOM      5  N   UNL     1      36.415  -0.993  15.853  0.00  0.00    +0.000 NA
ATOM      6  C   UNL     1      36.862   0.270  15.826  0.00  0.00    +0.000 A 
ATOM      7  N   UNL     1      38.093   0.547  15.189  0.00  0.00    +0.000 NA
ENDROOT
BRANCH   7   8
ATOM      8  C   UNL     1      38.849  -0.488  14.530  0.00  0.00    +0.000 A 
ATOM      9  C   UNL     1      39.726  -1.297  15.224  0.00  0.00    +0.000 A 
ATOM     10  C   UNL     1      40.461  -2.276  14.568  0.00  0.00    +0.000 A 
ATOM     11  C   UNL     1      40.362  -2.498  13.211  0.00  0.00    +0.000 A 
ATOM     12  C   UNL     1      39.467  -1.672  12.519  0.00  0.00    +0.000 A 
ATOM     13  C   UNL     1      38.743  -0.703  13.177  0.00  0.00    +0.000 A 
BRANCH  11  14
ATOM     14  O   UNL     1      41.065  -3.453  12.505  0.00  0.00    +0.000 OA
BRANCH  14  15
ATOM     15  C   UNL     1      41.724  -3.220  11.302  0.00  0.00    +0.000 C 
BRANCH  15  16
ATOM     16  C   UNL     1      43.096  -3.778  11.352  0.00  0.00    +0.000 A 
ATOM     17  C   UNL     1      43.528  -4.551  10.303  0.00  0.00    +0.000 A 
ATOM     18  C   UNL     1      44.778  -5.074  10.317  0.00  0.00    +0.000 A 
ATOM     19  C   UNL     1      45.608  -4.833  11.373  0.00  0.00    +0.000 A 
ATOM     20  C   UNL     1      45.198  -4.064  12.432  0.00  0.00    +0.000 A 
ATOM     21  C   UNL     1      43.934  -3.531  12.426  0.00  0.00    +0.000 A 
ENDBRANCH  15  16
ENDBRANCH  14  15
ENDBRANCH  11  14
ENDBRANCH   7   8
BRANCH   1  23
ATOM     22  O   UNL     1      35.924   3.471  15.743  0.00  0.00    +0.000 OA
ATOM     23  C   UNL     1      36.582   2.643  16.405  0.00  0.00    +0.000 C 
ATOM     24  N   UNL     1      37.739   3.083  17.094  0.00  0.00    +0.000 NA
BRANCH  24  25
ATOM     25  C   UNL     1      38.113   4.472  17.008  0.00  0.00    +0.000 C 
ATOM     26  C   UNL     1      39.105   4.604  15.886  0.00  0.00    +0.000 C 
ATOM     27  C   UNL     1      39.531   6.027  15.625  0.00  0.00    +0.000 C 
ATOM     28  C   UNL     1      39.800   6.760  16.927  0.00  0.00    +0.000 C 
ATOM     29  C   UNL     1      39.877   5.805  18.100  0.00  0.00    +0.000 C 
ATOM     30  C   UNL     1      38.556   5.075  18.300  0.00  0.00    +0.000 C 
ENDBRANCH  24  25
ENDBRANCH   1  23
TORSDOF 6
ENDMDL
MODEL 8
REMARK VINA RESULT:      -7.3      6.636     12.995
REMARK  Name = 
REMARK  6 active torsions:
REMARK  status: ('A' for Active; 'I' for Inactive)
REMARK    1  A    between atoms: C_2  and  C_10
REMARK    2  A    between atoms: N_3  and  C_4
REMARK    3  A    between atoms: N_16  and  C_17
REMARK    4  A    between atoms: C_20  and  O_21
REMARK    5  A    between atoms: O_21  and  C_22
REMARK    6  A    between atoms: C_22  and  C_23
REMARK                            x       y       z     vdW  Elec       q    Type
REMARK                         _______ _______ _______ _____ _____    ______ ____
ROOT
ATOM      1  C   UNL     1      36.360  -1.018  15.611  0.00  0.00    +0.000 A 
ATOM      2  C   UNL     1      36.004   0.106  16.366  0.00  0.00    +0.000 A 
ATOM      3  C   UNL     1      34.936   0.023  17.225  0.00  0.00    +0.000 A 
ATOM      4  C   UNL     1      34.237  -1.165  17.327  0.00  0.00    +0.000 A 
ATOM      5  N   UNL     1      34.612  -2.234  16.578  0.00  0.00    +0.000 NA
ATOM      6  C   UNL     1      35.650  -2.185  15.731  0.00  0.00    +0.000 A 
ATOM      7  N   UNL     1      35.995  -3.348  15.004  0.00  0.00    +0.000 NA
ENDROOT
BRANCH   7   8
ATOM      8  C   UNL     1      35.227  -4.562  15.119  0.00  0.00    +0.000 A 
ATOM      9  C   UNL     1      34.084  -4.770  14.375  0.00  0.00    +0.000 A 
ATOM     10  C   UNL     1      33.347  -5.939  14.515  0.00  0.00    +0.000 A 
ATOM     11  C   UNL     1      33.704  -6.945  15.388  0.00  0.00    +0.000 A 
ATOM     12  C   UNL     1      34.866  -6.722  16.137  0.00  0.00    +0.000 A 
ATOM     13  C   UNL     1      35.591  -5.560  15.992  0.00  0.00    +0.000 A 
BRANCH  11  14
ATOM     14  O   UNL     1      33.012  -8.125  15.571  0.00  0.00    +0.000 OA
BRANCH  14  15
ATOM     15  C   UNL     1      32.189  -8.398  16.660  0.00  0.00    +0.000 C 
BRANCH  15  16
ATOM     16  C   UNL     1      30.767  -8.377  16.245  0.00  0.00    +0.000 A 
ATOM     17  C   UNL     1      30.280  -9.438  15.523  0.00  0.00    +0.000 A 
ATOM     18  C   UNL     1      28.982  -9.451  15.130  0.00  0.00    +0.000 A 
ATOM     19  C   UNL     1      28.161  -8.410  15.451  0.00  0.00    +0.000 A 
ATOM     20  C   UNL     1      28.626  -7.339  16.171  0.00  0.00    +0.000 A 
ATOM     21  C   UNL     1      29.937  -7.318  16.572  0.00  0.00    +0.000 A 
ENDBRANCH  15  16
ENDBRANCH  14  15
ENDBRANCH  11  14
ENDBRANCH   7   8
BRANCH   1  23
ATOM     22  O   UNL     1      37.273  -0.514  13.524  0.00  0.00    +0.000 OA
ATOM     23  C   UNL     1      37.487  -0.935  14.680  0.00  0.00    +0.000 C 
ATOM     24  N   UNL     1      38.805  -1.313  15.038  0.00  0.00    +0.000 NA
BRANCH  24  25
ATOM     25  C   UNL     1      39.852  -1.195  14.055  0.00  0.00    +0.000 C 
ATOM     26  C   UNL     1      40.610  -2.493  14.044  0.00  0.00    +0.000 C 
ATOM     27  C   UNL     1      41.697  -2.546  13.000  0.00  0.00    +0.000 C 
ATOM     28  C   UNL     1      42.478  -1.245  12.965  0.00  0.00    +0.000 C 
ATOM     29  C   UNL     1      42.177  -0.379  14.171  0.00  0.00    +0.000 C 
ATOM     30  C   UNL     1      40.708   0.019  14.205  0.00  0.00    +0.000 C 
ENDBRANCH  24  25
ENDBRANCH   1  23
TORSDOF 6
ENDMDL
MODEL 9
REMARK VINA RESULT:      -7.1      2.765      9.485
REMARK  Name = 
REMARK  6 active torsions:
REMARK  status: ('A' for Active; 'I' for Inactive)
REMARK    1  A    between atoms: C_2  and  C_10
REMARK    2  A    between atoms: N_3  and  C_4
REMARK    3  A    between atoms: N_16  and  C_17
REMARK    4  A    between atoms: C_20  and  O_21
REMARK    5  A    between atoms: O_21  and  C_22
REMARK    6  A    between atoms: C_22  and  C_23
REMARK                            x       y       z     vdW  Elec       q    Type
REMARK                         _______ _______ _______ _____ _____    ______ ____
ROOT
ATOM      1  C   UNL     1      42.073   8.621  20.403  0.00  0.00    +0.000 A 
ATOM      2  C   UNL     1      41.833   9.924  20.859  0.00  0.00    +0.000 A 
ATOM      3  C   UNL     1      40.678  10.561  20.478  0.00  0.00    +0.000 A 
ATOM      4  C   UNL     1      39.780   9.906  19.655  0.00  0.00    +0.000 A 
ATOM      5  N   UNL     1      40.049   8.644  19.235  0.00  0.00    +0.000 NA
ATOM      6  C   UNL     1      41.167   7.994  19.589  0.00  0.00    +0.000 A 
ATOM      7  N   UNL     1      41.364   6.672  19.130  0.00  0.00    +0.000 NA
ENDROOT
BRANCH   7   8
ATOM      8  C   UNL     1      40.415   6.030  18.254  0.00  0.00    +0.000 A 
ATOM      9  C   UNL     1      40.564   6.054  16.883  0.00  0.00    +0.000 A 
ATOM     10  C   UNL     1      39.629   5.447  16.055  0.00  0.00    +0.000 A 
ATOM     11  C   UNL     1      38.516   4.795  16.541  0.00  0.00    +0.000 A 
ATOM     12  C   UNL     1      38.377   4.776  17.935  0.00  0.00    +0.000 A 
ATOM     13  C   UNL     1      39.309   5.381  18.749  0.00  0.00    +0.000 A 
BRANCH  11  14
ATOM     14  O   UNL     1      37.553   4.175  15.770  0.00  0.00    +0.000 OA
BRANCH  14  15
ATOM     15  C   UNL     1      37.732   2.967  15.103  0.00  0.00    +0.000 C 
BRANCH  15  16
ATOM     16  C   UNL     1      36.801   1.945  15.636  0.00  0.00    +0.000 A 
ATOM     17  C   UNL     1      35.744   2.360  16.407  0.00  0.00    +0.000 A 
ATOM     18  C   UNL     1      34.873   1.450  16.908  0.00  0.00    +0.000 A 
ATOM     19  C   UNL     1      35.046   0.121  16.645  0.00  0.00    +0.000 A 
ATOM     20  C   UNL     1      36.095  -0.315  15.878  0.00  0.00    +0.000 A 
ATOM     21  C   UNL     1      36.981   0.598  15.367  0.00  0.00    +0.000 A 
ENDBRANCH  15  16
ENDBRANCH  14  15
ENDBRANCH  11  14
ENDBRANCH   7   8
BRANCH   1  23
ATOM     22  O   UNL     1      44.355   8.195  20.157  0.00  0.00    +0.000 OA
ATOM     23  C   UNL     1      43.310   7.938  20.791  0.00  0.00    +0.000 C 
ATOM     24  N   UNL     1      43.366   7.002  21.853  0.00  0.00    +0.000 NA
BRANCH  24  25
ATOM     25  C   UNL     1      44.629   6.381  22.164  0.00  0.00    +0.000 C 
ATOM     26  C   UNL     1      44.511   4.922  21.821  0.00  0.00    +0.000 C 
ATOM     27  C   UNL     1      45.792   4.151  22.024  0.00  0.00    +0.000 C 
ATOM     28  C   UNL     1      46.459   4.542  23.330  0.00  0.00    +0.000 C 
ATOM     29  C   UNL     1      45.528   5.346  24.214  0.00  0.00    +0.000 C 
ATOM     30  C   UNL     1      45.129   6.654  23.544  0.00  0.00    +0.000 C 
ENDBRANCH  24  25
ENDBRANCH   1  23
TORSDOF 6
ENDMDL
MODEL 10
REMARK VINA RESULT:      -7.1      3.198      4.654
REMARK  Name = 
REMARK  6 active torsions:
REMARK  status: ('A' for Active; 'I' for Inactive)
REMARK    1  A    between atoms: C_2  and  C_10
REMARK    2  A    between atoms: N_3  and  C_4
REMARK    3  A    between atoms: N_16  and  C_17
REMARK    4  A    between atoms: C_20  and  O_21
REMARK    5  A    between atoms: O_21  and  C_22
REMARK    6  A    between atoms: C_22  and  C_23
REMARK                            x       y       z     vdW  Elec       q    Type
REMARK                         _______ _______ _______ _____ _____    ______ ____
ROOT
ATOM      1  C   UNL     1      38.656   2.866  14.386  0.00  0.00    +0.000 A 
ATOM      2  C   UNL     1      39.435   2.680  13.238  0.00  0.00    +0.000 A 
ATOM      3  C   UNL     1      40.477   3.540  12.992  0.00  0.00    +0.000 A 
ATOM      4  C   UNL     1      40.735   4.566  13.882  0.00  0.00    +0.000 A 
ATOM      5  N   UNL     1      39.957   4.714  14.985  0.00  0.00    +0.000 NA
ATOM      6  C   UNL     1      38.933   3.892  15.253  0.00  0.00    +0.000 A 
ATOM      7  N   UNL     1      38.184   4.095  16.434  0.00  0.00    +0.000 NA
ENDROOT
BRANCH   7   8
ATOM      8  C   UNL     1      38.469   5.192  17.326  0.00  0.00    +0.000 A 
ATOM      9  C   UNL     1      39.215   5.016  18.473  0.00  0.00    +0.000 A 
ATOM     10  C   UNL     1      39.462   6.080  19.331  0.00  0.00    +0.000 A 
ATOM     11  C   UNL     1      38.987   7.353  19.094  0.00  0.00    +0.000 A 
ATOM     12  C   UNL     1      38.232   7.518  17.927  0.00  0.00    +0.000 A 
ATOM     13  C   UNL     1      37.992   6.457  17.082  0.00  0.00    +0.000 A 
BRANCH  11  14
ATOM     14  O   UNL     1      39.198   8.448  19.908  0.00  0.00    +0.000 OA
BRANCH  14  15
ATOM     15  C   UNL     1      38.219   9.049  20.693  0.00  0.00    +0.000 C 
BRANCH  15  16
ATOM     16  C   UNL     1      38.153  10.502  20.408  0.00  0.00    +0.000 A 
ATOM     17  C   UNL     1      37.619  10.911  19.211  0.00  0.00    +0.000 A 
ATOM     18  C   UNL     1      37.543  12.232  18.920  0.00  0.00    +0.000 A 
ATOM     19  C   UNL     1      37.997  13.157  19.817  0.00  0.00    +0.000 A 
ATOM     20  C   UNL     1      38.534  12.771  21.017  0.00  0.00    +0.000 A 
ATOM     21  C   UNL     1      38.615  11.436  21.320  0.00  0.00    +0.000 A 
ENDBRANCH  15  16
ENDBRANCH  14  15
ENDBRANCH  11  14
ENDBRANCH   7   8
BRANCH   1  23
ATOM     22  O   UNL     1      36.422   2.235  14.142  0.00  0.00    +0.000 OA
ATOM     23  C   UNL     1      37.531   1.965  14.649  0.00  0.00    +0.000 C 
ATOM     24  N   UNL     1      37.652   0.804  15.452  0.00  0.00    +0.000 NA
BRANCH  24  25
ATOM     25  C   UNL     1      36.490  -0.024  15.653  0.00  0.00    +0.000 C 
ATOM     26  C   UNL     1      35.996   0.222  17.051  0.00  0.00    +0.000 C 
ATOM     27  C   UNL     1      34.729  -0.526  17.382  0.00  0.00    +0.000 C 
ATOM     28  C   UNL     1      34.794  -1.954  16.872  0.00  0.00    +0.000 C 
ATOM     29  C   UNL     1      36.200  -2.337  16.459  0.00  0.00    +0.000 C 
ATOM     30  C   UNL     1      36.691  -1.464  15.313  0.00  0.00    +0.000 C 
ENDBRANCH  24  25
ENDBRANCH   1  23
TORSDOF 6
ENDMDL
