MODEL 1
REMARK VINA RESULT:      -8.4      0.000      0.000
REMARK  Name = 
REMARK  7 active torsions:
REMARK  status: ('A' for Active; 'I' for Inactive)
REMARK    1  A    between atoms: O_2  and  C_3
REMARK    2  A    between atoms: C_6  and  N_7
REMARK    3  A    between atoms: N_7  and  C_8
REMARK    4  A    between atoms: C_9  and  S_10
REMARK    5  A    between atoms: S_10  and  C_11
REMARK    6  A    between atoms: N_19  and  C_20
REMARK    7  A    between atoms: C_23  and  C_24
REMARK                            x       y       z     vdW  Elec       q    Type
REMARK                         _______ _______ _______ _____ _____    ______ ____
ROOT
ATOM      1  C   UNL     1      36.406   4.459  14.679  0.00  0.00    +0.000 C 
ATOM      2  C   UNL     1      37.673   4.174  14.879  0.00  0.00    +0.000 C 
ATOM      3  C   UNL     1      37.851   2.752  15.165  0.00  0.00    +0.000 C 
ATOM      4  O   UNL     1      38.925   2.134  15.404  0.00  0.00    +0.000 OA
ATOM      5  N   UNL     1      36.553   2.149  15.126  0.00  0.00    +0.000 N 
ATOM      6  C   UNL     1      35.663   3.225  14.822  0.00  0.00    +0.000 C 
ATOM      7  O   UNL     1      34.411   3.017  14.716  0.00  0.00    +0.000 OA
ENDROOT
BRANCH   5   8
ATOM      8  C   UNL     1      36.235   0.770  15.345  0.00  0.00    +0.000 A 
ATOM      9  C   UNL     1      35.489   0.368  16.433  0.00  0.00    +0.000 A 
ATOM     10  C   UNL     1      35.178  -0.970  16.652  0.00  0.00    +0.000 A 
ATOM     11  C   UNL     1      35.604  -1.954  15.788  0.00  0.00    +0.000 A 
ATOM     12  C   UNL     1      36.349  -1.547  14.702  0.00  0.00    +0.000 A 
ATOM     13  C   UNL     1      36.658  -0.220  14.483  0.00  0.00    +0.000 A 
BRANCH  11  14
ATOM     14  C   UNL     1      35.279  -3.398  16.010  0.00  0.00    +0.000 C 
ATOM     15  C   UNL     1      36.638  -4.083  16.202  0.00  0.00    +0.000 C 
ATOM     16  C   UNL     1      34.648  -3.989  14.775  0.00  0.00    +0.000 C 
ENDBRANCH  11  14
ENDBRANCH   5   8
BRANCH   1  17
ATOM     17  N   UNL     1      35.858   5.733  14.379  0.00  0.00    +0.000 NA
BRANCH  17  21
ATOM     18  C   UNL     1      34.310   6.976  10.643  0.00  0.00    +0.000 A 
ATOM     19  C   UNL     1      33.693   7.268  11.842  0.00  0.00    +0.000 A 
ATOM     20  C   UNL     1      34.215   6.850  13.051  0.00  0.00    +0.000 A 
ATOM     21  C   UNL     1      35.391   6.118  13.098  0.00  0.00    +0.000 A 
ATOM     22  C   UNL     1      36.010   5.824  11.916  0.00  0.00    +0.000 A 
ATOM     23  C   UNL     1      35.476   6.247  10.716  0.00  0.00    +0.000 A 
BRANCH  18  25
ATOM     24  C   UNL     1      34.638   8.036   8.474  0.00  0.00    +0.000 C 
ATOM     25  O   UNL     1      33.771   7.406   9.422  0.00  0.00    +0.000 OA
ENDBRANCH  18  25
ENDBRANCH  17  21
ENDBRANCH   1  17
BRANCH   2  26
ATOM     26  S   UNL     1      38.973   5.419  14.799  0.00  0.00    +0.000 S 
BRANCH  26  27
ATOM     27  C   UNL     1      39.603   5.713  16.440  0.00  0.00    +0.000 A 
ATOM     28  C   UNL     1      40.855   6.247  16.653  0.00  0.00    +0.000 A 
ATOM     29  C   UNL     1      41.317   6.467  17.936  0.00  0.00    +0.000 A 
ATOM     30  C   UNL     1      40.549   6.163  19.039  0.00  0.00    +0.000 A 
ATOM     31  C   UNL     1      39.306   5.633  18.835  0.00  0.00    +0.000 A 
ATOM     32  C   UNL     1      38.841   5.411  17.525  0.00  0.00    +0.000 A 
ENDBRANCH  26  27
ENDBRANCH   2  26
TORSDOF 7
ENDMDL
MODEL 2
REMARK VINA RESULT:      -8.3      3.719      8.826
REMARK  Name = 
REMARK  7 active torsions:
REMARK  status: ('A' for Active; 'I' for Inactive)
REMARK    1  A    between atoms: O_2  and  C_3
REMARK    2  A    between atoms: C_6  and  N_7
REMARK    3  A    between atoms: N_7  and  C_8
REMARK    4  A    between atoms: C_9  and  S_10
REMARK    5  A    between atoms: S_10  and  C_11
REMARK    6  A    between atoms: N_19  and  C_20
REMARK    7  A    between atoms: C_23  and  C_24
REMARK                            x       y       z     vdW  Elec       q    Type
REMARK                         _______ _______ _______ _____ _____    ______ ____
ROOT
ATOM      1  C   UNL     1      37.222   1.613  14.938  0.00  0.00    +0.000 C 
ATOM      2  C   UNL     1      38.229   2.013  14.195  0.00  0.00    +0.000 C 
ATOM      3  C   UNL     1      38.801   3.253  14.715  0.00  0.00    +0.000 C 
ATOM      4  O   UNL     1      39.774   3.915  14.256  0.00  0.00    +0.000 OA
ATOM      5  N   UNL     1      38.050   3.608  15.880  0.00  0.00    +0.000 N 
ATOM      6  C   UNL     1      37.069   2.577  16.007  0.00  0.00    +0.000 C 
ATOM      7  O   UNL     1      36.226   2.600  16.962  0.00  0.00    +0.000 OA
ENDROOT
BRANCH   5   8
ATOM      8  C   UNL     1      38.251   4.749  16.723  0.00  0.00    +0.000 A 
ATOM      9  C   UNL     1      37.932   6.021  16.298  0.00  0.00    +0.000 A 
ATOM     10  C   UNL     1      38.126   7.133  17.111  0.00  0.00    +0.000 A 
ATOM     11  C   UNL     1      38.647   7.009  18.380  0.00  0.00    +0.000 A 
ATOM     12  C   UNL     1      38.963   5.736  18.800  0.00  0.00    +0.000 A 
ATOM     13  C   UNL     1      38.771   4.631  17.995  0.00  0.00    +0.000 A 
BRANCH  11  14
ATOM     14  C   UNL     1      38.863   8.196  19.267  0.00  0.00    +0.000 C 
ATOM     15  C   UNL     1      39.577   7.638  20.504  0.00  0.00    +0.000 C 
ATOM     16  C   UNL     1      37.540   8.755  19.724  0.00  0.00    +0.000 C 
ENDBRANCH  11  14
ENDBRANCH   5   8
BRANCH   1  17
ATOM     17  N   UNL     1      36.426   0.454  14.739  0.00  0.00    +0.000 NA
BRANCH  17  21
ATOM     18  C   UNL     1      37.532  -3.311  16.320  0.00  0.00    +0.000 A 
ATOM     19  C   UNL     1      37.934  -2.117  16.882  0.00  0.00    +0.000 A 
ATOM     20  C   UNL     1      37.563  -0.898  16.348  0.00  0.00    +0.000 A 
ATOM     21  C   UNL     1      36.763  -0.835  15.218  0.00  0.00    +0.000 A 
ATOM     22  C   UNL     1      36.359  -2.013  14.654  0.00  0.00    +0.000 A 
ATOM     23  C   UNL     1      36.739  -3.222  15.198  0.00  0.00    +0.000 A 
BRANCH  18  25
ATOM     24  C   UNL     1      38.588  -4.547  18.134  0.00  0.00    +0.000 C 
ATOM     25  O   UNL     1      37.915  -4.542  16.872  0.00  0.00    +0.000 OA
ENDBRANCH  18  25
ENDBRANCH  17  21
ENDBRANCH   1  17
BRANCH   2  26
ATOM     26  S   UNL     1      38.782   1.109  12.738  0.00  0.00    +0.000 S 
BRANCH  26  27
ATOM     27  C   UNL     1      39.568  -0.405  13.253  0.00  0.00    +0.000 A 
ATOM     28  C   UNL     1      40.467  -0.439  14.295  0.00  0.00    +0.000 A 
ATOM     29  C   UNL     1      41.059  -1.628  14.676  0.00  0.00    +0.000 A 
ATOM     30  C   UNL     1      40.775  -2.811  14.031  0.00  0.00    +0.000 A 
ATOM     31  C   UNL     1      39.883  -2.786  12.996  0.00  0.00    +0.000 A 
ATOM     32  C   UNL     1      39.283  -1.571  12.614  0.00  0.00    +0.000 A 
ENDBRANCH  26  27
ENDBRANCH   2  26
TORSDOF 7
ENDMDL
MODEL 3
REMARK VINA RESULT:      -8.3      3.886      8.794
REMARK  Name = 
REMARK  7 active torsions:
REMARK  status: ('A' for Active; 'I' for Inactive)
REMARK    1  A    between atoms: O_2  and  C_3
REMARK    2  A    between atoms: C_6  and  N_7
REMARK    3  A    between atoms: N_7  and  C_8
REMARK    4  A    between atoms: C_9  and  S_10
REMARK    5  A    between atoms: S_10  and  C_11
REMARK    6  A    between atoms: N_19  and  C_20
REMARK    7  A    between atoms: C_23  and  C_24
REMARK                            x       y       z     vdW  Elec       q    Type
REMARK                         _______ _______ _______ _____ _____    ______ ____
ROOT
ATOM      1  C   UNL     1      38.368   2.257  14.286  0.00  0.00    +0.000 C 
ATOM      2  C   UNL     1      37.295   1.958  14.981  0.00  0.00    +0.000 C 
ATOM      3  C   UNL     1      37.089   2.917  16.064  0.00  0.00    +0.000 C 
ATOM      4  O   UNL     1      36.163   2.936  16.923  0.00  0.00    +0.000 OA
ATOM      5  N   UNL     1      38.152   3.872  15.989  0.00  0.00    +0.000 N 
ATOM      6  C   UNL     1      38.942   3.448  14.876  0.00  0.00    +0.000 C 
ATOM      7  O   UNL     1      39.984   4.099  14.538  0.00  0.00    +0.000 OA
ENDROOT
BRANCH   5   8
ATOM      8  C   UNL     1      38.363   4.998  16.849  0.00  0.00    +0.000 A 
ATOM      9  C   UNL     1      38.891   4.848  18.114  0.00  0.00    +0.000 A 
ATOM     10  C   UNL     1      39.097   5.938  18.954  0.00  0.00    +0.000 A 
ATOM     11  C   UNL     1      38.781   7.217  18.556  0.00  0.00    +0.000 A 
ATOM     12  C   UNL     1      38.254   7.362  17.290  0.00  0.00    +0.000 A 
ATOM     13  C   UNL     1      38.049   6.282  16.456  0.00  0.00    +0.000 A 
BRANCH  11  14
ATOM     14  C   UNL     1      38.996   8.400  19.448  0.00  0.00    +0.000 C 
ATOM     15  C   UNL     1      40.082   7.956  20.436  0.00  0.00    +0.000 C 
ATOM     16  C   UNL     1      37.750   8.687  20.246  0.00  0.00    +0.000 C 
ENDBRANCH  11  14
ENDBRANCH   5   8
BRANCH   1  17
ATOM     17  N   UNL     1      38.879   1.554  13.164  0.00  0.00    +0.000 NA
BRANCH  17  21
ATOM     18  C   UNL     1      41.152  -2.014  13.253  0.00  0.00    +0.000 A 
ATOM     19  C   UNL     1      40.239  -1.734  12.257  0.00  0.00    +0.000 A 
ATOM     20  C   UNL     1      39.506  -0.563  12.249  0.00  0.00    +0.000 A 
ATOM     21  C   UNL     1      39.667   0.380  13.252  0.00  0.00    +0.000 A 
ATOM     22  C   UNL     1      40.570   0.112  14.243  0.00  0.00    +0.000 A 
ATOM     23  C   UNL     1      41.294  -1.062  14.238  0.00  0.00    +0.000 A 
BRANCH  18  25
ATOM     24  C   UNL     1      43.093  -3.265  12.478  0.00  0.00    +0.000 C 
ATOM     25  O   UNL     1      41.890  -3.206  13.251  0.00  0.00    +0.000 OA
ENDBRANCH  18  25
ENDBRANCH  17  21
ENDBRANCH   1  17
BRANCH   2  26
ATOM     26  S   UNL     1      36.255   0.537  14.599  0.00  0.00    +0.000 S 
BRANCH  26  27
ATOM     27  C   UNL     1      37.099  -0.954  15.092  0.00  0.00    +0.000 A 
ATOM     28  C   UNL     1      37.847  -1.017  16.247  0.00  0.00    +0.000 A 
ATOM     29  C   UNL     1      38.488  -2.187  16.607  0.00  0.00    +0.000 A 
ATOM     30  C   UNL     1      38.403  -3.321  15.830  0.00  0.00    +0.000 A 
ATOM     31  C   UNL     1      37.662  -3.266  14.683  0.00  0.00    +0.000 A 
ATOM     32  C   UNL     1      37.012  -2.071  14.322  0.00  0.00    +0.000 A 
ENDBRANCH  26  27
ENDBRANCH   2  26
TORSDOF 7
ENDMDL
MODEL 4
REMARK VINA RESULT:      -8.2      2.607      3.404
REMARK  Name = 
REMARK  7 active torsions:
REMARK  status: ('A' for Active; 'I' for Inactive)
REMARK    1  A    between atoms: O_2  and  C_3
REMARK    2  A    between atoms: C_6  and  N_7
REMARK    3  A    between atoms: N_7  and  C_8
REMARK    4  A    between atoms: C_9  and  S_10
REMARK    5  A    between atoms: S_10  and  C_11
REMARK    6  A    between atoms: N_19  and  C_20
REMARK    7  A    between atoms: C_23  and  C_24
REMARK                            x       y       z     vdW  Elec       q    Type
REMARK                         _______ _______ _______ _____ _____    ______ ____
ROOT
ATOM      1  C   UNL     1      36.789   5.725  14.737  0.00  0.00    +0.000 C 
ATOM      2  C   UNL     1      37.916   5.462  15.359  0.00  0.00    +0.000 C 
ATOM      3  C   UNL     1      37.934   4.085  15.847  0.00  0.00    +0.000 C 
ATOM      4  O   UNL     1      38.853   3.497  16.484  0.00  0.00    +0.000 OA
ATOM      5  N   UNL     1      36.691   3.487  15.468  0.00  0.00    +0.000 N 
ATOM      6  C   UNL     1      35.987   4.520  14.777  0.00  0.00    +0.000 C 
ATOM      7  O   UNL     1      34.824   4.305  14.304  0.00  0.00    +0.000 OA
ENDROOT
BRANCH   5   8
ATOM      8  C   UNL     1      36.263   2.145  15.731  0.00  0.00    +0.000 A 
ATOM      9  C   UNL     1      35.448   1.848  16.803  0.00  0.00    +0.000 A 
ATOM     10  C   UNL     1      35.030   0.547  17.065  0.00  0.00    +0.000 A 
ATOM     11  C   UNL     1      35.414  -0.502  16.261  0.00  0.00    +0.000 A 
ATOM     12  C   UNL     1      36.227  -0.201  15.190  0.00  0.00    +0.000 A 
ATOM     13  C   UNL     1      36.643   1.090  14.929  0.00  0.00    +0.000 A 
BRANCH  11  14
ATOM     14  C   UNL     1      34.973  -1.908  16.529  0.00  0.00    +0.000 C 
ATOM     15  C   UNL     1      33.679  -1.767  17.340  0.00  0.00    +0.000 C 
ATOM     16  C   UNL     1      35.977  -2.614  17.403  0.00  0.00    +0.000 C 
ENDBRANCH  11  14
ENDBRANCH   5   8
BRANCH   1  17
ATOM     17  N   UNL     1      36.417   6.955  14.134  0.00  0.00    +0.000 NA
BRANCH  17  21
ATOM     18  C   UNL     1      34.185   9.977  16.080  0.00  0.00    +0.000 A 
ATOM     19  C   UNL     1      35.559   9.890  16.167  0.00  0.00    +0.000 A 
ATOM     20  C   UNL     1      36.268   8.893  15.524  0.00  0.00    +0.000 A 
ATOM     21  C   UNL     1      35.614   7.939  14.762  0.00  0.00    +0.000 A 
ATOM     22  C   UNL     1      34.252   8.017  14.669  0.00  0.00    +0.000 A 
ATOM     23  C   UNL     1      33.558   9.018  15.317  0.00  0.00    +0.000 A 
BRANCH  18  25
ATOM     24  C   UNL     1      32.776  10.672  17.942  0.00  0.00    +0.000 C 
ATOM     25  O   UNL     1      33.476  10.993  16.736  0.00  0.00    +0.000 OA
ENDBRANCH  18  25
ENDBRANCH  17  21
ENDBRANCH   1  17
BRANCH   2  26
ATOM     26  S   UNL     1      39.226   6.684  15.553  0.00  0.00    +0.000 S 
BRANCH  26  27
ATOM     27  C   UNL     1      39.870   6.591  17.213  0.00  0.00    +0.000 A 
ATOM     28  C   UNL     1      41.221   6.496  17.463  0.00  0.00    +0.000 A 
ATOM     29  C   UNL     1      41.693   6.429  18.760  0.00  0.00    +0.000 A 
ATOM     30  C   UNL     1      40.837   6.453  19.839  0.00  0.00    +0.000 A 
ATOM     31  C   UNL     1      39.495   6.548  19.598  0.00  0.00    +0.000 A 
ATOM     32  C   UNL     1      39.021   6.616  18.274  0.00  0.00    +0.000 A 
ENDBRANCH  26  27
ENDBRANCH   2  26
TORSDOF 7
ENDMDL
MODEL 5
REMARK VINA RESULT:      -7.8      2.589      8.205
REMARK  Name = 
REMARK  7 active torsions:
REMARK  status: ('A' for Active; 'I' for Inactive)
REMARK    1  A    between atoms: O_2  and  C_3
REMARK    2  A    between atoms: C_6  and  N_7
REMARK    3  A    between atoms: N_7  and  C_8
REMARK    4  A    between atoms: C_9  and  S_10
REMARK    5  A    between atoms: S_10  and  C_11
REMARK    6  A    between atoms: N_19  and  C_20
REMARK    7  A    between atoms: C_23  and  C_24
REMARK                            x       y       z     vdW  Elec       q    Type
REMARK                         _______ _______ _______ _____ _____    ______ ____
ROOT
ATOM      1  C   UNL     1      36.977   4.582  15.088  0.00  0.00    +0.000 C 
ATOM      2  C   UNL     1      37.021   5.832  14.686  0.00  0.00    +0.000 C 
ATOM      3  C   UNL     1      37.920   6.620  15.526  0.00  0.00    +0.000 C 
ATOM      4  O   UNL     1      38.201   7.848  15.429  0.00  0.00    +0.000 OA
ATOM      5  N   UNL     1      38.453   5.737  16.517  0.00  0.00    +0.000 N 
ATOM      6  C   UNL     1      37.857   4.470  16.233  0.00  0.00    +0.000 C 
ATOM      7  O   UNL     1      38.129   3.452  16.948  0.00  0.00    +0.000 OA
ENDROOT
BRANCH   5   8
ATOM      8  C   UNL     1      39.380   6.067  17.559  0.00  0.00    +0.000 A 
ATOM      9  C   UNL     1      38.955   6.319  18.846  0.00  0.00    +0.000 A 
ATOM     10  C   UNL     1      39.849   6.641  19.861  0.00  0.00    +0.000 A 
ATOM     11  C   UNL     1      41.203   6.721  19.622  0.00  0.00    +0.000 A 
ATOM     12  C   UNL     1      41.623   6.468  18.335  0.00  0.00    +0.000 A 
ATOM     13  C   UNL     1      40.736   6.148  17.326  0.00  0.00    +0.000 A 
BRANCH  11  14
ATOM     14  C   UNL     1      42.179   7.067  20.704  0.00  0.00    +0.000 C 
ATOM     15  C   UNL     1      43.104   8.119  20.077  0.00  0.00    +0.000 C 
ATOM     16  C   UNL     1      43.026   5.870  21.047  0.00  0.00    +0.000 C 
ENDBRANCH  11  14
ENDBRANCH   5   8
BRANCH   1  17
ATOM     17  N   UNL     1      36.214   3.531  14.516  0.00  0.00    +0.000 NA
BRANCH  17  21
ATOM     18  C   UNL     1      35.315  -0.138  16.421  0.00  0.00    +0.000 A 
ATOM     19  C   UNL     1      36.190  -0.042  15.358  0.00  0.00    +0.000 A 
ATOM     20  C   UNL     1      36.467   1.167  14.750  0.00  0.00    +0.000 A 
ATOM     21  C   UNL     1      35.871   2.336  15.194  0.00  0.00    +0.000 A 
ATOM     22  C   UNL     1      35.003   2.251  16.247  0.00  0.00    +0.000 A 
ATOM     23  C   UNL     1      34.735   1.037  16.844  0.00  0.00    +0.000 A 
BRANCH  18  25
ATOM     24  C   UNL     1      36.089  -2.025  17.754  0.00  0.00    +0.000 C 
ATOM     25  O   UNL     1      35.041  -1.370  17.031  0.00  0.00    +0.000 OA
ENDBRANCH  18  25
ENDBRANCH  17  21
ENDBRANCH   1  17
BRANCH   2  26
ATOM     26  S   UNL     1      36.072   6.433  13.276  0.00  0.00    +0.000 S 
BRANCH  26  27
ATOM     27  C   UNL     1      35.278   7.967  13.718  0.00  0.00    +0.000 A 
ATOM     28  C   UNL     1      35.593   9.154  13.093  0.00  0.00    +0.000 A 
ATOM     29  C   UNL     1      34.959  10.327  13.453  0.00  0.00    +0.000 A 
ATOM     30  C   UNL     1      34.000  10.353  14.441  0.00  0.00    +0.000 A 
ATOM     31  C   UNL     1      33.682   9.179  15.065  0.00  0.00    +0.000 A 
ATOM     32  C   UNL     1      34.332   7.987  14.693  0.00  0.00    +0.000 A 
ENDBRANCH  26  27
ENDBRANCH   2  26
TORSDOF 7
ENDMDL
MODEL 6
REMARK VINA RESULT:      -7.8      1.819      6.317
REMARK  Name = 
REMARK  7 active torsions:
REMARK  status: ('A' for Active; 'I' for Inactive)
REMARK    1  A    between atoms: O_2  and  C_3
REMARK    2  A    between atoms: C_6  and  N_7
REMARK    3  A    between atoms: N_7  and  C_8
REMARK    4  A    between atoms: C_9  and  S_10
REMARK    5  A    between atoms: S_10  and  C_11
REMARK    6  A    between atoms: N_19  and  C_20
REMARK    7  A    between atoms: C_23  and  C_24
REMARK                            x       y       z     vdW  Elec       q    Type
REMARK                         _______ _______ _______ _____ _____    ______ ____
ROOT
ATOM      1  C   UNL     1      37.611   4.687  15.859  0.00  0.00    +0.000 C 
ATOM      2  C   UNL     1      37.456   4.527  14.565  0.00  0.00    +0.000 C 
ATOM      3  C   UNL     1      37.109   3.144  14.247  0.00  0.00    +0.000 C 
ATOM      4  O   UNL     1      36.887   2.637  13.112  0.00  0.00    +0.000 OA
ATOM      5  N   UNL     1      37.056   2.427  15.485  0.00  0.00    +0.000 N 
ATOM      6  C   UNL     1      37.372   3.402  16.482  0.00  0.00    +0.000 C 
ATOM      7  O   UNL     1      37.411   3.078  17.713  0.00  0.00    +0.000 OA
ENDROOT
BRANCH   5   8
ATOM      8  C   UNL     1      36.752   1.039  15.667  0.00  0.00    +0.000 A 
ATOM      9  C   UNL     1      37.666   0.056  15.352  0.00  0.00    +0.000 A 
ATOM     10  C   UNL     1      37.377  -1.294  15.525  0.00  0.00    +0.000 A 
ATOM     11  C   UNL     1      36.160  -1.706  16.021  0.00  0.00    +0.000 A 
ATOM     12  C   UNL     1      35.250  -0.720  16.336  0.00  0.00    +0.000 A 
ATOM     13  C   UNL     1      35.536   0.620  16.164  0.00  0.00    +0.000 A 
BRANCH  11  14
ATOM     14  C   UNL     1      35.833  -3.154  16.213  0.00  0.00    +0.000 C 
ATOM     15  C   UNL     1      36.974  -3.911  15.521  0.00  0.00    +0.000 C 
ATOM     16  C   UNL     1      34.558  -3.503  15.490  0.00  0.00    +0.000 C 
ENDBRANCH  11  14
ENDBRANCH   5   8
BRANCH   1  17
ATOM     17  N   UNL     1      37.950   5.890  16.533  0.00  0.00    +0.000 NA
BRANCH  17  21
ATOM     18  C   UNL     1      41.407   6.345  18.930  0.00  0.00    +0.000 A 
ATOM     19  C   UNL     1      41.447   6.356  17.551  0.00  0.00    +0.000 A 
ATOM     20  C   UNL     1      40.305   6.203  16.788  0.00  0.00    +0.000 A 
ATOM     21  C   UNL     1      39.069   6.035  17.390  0.00  0.00    +0.000 A 
ATOM     22  C   UNL     1      39.019   6.023  18.755  0.00  0.00    +0.000 A 
ATOM     23  C   UNL     1      40.167   6.175  19.505  0.00  0.00    +0.000 A 
BRANCH  18  25
ATOM     24  C   UNL     1      43.768   6.934  19.039  0.00  0.00    +0.000 C 
ATOM     25  O   UNL     1      42.572   6.501  19.694  0.00  0.00    +0.000 OA
ENDBRANCH  18  25
ENDBRANCH  17  21
ENDBRANCH   1  17
BRANCH   2  26
ATOM     26  S   UNL     1      37.660   5.876  13.387  0.00  0.00    +0.000 S 
BRANCH  26  27
ATOM     27  C   UNL     1      36.058   6.371  12.783  0.00  0.00    +0.000 A 
ATOM     28  C   UNL     1      35.821   6.587  11.443  0.00  0.00    +0.000 A 
ATOM     29  C   UNL     1      34.569   6.968  11.002  0.00  0.00    +0.000 A 
ATOM     30  C   UNL     1      33.521   7.144  11.879  0.00  0.00    +0.000 A 
ATOM     31  C   UNL     1      33.748   6.931  13.210  0.00  0.00    +0.000 A 
ATOM     32  C   UNL     1      35.027   6.544  13.652  0.00  0.00    +0.000 A 
ENDBRANCH  26  27
ENDBRANCH   2  26
TORSDOF 7
ENDMDL
MODEL 7
REMARK VINA RESULT:      -7.8      2.478      6.412
REMARK  Name = 
REMARK  7 active torsions:
REMARK  status: ('A' for Active; 'I' for Inactive)
REMARK    1  A    between atoms: O_2  and  C_3
REMARK    2  A    between atoms: C_6  and  N_7
REMARK    3  A    between atoms: N_7  and  C_8
REMARK    4  A    between atoms: C_9  and  S_10
REMARK    5  A    between atoms: S_10  and  C_11
REMARK    6  A    between atoms: N_19  and  C_20
REMARK    7  A    between atoms: C_23  and  C_24
REMARK                            x       y       z     vdW  Elec       q    Type
REMARK                         _______ _______ _______ _____ _____    ______ ____
ROOT
ATOM      1  C   UNL     1      37.771   5.372  16.430  0.00  0.00    +0.000 C 
ATOM      2  C   UNL     1      37.418   5.448  15.167  0.00  0.00    +0.000 C 
ATOM      3  C   UNL     1      36.968   4.150  14.671  0.00  0.00    +0.000 C 
ATOM      4  O   UNL     1      36.558   3.858  13.512  0.00  0.00    +0.000 OA
ATOM      5  N   UNL     1      37.069   3.225  15.758  0.00  0.00    +0.000 N 
ATOM      6  C   UNL     1      37.571   4.000  16.848  0.00  0.00    +0.000 C 
ATOM      7  O   UNL     1      37.778   3.461  17.983  0.00  0.00    +0.000 OA
ENDROOT
BRANCH   5   8
ATOM      8  C   UNL     1      36.735   1.832  15.740  0.00  0.00    +0.000 A 
ATOM      9  C   UNL     1      37.572   0.899  15.164  0.00  0.00    +0.000 A 
ATOM     10  C   UNL     1      37.253  -0.455  15.142  0.00  0.00    +0.000 A 
ATOM     11  C   UNL     1      36.083  -0.922  15.698  0.00  0.00    +0.000 A 
ATOM     12  C   UNL     1      35.250   0.013  16.273  0.00  0.00    +0.000 A 
ATOM     13  C   UNL     1      35.566   1.357  16.295  0.00  0.00    +0.000 A 
BRANCH  11  14
ATOM     14  C   UNL     1      35.725  -2.376  15.682  0.00  0.00    +0.000 C 
ATOM     15  C   UNL     1      36.242  -2.923  17.019  0.00  0.00    +0.000 C 
ATOM     16  C   UNL     1      36.473  -3.088  14.585  0.00  0.00    +0.000 C 
ENDBRANCH  11  14
ENDBRANCH   5   8
BRANCH   1  17
ATOM     17  N   UNL     1      38.259   6.428  17.243  0.00  0.00    +0.000 NA
BRANCH  17  21
ATOM     18  C   UNL     1      41.973   6.432  19.269  0.00  0.00    +0.000 A 
ATOM     19  C   UNL     1      40.762   6.371  19.928  0.00  0.00    +0.000 A 
ATOM     20  C   UNL     1      39.561   6.373  19.246  0.00  0.00    +0.000 A 
ATOM     21  C   UNL     1      39.533   6.435  17.862  0.00  0.00    +0.000 A 
ATOM     22  C   UNL     1      40.727   6.496  17.200  0.00  0.00    +0.000 A 
ATOM     23  C   UNL     1      41.919   6.494  17.894  0.00  0.00    +0.000 A 
BRANCH  18  25
ATOM     24  C   UNL     1      43.182   6.025  21.344  0.00  0.00    +0.000 C 
ATOM     25  O   UNL     1      43.186   6.429  19.972  0.00  0.00    +0.000 OA
ENDBRANCH  18  25
ENDBRANCH  17  21
ENDBRANCH   1  17
BRANCH   2  26
ATOM     26  S   UNL     1      37.503   6.982  14.226  0.00  0.00    +0.000 S 
BRANCH  26  27
ATOM     27  C   UNL     1      36.145   8.035  14.699  0.00  0.00    +0.000 A 
ATOM     28  C   UNL     1      36.339   9.190  15.424  0.00  0.00    +0.000 A 
ATOM     29  C   UNL     1      35.268   9.989  15.774  0.00  0.00    +0.000 A 
ATOM     30  C   UNL     1      33.979   9.662  15.416  0.00  0.00    +0.000 A 
ATOM     31  C   UNL     1      33.778   8.517  14.697  0.00  0.00    +0.000 A 
ATOM     32  C   UNL     1      34.874   7.707  14.343  0.00  0.00    +0.000 A 
ENDBRANCH  26  27
ENDBRANCH   2  26
TORSDOF 7
ENDMDL
MODEL 8
REMARK VINA RESULT:      -7.7      2.615      7.035
REMARK  Name = 
REMARK  7 active torsions:
REMARK  status: ('A' for Active; 'I' for Inactive)
REMARK    1  A    between atoms: O_2  and  C_3
REMARK    2  A    between atoms: C_6  and  N_7
REMARK    3  A    between atoms: N_7  and  C_8
REMARK    4  A    between atoms: C_9  and  S_10
REMARK    5  A    between atoms: S_10  and  C_11
REMARK    6  A    between atoms: N_19  and  C_20
REMARK    7  A    between atoms: C_23  and  C_24
REMARK                            x       y       z     vdW  Elec       q    Type
REMARK                         _______ _______ _______ _____ _____    ______ ____
ROOT
ATOM      1  C   UNL     1      36.694   5.738  14.667  0.00  0.00    +0.000 C 
ATOM      2  C   UNL     1      36.981   4.467  14.834  0.00  0.00    +0.000 C 
ATOM      3  C   UNL     1      38.063   4.297  15.801  0.00  0.00    +0.000 C 
ATOM      4  O   UNL     1      38.590   3.221  16.200  0.00  0.00    +0.000 OA
ATOM      5  N   UNL     1      38.442   5.605  16.242  0.00  0.00    +0.000 N 
ATOM      6  C   UNL     1      37.581   6.493  15.527  0.00  0.00    +0.000 C 
ATOM      7  O   UNL     1      37.666   7.752  15.697  0.00  0.00    +0.000 OA
ENDROOT
BRANCH   5   8
ATOM      8  C   UNL     1      39.463   5.933  17.192  0.00  0.00    +0.000 A 
ATOM      9  C   UNL     1      39.195   5.994  18.543  0.00  0.00    +0.000 A 
ATOM     10  C   UNL     1      40.181   6.314  19.471  0.00  0.00    +0.000 A 
ATOM     11  C   UNL     1      41.472   6.584  19.076  0.00  0.00    +0.000 A 
ATOM     12  C   UNL     1      41.736   6.521  17.725  0.00  0.00    +0.000 A 
ATOM     13  C   UNL     1      40.758   6.203  16.804  0.00  0.00    +0.000 A 
BRANCH  11  14
ATOM     14  C   UNL     1      42.545   6.930  20.062  0.00  0.00    +0.000 C 
ATOM     15  C   UNL     1      43.838   6.978  19.236  0.00  0.00    +0.000 C 
ATOM     16  C   UNL     1      42.700   5.827  21.076  0.00  0.00    +0.000 C 
ENDBRANCH  11  14
ENDBRANCH   5   8
BRANCH   1  17
ATOM     17  N   UNL     1      35.702   6.281  13.809  0.00  0.00    +0.000 NA
BRANCH  17  21
ATOM     18  C   UNL     1      34.280  10.257  14.070  0.00  0.00    +0.000 A 
ATOM     19  C   UNL     1      33.803   9.238  14.870  0.00  0.00    +0.000 A 
ATOM     20  C   UNL     1      34.281   7.946  14.766  0.00  0.00    +0.000 A 
ATOM     21  C   UNL     1      35.267   7.628  13.846  0.00  0.00    +0.000 A 
ATOM     22  C   UNL     1      35.747   8.630  13.050  0.00  0.00    +0.000 A 
ATOM     23  C   UNL     1      35.259   9.916  13.164  0.00  0.00    +0.000 A 
BRANCH  18  25
ATOM     24  C   UNL     1      34.528  12.631  13.581  0.00  0.00    +0.000 C 
ATOM     25  O   UNL     1      33.788  11.565  14.185  0.00  0.00    +0.000 OA
ENDBRANCH  18  25
ENDBRANCH  17  21
ENDBRANCH   1  17
BRANCH   2  26
ATOM     26  S   UNL     1      36.117   3.152  13.954  0.00  0.00    +0.000 S 
BRANCH  26  27
ATOM     27  C   UNL     1      35.786   1.813  15.082  0.00  0.00    +0.000 A 
ATOM     28  C   UNL     1      36.252   0.537  14.851  0.00  0.00    +0.000 A 
ATOM     29  C   UNL     1      35.984  -0.482  15.745  0.00  0.00    +0.000 A 
ATOM     30  C   UNL     1      35.246  -0.261  16.887  0.00  0.00    +0.000 A 
ATOM     31  C   UNL     1      34.781   1.002  17.122  0.00  0.00    +0.000 A 
ATOM     32  C   UNL     1      35.059   2.036  16.208  0.00  0.00    +0.000 A 
ENDBRANCH  26  27
ENDBRANCH   2  26
TORSDOF 7
ENDMDL
MODEL 9
REMARK VINA RESULT:      -7.7      3.812      5.909
REMARK  Name = 
REMARK  7 active torsions:
REMARK  status: ('A' for Active; 'I' for Inactive)
REMARK    1  A    between atoms: O_2  and  C_3
REMARK    2  A    between atoms: C_6  and  N_7
REMARK    3  A    between atoms: N_7  and  C_8
REMARK    4  A    between atoms: C_9  and  S_10
REMARK    5  A    between atoms: S_10  and  C_11
REMARK    6  A    between atoms: N_19  and  C_20
REMARK    7  A    between atoms: C_23  and  C_24
REMARK                            x       y       z     vdW  Elec       q    Type
REMARK                         _______ _______ _______ _____ _____    ______ ____
ROOT
ATOM      1  C   UNL     1      37.277  -1.009  15.996  0.00  0.00    +0.000 C 
ATOM      2  C   UNL     1      36.224  -0.753  16.739  0.00  0.00    +0.000 C 
ATOM      3  C   UNL     1      35.274  -1.862  16.701  0.00  0.00    +0.000 C 
ATOM      4  O   UNL     1      34.163  -1.957  17.293  0.00  0.00    +0.000 OA
ATOM      5  N   UNL     1      35.833  -2.866  15.848  0.00  0.00    +0.000 N 
ATOM      6  C   UNL     1      37.081  -2.321  15.416  0.00  0.00    +0.000 C 
ATOM      7  O   UNL     1      37.838  -2.980  14.631  0.00  0.00    +0.000 OA
ENDROOT
BRANCH   5   8
ATOM      8  C   UNL     1      35.256  -4.134  15.514  0.00  0.00    +0.000 A 
ATOM      9  C   UNL     1      35.635  -5.291  16.162  0.00  0.00    +0.000 A 
ATOM     10  C   UNL     1      35.080  -6.525  15.841  0.00  0.00    +0.000 A 
ATOM     11  C   UNL     1      34.124  -6.644  14.857  0.00  0.00    +0.000 A 
ATOM     12  C   UNL     1      33.747  -5.485  14.212  0.00  0.00    +0.000 A 
ATOM     13  C   UNL     1      34.298  -4.260  14.530  0.00  0.00    +0.000 A 
BRANCH  11  14
ATOM     14  C   UNL     1      33.516  -7.964  14.499  0.00  0.00    +0.000 C 
ATOM     15  C   UNL     1      34.353  -9.002  15.259  0.00  0.00    +0.000 C 
ATOM     16  C   UNL     1      33.689  -8.238  13.027  0.00  0.00    +0.000 C 
ENDBRANCH  11  14
ENDBRANCH   5   8
BRANCH   1  17
ATOM     17  N   UNL     1      38.400  -0.166  15.792  0.00  0.00    +0.000 NA
BRANCH  17  21
ATOM     18  C   UNL     1      38.754   2.252  12.338  0.00  0.00    +0.000 A 
ATOM     19  C   UNL     1      37.703   1.379  12.535  0.00  0.00    +0.000 A 
ATOM     20  C   UNL     1      37.609   0.597  13.670  0.00  0.00    +0.000 A 
ATOM     21  C   UNL     1      38.576   0.667  14.660  0.00  0.00    +0.000 A 
ATOM     22  C   UNL     1      39.620   1.529  14.474  0.00  0.00    +0.000 A 
ATOM     23  C   UNL     1      39.702   2.303  13.335  0.00  0.00    +0.000 A 
BRANCH  18  25
ATOM     24  C   UNL     1      38.141   2.613  10.008  0.00  0.00    +0.000 C 
ATOM     25  O   UNL     1      38.839   3.040  11.182  0.00  0.00    +0.000 OA
ENDBRANCH  18  25
ENDBRANCH  17  21
ENDBRANCH   1  17
BRANCH   2  26
ATOM     26  S   UNL     1      36.035   0.786  17.658  0.00  0.00    +0.000 S 
BRANCH  26  27
ATOM     27  C   UNL     1      35.977   2.149  16.512  0.00  0.00    +0.000 A 
ATOM     28  C   UNL     1      36.947   3.126  16.495  0.00  0.00    +0.000 A 
ATOM     29  C   UNL     1      36.879   4.170  15.592  0.00  0.00    +0.000 A 
ATOM     30  C   UNL     1      35.847   4.270  14.686  0.00  0.00    +0.000 A 
ATOM     31  C   UNL     1      34.880   3.304  14.696  0.00  0.00    +0.000 A 
ATOM     32  C   UNL     1      34.956   2.243  15.618  0.00  0.00    +0.000 A 
ENDBRANCH  26  27
ENDBRANCH   2  26
TORSDOF 7
ENDMDL
MODEL 10
REMARK VINA RESULT:      -7.6      2.101      8.348
REMARK  Name = 
REMARK  7 active torsions:
REMARK  status: ('A' for Active; 'I' for Inactive)
REMARK    1  A    between atoms: O_2  and  C_3
REMARK    2  A    between atoms: C_6  and  N_7
REMARK    3  A    between atoms: N_7  and  C_8
REMARK    4  A    between atoms: C_9  and  S_10
REMARK    5  A    between atoms: S_10  and  C_11
REMARK    6  A    between atoms: N_19  and  C_20
REMARK    7  A    between atoms: C_23  and  C_24
REMARK                            x       y       z     vdW  Elec       q    Type
REMARK                         _______ _______ _______ _____ _____    ______ ____
ROOT
ATOM      1  C   UNL     1      36.637   4.287  15.044  0.00  0.00    +0.000 C 
ATOM      2  C   UNL     1      36.462   5.558  14.763  0.00  0.00    +0.000 C 
ATOM      3  C   UNL     1      37.410   6.392  15.498  0.00  0.00    +0.000 C 
ATOM      4  O   UNL     1      37.528   7.649  15.471  0.00  0.00    +0.000 OA
ATOM      5  N   UNL     1      38.220   5.514  16.287  0.00  0.00    +0.000 N 
ATOM      6  C   UNL     1      37.727   4.205  15.994  0.00  0.00    +0.000 C 
ATOM      7  O   UNL     1      38.244   3.181  16.547  0.00  0.00    +0.000 OA
ENDROOT
BRANCH   5   8
ATOM      8  C   UNL     1      39.286   5.883  17.170  0.00  0.00    +0.000 A 
ATOM      9  C   UNL     1      40.571   6.070  16.706  0.00  0.00    +0.000 A 
ATOM     10  C   UNL     1      41.611   6.426  17.559  0.00  0.00    +0.000 A 
ATOM     11  C   UNL     1      41.400   6.608  18.907  0.00  0.00    +0.000 A 
ATOM     12  C   UNL     1      40.114   6.421  19.366  0.00  0.00    +0.000 A 
ATOM     13  C   UNL     1      39.081   6.067  18.521  0.00  0.00    +0.000 A 
BRANCH  11  14
ATOM     14  C   UNL     1      42.508   6.991  19.838  0.00  0.00    +0.000 C 
ATOM     15  C   UNL     1      43.779   6.938  18.980  0.00  0.00    +0.000 C 
ATOM     16  C   UNL     1      42.657   5.960  20.927  0.00  0.00    +0.000 C 
ENDBRANCH  11  14
ENDBRANCH   5   8
BRANCH   1  17
ATOM     17  N   UNL     1      35.902   3.191  14.521  0.00  0.00    +0.000 NA
BRANCH  17  21
ATOM     18  C   UNL     1      35.337  -0.522  16.469  0.00  0.00    +0.000 A 
ATOM     19  C   UNL     1      36.085  -0.388  15.317  0.00  0.00    +0.000 A 
ATOM     20  C   UNL     1      36.254   0.835  14.696  0.00  0.00    +0.000 A 
ATOM     21  C   UNL     1      35.674   1.980  15.218  0.00  0.00    +0.000 A 
ATOM     22  C   UNL     1      34.933   1.858  16.360  0.00  0.00    +0.000 A 
ATOM     23  C   UNL     1      34.771   0.630  16.968  0.00  0.00    +0.000 A 
BRANCH  18  25
ATOM     24  C   UNL     1      34.917  -2.913  16.272  0.00  0.00    +0.000 C 
ATOM     25  O   UNL     1      35.172  -1.768  17.090  0.00  0.00    +0.000 OA
ENDBRANCH  18  25
ENDBRANCH  17  21
ENDBRANCH   1  17
BRANCH   2  26
ATOM     26  S   UNL     1      35.199   6.134  13.614  0.00  0.00    +0.000 S 
BRANCH  26  27
ATOM     27  C   UNL     1      35.768   5.877  11.944  0.00  0.00    +0.000 A 
ATOM     28  C   UNL     1      36.792   5.004  11.651  0.00  0.00    +0.000 A 
ATOM     29  C   UNL     1      37.210   4.822  10.347  0.00  0.00    +0.000 A 
ATOM     30  C   UNL     1      36.624   5.501   9.303  0.00  0.00    +0.000 A 
ATOM     31  C   UNL     1      35.606   6.369   9.585  0.00  0.00    +0.000 A 
ATOM     32  C   UNL     1      35.185   6.550  10.916  0.00  0.00    +0.000 A 
ENDBRANCH  26  27
ENDBRANCH   2  26
TORSDOF 7
ENDMDL
