MODEL 1
REMARK VINA RESULT:      -7.9      0.000      0.000
REMARK  Name = 
REMARK  7 active torsions:
REMARK  status: ('A' for Active; 'I' for Inactive)
REMARK    1  A    between atoms: C_2  and  C_3
REMARK    2  A    between atoms: C_7  and  C_8
REMARK    3  A    between atoms: C_10  and  N_11
REMARK    4  A    between atoms: C_12  and  C_14
REMARK    5  A    between atoms: C_14  and  O_15
REMARK    6  A    between atoms: O_15  and  C_16
REMARK    7  A    between atoms: C_16  and  C_18
REMARK                            x       y       z     vdW  Elec       q    Type
REMARK                         _______ _______ _______ _____ _____    ______ ____
ROOT
ATOM      1  C   UNL     1      35.216   2.444  16.153  0.00  0.00    +0.000 C 
ATOM      2  O   UNL     1      34.117   3.006  15.938  0.00  0.00    +0.000 OA
ENDROOT
BRANCH   1   3
ATOM      3  C   UNL     1      36.435   3.236  16.078  0.00  0.00    +0.000 A 
ATOM      4  O   UNL     1      37.107   3.785  17.082  0.00  0.00    +0.000 OA
ATOM      5  C   UNL     1      38.158   4.426  16.624  0.00  0.00    +0.000 A 
ATOM      6  C   UNL     1      38.230   4.328  15.255  0.00  0.00    +0.000 A 
ATOM      7  C   UNL     1      39.235   4.906  14.489  0.00  0.00    +0.000 A 
ATOM      8  C   UNL     1      40.215   5.622  15.175  0.00  0.00    +0.000 A 
ATOM      9  C   UNL     1      40.156   5.728  16.542  0.00  0.00    +0.000 A 
ATOM     10  C   UNL     1      41.118   6.432  17.210  0.00  0.00    +0.000 A 
ATOM     11  C   UNL     1      41.102   6.569  18.580  0.00  0.00    +0.000 A 
ATOM     12  C   UNL     1      40.091   5.985  19.327  0.00  0.00    +0.000 A 
ATOM     13  C   UNL     1      39.122   5.275  18.652  0.00  0.00    +0.000 A 
ATOM     14  C   UNL     1      39.150   5.145  17.276  0.00  0.00    +0.000 A 
ATOM     15  C   UNL     1      37.110   3.558  14.924  0.00  0.00    +0.000 A 
ATOM     16  C   UNL     1      36.779   3.194  13.523  0.00  0.00    +0.000 C 
ENDBRANCH   1   3
BRANCH   1  17
ATOM     17  O   UNL     1      35.181   1.105  16.444  0.00  0.00    +0.000 OA
BRANCH  17  18
ATOM     18  C   UNL     1      36.115   0.362  17.170  0.00  0.00    +0.000 C 
BRANCH  18  20
ATOM     19  N   UNL     1      37.191  -0.267  14.996  0.00  0.00    +0.000 NA
ATOM     20  C   UNL     1      37.095  -0.384  16.400  0.00  0.00    +0.000 C 
ATOM     21  O   UNL     1      37.883  -1.156  16.994  0.00  0.00    +0.000 OA
BRANCH  19  27
ATOM     22  C   UNL     1      39.448  -0.462  14.105  0.00  0.00    +0.000 A 
ATOM     23  C   UNL     1      40.430  -1.163  13.471  0.00  0.00    +0.000 A 
ATOM     24  C   UNL     1      40.184  -2.441  13.041  0.00  0.00    +0.000 A 
ATOM     25  C   UNL     1      38.970  -3.059  13.222  0.00  0.00    +0.000 A 
ATOM     26  C   UNL     1      37.982  -2.322  13.871  0.00  0.00    +0.000 A 
ATOM     27  C   UNL     1      38.210  -1.043  14.308  0.00  0.00    +0.000 A 
BRANCH  22  29
ATOM     28  C   UNL     1      40.401   1.741  13.540  0.00  0.00    +0.000 C 
ATOM     29  C   UNL     1      39.693   0.929  14.580  0.00  0.00    +0.000 C 
ENDBRANCH  22  29
BRANCH  26  30
ATOM     30  C   UNL     1      36.629  -2.913  14.102  0.00  0.00    +0.000 C 
ATOM     31  C   UNL     1      36.684  -4.082  15.068  0.00  0.00    +0.000 C 
ENDBRANCH  26  30
ENDBRANCH  19  27
ENDBRANCH  18  20
ENDBRANCH  17  18
ENDBRANCH   1  17
TORSDOF 7
ENDMDL
MODEL 2
REMARK VINA RESULT:      -7.7      1.682      2.774
REMARK  Name = 
REMARK  7 active torsions:
REMARK  status: ('A' for Active; 'I' for Inactive)
REMARK    1  A    between atoms: C_2  and  C_3
REMARK    2  A    between atoms: C_7  and  C_8
REMARK    3  A    between atoms: C_10  and  N_11
REMARK    4  A    between atoms: C_12  and  C_14
REMARK    5  A    between atoms: C_14  and  O_15
REMARK    6  A    between atoms: O_15  and  C_16
REMARK    7  A    between atoms: C_16  and  C_18
REMARK                            x       y       z     vdW  Elec       q    Type
REMARK                         _______ _______ _______ _____ _____    ______ ____
ROOT
ATOM      1  C   UNL     1      35.812   3.886  14.622  0.00  0.00    +0.000 C 
ATOM      2  O   UNL     1      34.891   4.681  14.323  0.00  0.00    +0.000 OA
ENDROOT
BRANCH   1   3
ATOM      3  C   UNL     1      37.105   4.427  15.016  0.00  0.00    +0.000 A 
ATOM      4  O   UNL     1      37.514   4.737  16.240  0.00  0.00    +0.000 OA
ATOM      5  C   UNL     1      38.743   5.198  16.201  0.00  0.00    +0.000 A 
ATOM      6  C   UNL     1      39.216   5.216  14.911  0.00  0.00    +0.000 A 
ATOM      7  C   UNL     1      40.487   5.654  14.558  0.00  0.00    +0.000 A 
ATOM      8  C   UNL     1      41.309   6.096  15.594  0.00  0.00    +0.000 A 
ATOM      9  C   UNL     1      40.850   6.085  16.887  0.00  0.00    +0.000 A 
ATOM     10  C   UNL     1      41.658   6.521  17.898  0.00  0.00    +0.000 A 
ATOM     11  C   UNL     1      41.242   6.531  19.211  0.00  0.00    +0.000 A 
ATOM     12  C   UNL     1      39.971   6.090  19.543  0.00  0.00    +0.000 A 
ATOM     13  C   UNL     1      39.157   5.650  18.522  0.00  0.00    +0.000 A 
ATOM     14  C   UNL     1      39.586   5.646  17.208  0.00  0.00    +0.000 A 
ATOM     15  C   UNL     1      38.145   4.715  14.164  0.00  0.00    +0.000 A 
ATOM     16  C   UNL     1      38.208   4.555  12.689  0.00  0.00    +0.000 C 
ENDBRANCH   1   3
BRANCH   1  17
ATOM     17  O   UNL     1      35.524   2.547  14.549  0.00  0.00    +0.000 OA
BRANCH  17  18
ATOM     18  C   UNL     1      36.348   1.518  14.091  0.00  0.00    +0.000 C 
BRANCH  18  20
ATOM     19  N   UNL     1      36.611  -0.680  15.267  0.00  0.00    +0.000 NA
ATOM     20  C   UNL     1      36.965   0.678  15.103  0.00  0.00    +0.000 C 
ATOM     21  O   UNL     1      37.840   1.165  15.854  0.00  0.00    +0.000 OA
BRANCH  19  27
ATOM     22  C   UNL     1      38.456  -2.110  15.958  0.00  0.00    +0.000 A 
ATOM     23  C   UNL     1      39.124  -2.834  16.901  0.00  0.00    +0.000 A 
ATOM     24  C   UNL     1      38.634  -2.901  18.179  0.00  0.00    +0.000 A 
ATOM     25  C   UNL     1      37.480  -2.260  18.561  0.00  0.00    +0.000 A 
ATOM     26  C   UNL     1      36.816  -1.527  17.581  0.00  0.00    +0.000 A 
ATOM     27  C   UNL     1      37.290  -1.449  16.297  0.00  0.00    +0.000 A 
BRANCH  22  29
ATOM     28  C   UNL     1      40.360  -1.471  14.527  0.00  0.00    +0.000 C 
ATOM     29  C   UNL     1      38.969  -2.024  14.562  0.00  0.00    +0.000 C 
ENDBRANCH  22  29
BRANCH  26  30
ATOM     30  C   UNL     1      35.547  -0.807  17.906  0.00  0.00    +0.000 C 
ATOM     31  C   UNL     1      35.607  -0.156  19.277  0.00  0.00    +0.000 C 
ENDBRANCH  26  30
ENDBRANCH  19  27
ENDBRANCH  18  20
ENDBRANCH  17  18
ENDBRANCH   1  17
TORSDOF 7
ENDMDL
MODEL 3
REMARK VINA RESULT:      -7.6      1.662      2.982
REMARK  Name = 
REMARK  7 active torsions:
REMARK  status: ('A' for Active; 'I' for Inactive)
REMARK    1  A    between atoms: C_2  and  C_3
REMARK    2  A    between atoms: C_7  and  C_8
REMARK    3  A    between atoms: C_10  and  N_11
REMARK    4  A    between atoms: C_12  and  C_14
REMARK    5  A    between atoms: C_14  and  O_15
REMARK    6  A    between atoms: O_15  and  C_16
REMARK    7  A    between atoms: C_16  and  C_18
REMARK                            x       y       z     vdW  Elec       q    Type
REMARK                         _______ _______ _______ _____ _____    ______ ____
ROOT
ATOM      1  C   UNL     1      35.865   3.853  14.639  0.00  0.00    +0.000 C 
ATOM      2  O   UNL     1      34.931   4.642  14.365  0.00  0.00    +0.000 OA
ENDROOT
BRANCH   1   3
ATOM      3  C   UNL     1      37.155   4.403  15.030  0.00  0.00    +0.000 A 
ATOM      4  O   UNL     1      37.565   4.714  16.254  0.00  0.00    +0.000 OA
ATOM      5  C   UNL     1      38.791   5.185  16.212  0.00  0.00    +0.000 A 
ATOM      6  C   UNL     1      39.261   5.207  14.921  0.00  0.00    +0.000 A 
ATOM      7  C   UNL     1      40.527   5.654  14.565  0.00  0.00    +0.000 A 
ATOM      8  C   UNL     1      41.349   6.101  15.599  0.00  0.00    +0.000 A 
ATOM      9  C   UNL     1      40.893   6.085  16.894  0.00  0.00    +0.000 A 
ATOM     10  C   UNL     1      41.701   6.526  17.903  0.00  0.00    +0.000 A 
ATOM     11  C   UNL     1      41.289   6.532  19.216  0.00  0.00    +0.000 A 
ATOM     12  C   UNL     1      40.022   6.083  19.552  0.00  0.00    +0.000 A 
ATOM     13  C   UNL     1      39.208   5.637  18.533  0.00  0.00    +0.000 A 
ATOM     14  C   UNL     1      39.634   5.637  17.218  0.00  0.00    +0.000 A 
ATOM     15  C   UNL     1      38.190   4.699  14.176  0.00  0.00    +0.000 A 
ATOM     16  C   UNL     1      38.251   4.541  12.701  0.00  0.00    +0.000 C 
ENDBRANCH   1   3
BRANCH   1  17
ATOM     17  O   UNL     1      35.593   2.513  14.545  0.00  0.00    +0.000 OA
BRANCH  17  18
ATOM     18  C   UNL     1      36.423   1.503  14.054  0.00  0.00    +0.000 C 
BRANCH  18  20
ATOM     19  N   UNL     1      36.678  -0.724  15.175  0.00  0.00    +0.000 NA
ATOM     20  C   UNL     1      37.043   0.634  15.038  0.00  0.00    +0.000 C 
ATOM     21  O   UNL     1      37.932   1.095  15.791  0.00  0.00    +0.000 OA
BRANCH  19  27
ATOM     22  C   UNL     1      36.784  -1.635  17.430  0.00  0.00    +0.000 A 
ATOM     23  C   UNL     1      37.393  -2.383  18.393  0.00  0.00    +0.000 A 
ATOM     24  C   UNL     1      38.573  -3.021  18.114  0.00  0.00    +0.000 A 
ATOM     25  C   UNL     1      39.182  -2.940  16.884  0.00  0.00    +0.000 A 
ATOM     26  C   UNL     1      38.541  -2.169  15.917  0.00  0.00    +0.000 A 
ATOM     27  C   UNL     1      37.361  -1.524  16.179  0.00  0.00    +0.000 A 
BRANCH  22  29
ATOM     28  C   UNL     1      35.716   0.251  18.607  0.00  0.00    +0.000 C 
ATOM     29  C   UNL     1      35.502  -0.931  17.712  0.00  0.00    +0.000 C 
ENDBRANCH  22  29
BRANCH  26  30
ATOM     30  C   UNL     1      39.138  -2.018  14.555  0.00  0.00    +0.000 C 
ATOM     31  C   UNL     1      40.384  -1.151  14.582  0.00  0.00    +0.000 C 
ENDBRANCH  26  30
ENDBRANCH  19  27
ENDBRANCH  18  20
ENDBRANCH  17  18
ENDBRANCH   1  17
TORSDOF 7
ENDMDL
MODEL 4
REMARK VINA RESULT:      -7.6      2.031      3.626
REMARK  Name = 
REMARK  7 active torsions:
REMARK  status: ('A' for Active; 'I' for Inactive)
REMARK    1  A    between atoms: C_2  and  C_3
REMARK    2  A    between atoms: C_7  and  C_8
REMARK    3  A    between atoms: C_10  and  N_11
REMARK    4  A    between atoms: C_12  and  C_14
REMARK    5  A    between atoms: C_14  and  O_15
REMARK    6  A    between atoms: O_15  and  C_16
REMARK    7  A    between atoms: C_16  and  C_18
REMARK                            x       y       z     vdW  Elec       q    Type
REMARK                         _______ _______ _______ _____ _____    ______ ____
ROOT
ATOM      1  C   UNL     1      37.404   3.319  13.768  0.00  0.00    +0.000 C 
ATOM      2  O   UNL     1      36.541   3.975  13.141  0.00  0.00    +0.000 OA
ENDROOT
BRANCH   1   3
ATOM      3  C   UNL     1      38.064   3.937  14.909  0.00  0.00    +0.000 A 
ATOM      4  O   UNL     1      39.173   4.667  14.906  0.00  0.00    +0.000 OA
ATOM      5  C   UNL     1      39.461   5.054  16.127  0.00  0.00    +0.000 A 
ATOM      6  C   UNL     1      38.528   4.584  17.021  0.00  0.00    +0.000 A 
ATOM      7  C   UNL     1      38.571   4.832  18.387  0.00  0.00    +0.000 A 
ATOM      8  C   UNL     1      39.632   5.607  18.852  0.00  0.00    +0.000 A 
ATOM      9  C   UNL     1      40.571   6.084  17.972  0.00  0.00    +0.000 A 
ATOM     10  C   UNL     1      41.611   6.841  18.432  0.00  0.00    +0.000 A 
ATOM     11  C   UNL     1      42.579   7.340  17.590  0.00  0.00    +0.000 A 
ATOM     12  C   UNL     1      42.520   7.081  16.229  0.00  0.00    +0.000 A 
ATOM     13  C   UNL     1      41.470   6.317  15.766  0.00  0.00    +0.000 A 
ATOM     14  C   UNL     1      40.505   5.822  16.623  0.00  0.00    +0.000 A 
ATOM     15  C   UNL     1      37.638   3.866  16.215  0.00  0.00    +0.000 A 
ATOM     16  C   UNL     1      36.448   3.170  16.766  0.00  0.00    +0.000 C 
ENDBRANCH   1   3
BRANCH   1  17
ATOM     17  O   UNL     1      37.665   2.049  13.320  0.00  0.00    +0.000 OA
BRANCH  17  18
ATOM     18  C   UNL     1      37.005   0.868  13.663  0.00  0.00    +0.000 C 
BRANCH  18  20
ATOM     19  N   UNL     1      36.867  -1.003  15.325  0.00  0.00    +0.000 NA
ATOM     20  C   UNL     1      37.494   0.165  14.836  0.00  0.00    +0.000 C 
ATOM     21  O   UNL     1      38.503   0.600  15.436  0.00  0.00    +0.000 OA
BRANCH  19  27
ATOM     22  C   UNL     1      36.895  -1.347  17.735  0.00  0.00    +0.000 A 
ATOM     23  C   UNL     1      37.395  -1.940  18.855  0.00  0.00    +0.000 A 
ATOM     24  C   UNL     1      38.429  -2.833  18.748  0.00  0.00    +0.000 A 
ATOM     25  C   UNL     1      38.995  -3.163  17.540  0.00  0.00    +0.000 A 
ATOM     26  C   UNL     1      38.467  -2.544  16.410  0.00  0.00    +0.000 A 
ATOM     27  C   UNL     1      37.433  -1.649  16.498  0.00  0.00    +0.000 A 
BRANCH  22  29
ATOM     28  C   UNL     1      34.449  -1.046  17.626  0.00  0.00    +0.000 C 
ATOM     29  C   UNL     1      35.771  -0.372  17.827  0.00  0.00    +0.000 C 
ENDBRANCH  22  29
BRANCH  26  30
ATOM     30  C   UNL     1      39.029  -2.838  15.056  0.00  0.00    +0.000 C 
ATOM     31  C   UNL     1      40.503  -2.485  14.971  0.00  0.00    +0.000 C 
ENDBRANCH  26  30
ENDBRANCH  19  27
ENDBRANCH  18  20
ENDBRANCH  17  18
ENDBRANCH   1  17
TORSDOF 7
ENDMDL
MODEL 5
REMARK VINA RESULT:      -7.4      2.493      8.144
REMARK  Name = 
REMARK  7 active torsions:
REMARK  status: ('A' for Active; 'I' for Inactive)
REMARK    1  A    between atoms: C_2  and  C_3
REMARK    2  A    between atoms: C_7  and  C_8
REMARK    3  A    between atoms: C_10  and  N_11
REMARK    4  A    between atoms: C_12  and  C_14
REMARK    5  A    between atoms: C_14  and  O_15
REMARK    6  A    between atoms: O_15  and  C_16
REMARK    7  A    between atoms: C_16  and  C_18
REMARK                            x       y       z     vdW  Elec       q    Type
REMARK                         _______ _______ _______ _____ _____    ______ ____
ROOT
ATOM      1  C   UNL     1      37.273   3.311  15.011  0.00  0.00    +0.000 C 
ATOM      2  O   UNL     1      37.628   3.494  13.823  0.00  0.00    +0.000 OA
ENDROOT
BRANCH   1   3
ATOM      3  C   UNL     1      36.999   1.953  15.459  0.00  0.00    +0.000 A 
ATOM      4  O   UNL     1      37.851   0.937  15.531  0.00  0.00    +0.000 OA
ATOM      5  C   UNL     1      37.238  -0.133  15.984  0.00  0.00    +0.000 A 
ATOM      6  C   UNL     1      35.915   0.134  16.239  0.00  0.00    +0.000 A 
ATOM      7  C   UNL     1      35.015  -0.805  16.727  0.00  0.00    +0.000 A 
ATOM      8  C   UNL     1      35.511  -2.087  16.963  0.00  0.00    +0.000 A 
ATOM      9  C   UNL     1      36.831  -2.369  16.713  0.00  0.00    +0.000 A 
ATOM     10  C   UNL     1      37.312  -3.626  16.943  0.00  0.00    +0.000 A 
ATOM     11  C   UNL     1      38.626  -3.958  16.706  0.00  0.00    +0.000 A 
ATOM     12  C   UNL     1      39.509  -3.007  16.219  0.00  0.00    +0.000 A 
ATOM     13  C   UNL     1      39.023  -1.739  15.988  0.00  0.00    +0.000 A 
ATOM     14  C   UNL     1      37.700  -1.419  16.229  0.00  0.00    +0.000 A 
ATOM     15  C   UNL     1      35.782   1.484  15.893  0.00  0.00    +0.000 A 
ATOM     16  C   UNL     1      34.494   2.213  16.009  0.00  0.00    +0.000 C 
ENDBRANCH   1   3
BRANCH   1  17
ATOM     17  O   UNL     1      37.166   4.423  15.805  0.00  0.00    +0.000 OA
BRANCH  17  18
ATOM     18  C   UNL     1      37.965   5.567  15.788  0.00  0.00    +0.000 C 
BRANCH  18  20
ATOM     19  N   UNL     1      39.711   6.820  17.079  0.00  0.00    +0.000 NA
ATOM     20  C   UNL     1      39.059   5.613  16.743  0.00  0.00    +0.000 C 
ATOM     21  O   UNL     1      39.441   4.552  17.290  0.00  0.00    +0.000 OA
BRANCH  19  27
ATOM     22  C   UNL     1      40.462   6.865  19.394  0.00  0.00    +0.000 A 
ATOM     23  C   UNL     1      41.445   6.817  20.336  0.00  0.00    +0.000 A 
ATOM     24  C   UNL     1      42.752   6.676  19.949  0.00  0.00    +0.000 A 
ATOM     25  C   UNL     1      43.123   6.580  18.629  0.00  0.00    +0.000 A 
ATOM     26  C   UNL     1      42.101   6.633  17.685  0.00  0.00    +0.000 A 
ATOM     27  C   UNL     1      40.788   6.773  18.054  0.00  0.00    +0.000 A 
BRANCH  22  29
ATOM     28  C   UNL     1      38.812   8.305  20.529  0.00  0.00    +0.000 C 
ATOM     29  C   UNL     1      39.034   7.020  19.792  0.00  0.00    +0.000 C 
ENDBRANCH  22  29
BRANCH  26  30
ATOM     30  C   UNL     1      42.415   6.545  16.226  0.00  0.00    +0.000 C 
ATOM     31  C   UNL     1      43.872   6.865  15.945  0.00  0.00    +0.000 C 
ENDBRANCH  26  30
ENDBRANCH  19  27
ENDBRANCH  18  20
ENDBRANCH  17  18
ENDBRANCH   1  17
TORSDOF 7
ENDMDL
MODEL 6
REMARK VINA RESULT:      -7.3      2.732      8.328
REMARK  Name = 
REMARK  7 active torsions:
REMARK  status: ('A' for Active; 'I' for Inactive)
REMARK    1  A    between atoms: C_2  and  C_3
REMARK    2  A    between atoms: C_7  and  C_8
REMARK    3  A    between atoms: C_10  and  N_11
REMARK    4  A    between atoms: C_12  and  C_14
REMARK    5  A    between atoms: C_14  and  O_15
REMARK    6  A    between atoms: O_15  and  C_16
REMARK    7  A    between atoms: C_16  and  C_18
REMARK                            x       y       z     vdW  Elec       q    Type
REMARK                         _______ _______ _______ _____ _____    ______ ____
ROOT
ATOM      1  C   UNL     1      37.585   3.093  14.201  0.00  0.00    +0.000 C 
ATOM      2  O   UNL     1      37.486   3.083  12.952  0.00  0.00    +0.000 OA
ENDROOT
BRANCH   1   3
ATOM      3  C   UNL     1      37.240   1.888  14.942  0.00  0.00    +0.000 A 
ATOM      4  O   UNL     1      37.993   0.811  15.131  0.00  0.00    +0.000 OA
ATOM      5  C   UNL     1      37.341  -0.073  15.853  0.00  0.00    +0.000 A 
ATOM      6  C   UNL     1      36.091   0.393  16.182  0.00  0.00    +0.000 A 
ATOM      7  C   UNL     1      35.173  -0.323  16.939  0.00  0.00    +0.000 A 
ATOM      8  C   UNL     1      35.569  -1.586  17.379  0.00  0.00    +0.000 A 
ATOM      9  C   UNL     1      36.815  -2.064  17.058  0.00  0.00    +0.000 A 
ATOM     10  C   UNL     1      37.198  -3.302  17.489  0.00  0.00    +0.000 A 
ATOM     11  C   UNL     1      38.435  -3.827  17.191  0.00  0.00    +0.000 A 
ATOM     12  C   UNL     1      39.338  -3.098  16.434  0.00  0.00    +0.000 A 
ATOM     13  C   UNL     1      38.950  -1.849  16.000  0.00  0.00    +0.000 A 
ATOM     14  C   UNL     1      37.705  -1.334  16.305  0.00  0.00    +0.000 A 
ATOM     15  C   UNL     1      36.047   1.657  15.584  0.00  0.00    +0.000 A 
ATOM     16  C   UNL     1      34.858   2.542  15.680  0.00  0.00    +0.000 C 
ENDBRANCH   1   3
BRANCH   1  17
ATOM     17  O   UNL     1      38.014   4.259  14.780  0.00  0.00    +0.000 OA
BRANCH  17  18
ATOM     18  C   UNL     1      39.001   4.418  15.755  0.00  0.00    +0.000 C 
BRANCH  18  20
ATOM     19  N   UNL     1      39.246   6.513  17.109  0.00  0.00    +0.000 NA
ATOM     20  C   UNL     1      38.659   5.245  16.899  0.00  0.00    +0.000 C 
ATOM     21  O   UNL     1      37.818   4.828  17.728  0.00  0.00    +0.000 OA
BRANCH  19  27
ATOM     22  C   UNL     1      37.838   8.223  18.120  0.00  0.00    +0.000 A 
ATOM     23  C   UNL     1      37.422   8.952  19.193  0.00  0.00    +0.000 A 
ATOM     24  C   UNL     1      37.994   8.743  20.421  0.00  0.00    +0.000 A 
ATOM     25  C   UNL     1      38.987   7.815  20.622  0.00  0.00    +0.000 A 
ATOM     26  C   UNL     1      39.396   7.082  19.511  0.00  0.00    +0.000 A 
ATOM     27  C   UNL     1      38.835   7.278  18.276  0.00  0.00    +0.000 A 
BRANCH  22  29
ATOM     28  C   UNL     1      36.120   9.437  16.833  0.00  0.00    +0.000 C 
ATOM     29  C   UNL     1      37.231   8.434  16.775  0.00  0.00    +0.000 C 
ENDBRANCH  22  29
BRANCH  26  30
ATOM     30  C   UNL     1      40.477   6.058  19.637  0.00  0.00    +0.000 C 
ATOM     31  C   UNL     1      41.813   6.692  19.982  0.00  0.00    +0.000 C 
ENDBRANCH  26  30
ENDBRANCH  19  27
ENDBRANCH  18  20
ENDBRANCH  17  18
ENDBRANCH   1  17
TORSDOF 7
ENDMDL
MODEL 7
REMARK VINA RESULT:      -7.3      2.076      3.363
REMARK  Name = 
REMARK  7 active torsions:
REMARK  status: ('A' for Active; 'I' for Inactive)
REMARK    1  A    between atoms: C_2  and  C_3
REMARK    2  A    between atoms: C_7  and  C_8
REMARK    3  A    between atoms: C_10  and  N_11
REMARK    4  A    between atoms: C_12  and  C_14
REMARK    5  A    between atoms: C_14  and  O_15
REMARK    6  A    between atoms: O_15  and  C_16
REMARK    7  A    between atoms: C_16  and  C_18
REMARK                            x       y       z     vdW  Elec       q    Type
REMARK                         _______ _______ _______ _____ _____    ______ ____
ROOT
ATOM      1  C   UNL     1      38.052   3.836  13.794  0.00  0.00    +0.000 C 
ATOM      2  O   UNL     1      37.273   4.555  13.126  0.00  0.00    +0.000 OA
ENDROOT
BRANCH   1   3
ATOM      3  C   UNL     1      38.639   4.379  15.010  0.00  0.00    +0.000 A 
ATOM      4  O   UNL     1      39.772   5.061  15.127  0.00  0.00    +0.000 OA
ATOM      5  C   UNL     1      39.974   5.386  16.384  0.00  0.00    +0.000 A 
ATOM      6  C   UNL     1      38.954   4.919  17.178  0.00  0.00    +0.000 A 
ATOM      7  C   UNL     1      38.894   5.110  18.553  0.00  0.00    +0.000 A 
ATOM      8  C   UNL     1      39.943   5.820  19.135  0.00  0.00    +0.000 A 
ATOM      9  C   UNL     1      40.969   6.292  18.355  0.00  0.00    +0.000 A 
ATOM     10  C   UNL     1      41.996   6.985  18.930  0.00  0.00    +0.000 A 
ATOM     11  C   UNL     1      43.048   7.476  18.191  0.00  0.00    +0.000 A 
ATOM     12  C   UNL     1      43.091   7.276  16.820  0.00  0.00    +0.000 A 
ATOM     13  C   UNL     1      42.054   6.577  16.241  0.00  0.00    +0.000 A 
ATOM     14  C   UNL     1      41.004   6.088  16.995  0.00  0.00    +0.000 A 
ATOM     15  C   UNL     1      38.106   4.273  16.272  0.00  0.00    +0.000 A 
ATOM     16  C   UNL     1      36.849   3.606  16.696  0.00  0.00    +0.000 C 
ENDBRANCH   1   3
BRANCH   1  17
ATOM     17  O   UNL     1      38.296   2.575  13.315  0.00  0.00    +0.000 OA
BRANCH  17  18
ATOM     18  C   UNL     1      37.377   1.544  13.111  0.00  0.00    +0.000 C 
BRANCH  18  20
ATOM     19  N   UNL     1      38.311   0.306  15.080  0.00  0.00    +0.000 NA
ATOM     20  C   UNL     1      37.591   0.321  13.865  0.00  0.00    +0.000 C 
ATOM     21  O   UNL     1      37.124  -0.757  13.430  0.00  0.00    +0.000 OA
BRANCH  19  27
ATOM     22  C   UNL     1      39.573  -1.737  15.483  0.00  0.00    +0.000 A 
ATOM     23  C   UNL     1      39.754  -2.927  16.120  0.00  0.00    +0.000 A 
ATOM     24  C   UNL     1      38.837  -3.349  17.046  0.00  0.00    +0.000 A 
ATOM     25  C   UNL     1      37.722  -2.613  17.368  0.00  0.00    +0.000 A 
ATOM     26  C   UNL     1      37.558  -1.400  16.703  0.00  0.00    +0.000 A 
ATOM     27  C   UNL     1      38.465  -0.962  15.774  0.00  0.00    +0.000 A 
BRANCH  22  29
ATOM     28  C   UNL     1      41.775  -2.128  14.445  0.00  0.00    +0.000 C 
ATOM     29  C   UNL     1      40.557  -1.258  14.471  0.00  0.00    +0.000 C 
ENDBRANCH  22  29
BRANCH  26  30
ATOM     30  C   UNL     1      36.369  -0.540  16.984  0.00  0.00    +0.000 C 
ATOM     31  C   UNL     1      36.177  -0.316  18.474  0.00  0.00    +0.000 C 
ENDBRANCH  26  30
ENDBRANCH  19  27
ENDBRANCH  18  20
ENDBRANCH  17  18
ENDBRANCH   1  17
TORSDOF 7
ENDMDL
MODEL 8
REMARK VINA RESULT:      -7.2      2.734      8.223
REMARK  Name = 
REMARK  7 active torsions:
REMARK  status: ('A' for Active; 'I' for Inactive)
REMARK    1  A    between atoms: C_2  and  C_3
REMARK    2  A    between atoms: C_7  and  C_8
REMARK    3  A    between atoms: C_10  and  N_11
REMARK    4  A    between atoms: C_12  and  C_14
REMARK    5  A    between atoms: C_14  and  O_15
REMARK    6  A    between atoms: O_15  and  C_16
REMARK    7  A    between atoms: C_16  and  C_18
REMARK                            x       y       z     vdW  Elec       q    Type
REMARK                         _______ _______ _______ _____ _____    ______ ____
ROOT
ATOM      1  C   UNL     1      37.621   3.523  13.983  0.00  0.00    +0.000 C 
ATOM      2  O   UNL     1      37.293   3.641  12.779  0.00  0.00    +0.000 OA
ENDROOT
BRANCH   1   3
ATOM      3  C   UNL     1      37.198   2.335  14.711  0.00  0.00    +0.000 A 
ATOM      4  O   UNL     1      37.907   1.240  14.954  0.00  0.00    +0.000 OA
ATOM      5  C   UNL     1      37.189   0.382  15.643  0.00  0.00    +0.000 A 
ATOM      6  C   UNL     1      35.935   0.886  15.893  0.00  0.00    +0.000 A 
ATOM      7  C   UNL     1      34.953   0.204  16.600  0.00  0.00    +0.000 A 
ATOM      8  C   UNL     1      35.286  -1.065  17.073  0.00  0.00    +0.000 A 
ATOM      9  C   UNL     1      36.535  -1.582  16.831  0.00  0.00    +0.000 A 
ATOM     10  C   UNL     1      36.856  -2.826  17.294  0.00  0.00    +0.000 A 
ATOM     11  C   UNL     1      38.093  -3.388  17.075  0.00  0.00    +0.000 A 
ATOM     12  C   UNL     1      39.060  -2.692  16.366  0.00  0.00    +0.000 A 
ATOM     13  C   UNL     1      38.735  -1.437  15.900  0.00  0.00    +0.000 A 
ATOM     14  C   UNL     1      37.488  -0.884  16.127  0.00  0.00    +0.000 A 
ATOM     15  C   UNL     1      35.963   2.145  15.283  0.00  0.00    +0.000 A 
ATOM     16  C   UNL     1      34.796   3.064  15.301  0.00  0.00    +0.000 C 
ENDBRANCH   1   3
BRANCH   1  17
ATOM     17  O   UNL     1      38.361   4.540  14.527  0.00  0.00    +0.000 OA
BRANCH  17  18
ATOM     18  C   UNL     1      39.174   4.496  15.660  0.00  0.00    +0.000 C 
BRANCH  18  20
ATOM     19  N   UNL     1      39.344   6.554  17.081  0.00  0.00    +0.000 NA
ATOM     20  C   UNL     1      38.756   5.301  16.794  0.00  0.00    +0.000 C 
ATOM     21  O   UNL     1      37.846   4.880  17.545  0.00  0.00    +0.000 OA
BRANCH  19  27
ATOM     22  C   UNL     1      39.441   7.065  19.459  0.00  0.00    +0.000 A 
ATOM     23  C   UNL     1      39.013   7.750  20.556  0.00  0.00    +0.000 A 
ATOM     24  C   UNL     1      38.002   8.668  20.433  0.00  0.00    +0.000 A 
ATOM     25  C   UNL     1      37.390   8.932  19.231  0.00  0.00    +0.000 A 
ATOM     26  C   UNL     1      37.844   8.219  18.125  0.00  0.00    +0.000 A 
ATOM     27  C   UNL     1      38.854   7.298  18.230  0.00  0.00    +0.000 A 
BRANCH  22  29
ATOM     28  C   UNL     1      41.843   6.718  19.901  0.00  0.00    +0.000 C 
ATOM     29  C   UNL     1      40.538   6.062  19.570  0.00  0.00    +0.000 C 
ENDBRANCH  22  29
BRANCH  26  30
ATOM     30  C   UNL     1      37.228   8.437  16.781  0.00  0.00    +0.000 C 
ATOM     31  C   UNL     1      36.316   9.651  16.772  0.00  0.00    +0.000 C 
ENDBRANCH  26  30
ENDBRANCH  19  27
ENDBRANCH  18  20
ENDBRANCH  17  18
ENDBRANCH   1  17
TORSDOF 7
ENDMDL
MODEL 9
REMARK VINA RESULT:      -7.1      2.047      7.327
REMARK  Name = 
REMARK  7 active torsions:
REMARK  status: ('A' for Active; 'I' for Inactive)
REMARK    1  A    between atoms: C_2  and  C_3
REMARK    2  A    between atoms: C_7  and  C_8
REMARK    3  A    between atoms: C_10  and  N_11
REMARK    4  A    between atoms: C_12  and  C_14
REMARK    5  A    between atoms: C_14  and  O_15
REMARK    6  A    between atoms: O_15  and  C_16
REMARK    7  A    between atoms: C_16  and  C_18
REMARK                            x       y       z     vdW  Elec       q    Type
REMARK                         _______ _______ _______ _____ _____    ______ ____
ROOT
ATOM      1  C   UNL     1      35.834   2.673  15.304  0.00  0.00    +0.000 C 
ATOM      2  O   UNL     1      34.747   2.643  14.681  0.00  0.00    +0.000 OA
ENDROOT
BRANCH   1   3
ATOM      3  C   UNL     1      36.579   1.434  15.476  0.00  0.00    +0.000 A 
ATOM      4  O   UNL     1      37.774   1.134  14.982  0.00  0.00    +0.000 OA
ATOM      5  C   UNL     1      38.121  -0.078  15.351  0.00  0.00    +0.000 A 
ATOM      6  C   UNL     1      37.143  -0.651  16.128  0.00  0.00    +0.000 A 
ATOM      7  C   UNL     1      37.229  -1.929  16.665  0.00  0.00    +0.000 A 
ATOM      8  C   UNL     1      38.388  -2.652  16.384  0.00  0.00    +0.000 A 
ATOM      9  C   UNL     1      39.374  -2.093  15.609  0.00  0.00    +0.000 A 
ATOM     10  C   UNL     1      40.507  -2.805  15.334  0.00  0.00    +0.000 A 
ATOM     11  C   UNL     1      41.522  -2.290  14.561  0.00  0.00    +0.000 A 
ATOM     12  C   UNL     1      41.418  -1.012  14.034  0.00  0.00    +0.000 A 
ATOM     13  C   UNL     1      40.274  -0.295  14.312  0.00  0.00    +0.000 A 
ATOM     14  C   UNL     1      39.262  -0.824  15.090  0.00  0.00    +0.000 A 
ATOM     15  C   UNL     1      36.158   0.341  16.195  0.00  0.00    +0.000 A 
ATOM     16  C   UNL     1      34.891   0.155  16.946  0.00  0.00    +0.000 C 
ENDBRANCH   1   3
BRANCH   1  17
ATOM     17  O   UNL     1      36.239   3.892  15.785  0.00  0.00    +0.000 OA
BRANCH  17  18
ATOM     18  C   UNL     1      37.117   4.798  15.189  0.00  0.00    +0.000 C 
BRANCH  18  20
ATOM     19  N   UNL     1      38.917   6.264  16.135  0.00  0.00    +0.000 NA
ATOM     20  C   UNL     1      38.404   4.982  15.837  0.00  0.00    +0.000 C 
ATOM     21  O   UNL     1      39.084   3.976  16.147  0.00  0.00    +0.000 OA
BRANCH  19  27
ATOM     22  C   UNL     1      41.340   6.464  16.011  0.00  0.00    +0.000 A 
ATOM     23  C   UNL     1      42.567   6.557  16.597  0.00  0.00    +0.000 A 
ATOM     24  C   UNL     1      42.670   6.541  17.964  0.00  0.00    +0.000 A 
ATOM     25  C   UNL     1      41.573   6.433  18.784  0.00  0.00    +0.000 A 
ATOM     26  C   UNL     1      40.331   6.338  18.162  0.00  0.00    +0.000 A 
ATOM     27  C   UNL     1      40.209   6.352  16.797  0.00  0.00    +0.000 A 
BRANCH  22  29
ATOM     28  C   UNL     1      41.785   7.726  13.940  0.00  0.00    +0.000 C 
ATOM     29  C   UNL     1      41.204   6.477  14.527  0.00  0.00    +0.000 C 
ENDBRANCH  22  29
BRANCH  26  30
ATOM     30  C   UNL     1      39.085   6.208  18.978  0.00  0.00    +0.000 C 
ATOM     31  C   UNL     1      38.533   7.563  19.380  0.00  0.00    +0.000 C 
ENDBRANCH  26  30
ENDBRANCH  19  27
ENDBRANCH  18  20
ENDBRANCH  17  18
ENDBRANCH   1  17
TORSDOF 7
ENDMDL
MODEL 10
REMARK VINA RESULT:      -7.1      2.272      4.481
REMARK  Name = 
REMARK  7 active torsions:
REMARK  status: ('A' for Active; 'I' for Inactive)
REMARK    1  A    between atoms: C_2  and  C_3
REMARK    2  A    between atoms: C_7  and  C_8
REMARK    3  A    between atoms: C_10  and  N_11
REMARK    4  A    between atoms: C_12  and  C_14
REMARK    5  A    between atoms: C_14  and  O_15
REMARK    6  A    between atoms: O_15  and  C_16
REMARK    7  A    between atoms: C_16  and  C_18
REMARK                            x       y       z     vdW  Elec       q    Type
REMARK                         _______ _______ _______ _____ _____    ______ ____
ROOT
ATOM      1  C   UNL     1      40.060   5.470  14.247  0.00  0.00    +0.000 C 
ATOM      2  O   UNL     1      39.800   6.435  13.491  0.00  0.00    +0.000 OA
ENDROOT
BRANCH   1   3
ATOM      3  C   UNL     1      40.340   5.734  15.651  0.00  0.00    +0.000 A 
ATOM      4  O   UNL     1      41.497   6.094  16.192  0.00  0.00    +0.000 OA
ATOM      5  C   UNL     1      41.361   6.241  17.490  0.00  0.00    +0.000 A 
ATOM      6  C   UNL     1      40.070   5.977  17.878  0.00  0.00    +0.000 A 
ATOM      7  C   UNL     1      39.625   6.051  19.192  0.00  0.00    +0.000 A 
ATOM      8  C   UNL     1      40.566   6.417  20.154  0.00  0.00    +0.000 A 
ATOM      9  C   UNL     1      41.860   6.683  19.782  0.00  0.00    +0.000 A 
ATOM     10  C   UNL     1      42.779   7.039  20.728  0.00  0.00    +0.000 A 
ATOM     11  C   UNL     1      44.089   7.314  20.404  0.00  0.00    +0.000 A 
ATOM     12  C   UNL     1      44.514   7.235  19.088  0.00  0.00    +0.000 A 
ATOM     13  C   UNL     1      43.585   6.876  18.134  0.00  0.00    +0.000 A 
ATOM     14  C   UNL     1      42.273   6.602  18.472  0.00  0.00    +0.000 A 
ATOM     15  C   UNL     1      39.429   5.652  16.678  0.00  0.00    +0.000 A 
ATOM     16  C   UNL     1      37.991   5.288  16.616  0.00  0.00    +0.000 C 
ENDBRANCH   1   3
BRANCH   1  17
ATOM     17  O   UNL     1      40.063   4.221  13.680  0.00  0.00    +0.000 OA
BRANCH  17  18
ATOM     18  C   UNL     1      38.971   3.494  13.204  0.00  0.00    +0.000 C 
BRANCH  18  20
ATOM     19  N   UNL     1      37.576   1.443  13.568  0.00  0.00    +0.000 NA
ATOM     20  C   UNL     1      38.501   2.402  14.039  0.00  0.00    +0.000 C 
ATOM     21  O   UNL     1      38.926   2.300  15.213  0.00  0.00    +0.000 OA
BRANCH  19  27
ATOM     22  C   UNL     1      36.025   0.555  15.220  0.00  0.00    +0.000 A 
ATOM     23  C   UNL     1      35.611  -0.428  16.069  0.00  0.00    +0.000 A 
ATOM     24  C   UNL     1      36.334  -1.587  16.171  0.00  0.00    +0.000 A 
ATOM     25  C   UNL     1      37.479  -1.808  15.443  0.00  0.00    +0.000 A 
ATOM     26  C   UNL     1      37.882  -0.790  14.584  0.00  0.00    +0.000 A 
ATOM     27  C   UNL     1      37.171   0.376  14.469  0.00  0.00    +0.000 A 
BRANCH  22  29
ATOM     28  C   UNL     1      35.315   2.624  16.359  0.00  0.00    +0.000 C 
ATOM     29  C   UNL     1      35.255   1.825  15.094  0.00  0.00    +0.000 C 
ENDBRANCH  22  29
BRANCH  26  30
ATOM     30  C   UNL     1      39.121  -0.942  13.762  0.00  0.00    +0.000 C 
ATOM     31  C   UNL     1      40.361  -1.056  14.631  0.00  0.00    +0.000 C 
ENDBRANCH  26  30
ENDBRANCH  19  27
ENDBRANCH  18  20
ENDBRANCH  17  18
ENDBRANCH   1  17
TORSDOF 7
ENDMDL
