MODEL 1
REMARK VINA RESULT:      -9.1      0.000      0.000
REMARK  Name = 
REMARK  6 active torsions:
REMARK  status: ('A' for Active; 'I' for Inactive)
REMARK    1  A    between atoms: C_3  and  N_4
REMARK    2  A    between atoms: C_3  and  C_28
REMARK    3  A    between atoms: N_4  and  N_5
REMARK    4  A    between atoms: C_6  and  C_8
REMARK    5  A    between atoms: C_10  and  C_11
REMARK    6  A    between atoms: C_14  and  C_15
REMARK                            x       y       z     vdW  Elec       q    Type
REMARK                         _______ _______ _______ _____ _____    ______ ____
ROOT
ATOM      1  C   UNL     1      37.240   3.903  16.269  0.00  0.00    +0.000 A 
ATOM      2  C   UNL     1      38.230   4.284  17.126  0.00  0.00    +0.000 A 
ATOM      3  C   UNL     1      38.907   5.491  16.960  0.00  0.00    +0.000 A 
ATOM      4  N   UNL     1      38.554   6.275  15.931  0.00  0.00    +0.000 NA
ATOM      5  C   UNL     1      37.586   5.962  15.048  0.00  0.00    +0.000 A 
ATOM      6  C   UNL     1      37.251   6.777  13.991  0.00  0.00    +0.000 A 
ATOM      7  C   UNL     1      36.256   6.404  13.103  0.00  0.00    +0.000 A 
ATOM      8  C   UNL     1      35.587   5.199  13.268  0.00  0.00    +0.000 A 
ATOM      9  C   UNL     1      35.960   4.421  14.340  0.00  0.00    +0.000 A 
ATOM     10  C   UNL     1      36.940   4.789  15.218  0.00  0.00    +0.000 A 
ENDROOT
BRANCH   3  11
ATOM     11  C   UNL     1      39.991   5.901  17.866  0.00  0.00    +0.000 A 
ATOM     12  C   UNL     1      39.853   5.981  19.228  0.00  0.00    +0.000 A 
ATOM     13  C   UNL     1      40.932   6.356  20.043  0.00  0.00    +0.000 A 
ATOM     14  C   UNL     1      42.180   6.660  19.486  0.00  0.00    +0.000 A 
ATOM     15  C   UNL     1      42.294   6.578  18.127  0.00  0.00    +0.000 A 
ATOM     16  C   UNL     1      41.233   6.207  17.324  0.00  0.00    +0.000 A 
BRANCH  14  17
ATOM     17  C   UNL     1      43.294   7.024  20.374  0.00  0.00    +0.000 C 
ATOM     18  C   UNL     1      44.594   6.988  19.615  0.00  0.00    +0.000 C 
ATOM     19  C   UNL     1      43.436   6.021  21.531  0.00  0.00    +0.000 C 
ATOM     20  C   UNL     1      43.021   8.417  20.948  0.00  0.00    +0.000 C 
ENDBRANCH  14  17
ENDBRANCH   3  11
BRANCH   1  22
ATOM     21  N   UNL     1      37.037   1.425  16.086  0.00  0.00    +0.000 NA
ATOM     22  C   UNL     1      36.448   2.678  16.371  0.00  0.00    +0.000 C 
ATOM     23  O   UNL     1      35.243   2.680  16.704  0.00  0.00    +0.000 OA
BRANCH  21  24
ATOM     24  N   UNL     1      36.453   0.175  16.127  0.00  0.00    +0.000 NA
BRANCH  24  27
ATOM     25  C   UNL     1      35.615  -0.265  18.833  0.00  0.00    +0.000 C 
ATOM     26  C   UNL     1      36.697  -1.035  18.202  0.00  0.00    +0.000 C 
ATOM     27  C   UNL     1      37.073  -0.825  16.963  0.00  0.00    +0.000 C 
BRANCH  27  28
ATOM     28  C   UNL     1      38.206  -1.646  16.475  0.00  0.00    +0.000 A 
ATOM     29  C   UNL     1      38.597  -2.908  16.846  0.00  0.00    +0.000 A 
ATOM     30  C   UNL     1      39.646  -3.423  16.209  0.00  0.00    +0.000 A 
ATOM     31  C   UNL     1      40.251  -2.691  15.253  0.00  0.00    +0.000 A 
ATOM     32  S   UNL     1      39.340  -1.249  15.244  0.00  0.00    +0.000 S 
ENDBRANCH  27  28
ENDBRANCH  24  27
ENDBRANCH  21  24
ENDBRANCH   1  22
TORSDOF 6
ENDMDL
MODEL 2
REMARK VINA RESULT:      -8.9      1.196      2.046
REMARK  Name = 
REMARK  6 active torsions:
REMARK  status: ('A' for Active; 'I' for Inactive)
REMARK    1  A    between atoms: C_3  and  N_4
REMARK    2  A    between atoms: C_3  and  C_28
REMARK    3  A    between atoms: N_4  and  N_5
REMARK    4  A    between atoms: C_6  and  C_8
REMARK    5  A    between atoms: C_10  and  C_11
REMARK    6  A    between atoms: C_14  and  C_15
REMARK                            x       y       z     vdW  Elec       q    Type
REMARK                         _______ _______ _______ _____ _____    ______ ____
ROOT
ATOM      1  C   UNL     1      37.202   3.913  16.060  0.00  0.00    +0.000 A 
ATOM      2  C   UNL     1      38.202   4.259  16.920  0.00  0.00    +0.000 A 
ATOM      3  C   UNL     1      38.790   5.522  16.877  0.00  0.00    +0.000 A 
ATOM      4  N   UNL     1      38.340   6.395  15.964  0.00  0.00    +0.000 NA
ATOM      5  C   UNL     1      37.357   6.121  15.085  0.00  0.00    +0.000 A 
ATOM      6  C   UNL     1      36.923   7.030  14.147  0.00  0.00    +0.000 A 
ATOM      7  C   UNL     1      35.915   6.695  13.257  0.00  0.00    +0.000 A 
ATOM      8  C   UNL     1      35.335   5.435  13.300  0.00  0.00    +0.000 A 
ATOM      9  C   UNL     1      35.805   4.565  14.256  0.00  0.00    +0.000 A 
ATOM     10  C   UNL     1      36.798   4.893  15.136  0.00  0.00    +0.000 A 
ENDROOT
BRANCH   3  11
ATOM     11  C   UNL     1      39.885   5.897  17.786  0.00  0.00    +0.000 A 
ATOM     12  C   UNL     1      39.751   5.960  19.149  0.00  0.00    +0.000 A 
ATOM     13  C   UNL     1      40.839   6.302  19.966  0.00  0.00    +0.000 A 
ATOM     14  C   UNL     1      42.091   6.589  19.410  0.00  0.00    +0.000 A 
ATOM     15  C   UNL     1      42.201   6.525  18.050  0.00  0.00    +0.000 A 
ATOM     16  C   UNL     1      41.131   6.187  17.245  0.00  0.00    +0.000 A 
BRANCH  14  17
ATOM     17  C   UNL     1      43.215   6.919  20.301  0.00  0.00    +0.000 C 
ATOM     18  C   UNL     1      43.281   5.932  21.437  0.00  0.00    +0.000 C 
ATOM     19  C   UNL     1      43.032   8.307  20.938  0.00  0.00    +0.000 C 
ATOM     20  C   UNL     1      44.505   6.911  19.478  0.00  0.00    +0.000 C 
ENDBRANCH  14  17
ENDBRANCH   3  11
BRANCH   1  22
ATOM     21  N   UNL     1      36.977   1.569  15.242  0.00  0.00    +0.000 NA
ATOM     22  C   UNL     1      36.498   2.632  16.041  0.00  0.00    +0.000 C 
ATOM     23  O   UNL     1      35.464   2.421  16.711  0.00  0.00    +0.000 OA
BRANCH  21  24
ATOM     24  N   UNL     1      36.450   0.301  15.097  0.00  0.00    +0.000 NA
BRANCH  24  27
ATOM     25  C   UNL     1      37.883  -1.214  13.130  0.00  0.00    +0.000 C 
ATOM     26  C   UNL     1      37.950  -1.515  14.567  0.00  0.00    +0.000 C 
ATOM     27  C   UNL     1      37.290  -0.816  15.459  0.00  0.00    +0.000 C 
BRANCH  27  28
ATOM     28  C   UNL     1      37.417  -1.263  16.866  0.00  0.00    +0.000 A 
ATOM     29  C   UNL     1      38.343  -2.097  17.440  0.00  0.00    +0.000 A 
ATOM     30  C   UNL     1      38.237  -2.301  18.751  0.00  0.00    +0.000 A 
ATOM     31  C   UNL     1      37.248  -1.686  19.428  0.00  0.00    +0.000 A 
ATOM     32  S   UNL     1      36.443  -0.806  18.208  0.00  0.00    +0.000 S 
ENDBRANCH  27  28
ENDBRANCH  24  27
ENDBRANCH  21  24
ENDBRANCH   1  22
TORSDOF 6
ENDMDL
MODEL 3
REMARK VINA RESULT:      -8.5      1.773      2.355
REMARK  Name = 
REMARK  6 active torsions:
REMARK  status: ('A' for Active; 'I' for Inactive)
REMARK    1  A    between atoms: C_3  and  N_4
REMARK    2  A    between atoms: C_3  and  C_28
REMARK    3  A    between atoms: N_4  and  N_5
REMARK    4  A    between atoms: C_6  and  C_8
REMARK    5  A    between atoms: C_10  and  C_11
REMARK    6  A    between atoms: C_14  and  C_15
REMARK                            x       y       z     vdW  Elec       q    Type
REMARK                         _______ _______ _______ _____ _____    ______ ____
ROOT
ATOM      1  C   UNL     1      37.322   3.835  16.192  0.00  0.00    +0.000 A 
ATOM      2  C   UNL     1      38.287   4.239  17.066  0.00  0.00    +0.000 A 
ATOM      3  C   UNL     1      38.969   5.441  16.887  0.00  0.00    +0.000 A 
ATOM      4  N   UNL     1      38.647   6.197  15.827  0.00  0.00    +0.000 NA
ATOM      5  C   UNL     1      37.706   5.859  14.924  0.00  0.00    +0.000 A 
ATOM      6  C   UNL     1      37.404   6.645  13.836  0.00  0.00    +0.000 A 
ATOM      7  C   UNL     1      36.434   6.247  12.929  0.00  0.00    +0.000 A 
ATOM      8  C   UNL     1      35.760   5.047  13.108  0.00  0.00    +0.000 A 
ATOM      9  C   UNL     1      36.100   4.300  14.212  0.00  0.00    +0.000 A 
ATOM     10  C   UNL     1      37.055   4.691  15.108  0.00  0.00    +0.000 A 
ENDROOT
BRANCH   3  11
ATOM     11  C   UNL     1      40.027   5.876  17.813  0.00  0.00    +0.000 A 
ATOM     12  C   UNL     1      39.855   5.971  19.170  0.00  0.00    +0.000 A 
ATOM     13  C   UNL     1      40.910   6.370  20.006  0.00  0.00    +0.000 A 
ATOM     14  C   UNL     1      42.167   6.682  19.474  0.00  0.00    +0.000 A 
ATOM     15  C   UNL     1      42.315   6.584  18.120  0.00  0.00    +0.000 A 
ATOM     16  C   UNL     1      41.277   6.191  17.297  0.00  0.00    +0.000 A 
BRANCH  14  17
ATOM     17  C   UNL     1      43.255   7.072  20.384  0.00  0.00    +0.000 C 
ATOM     18  C   UNL     1      43.290   6.149  21.574  0.00  0.00    +0.000 C 
ATOM     19  C   UNL     1      43.037   8.490  20.938  0.00  0.00    +0.000 C 
ATOM     20  C   UNL     1      44.573   7.033  19.608  0.00  0.00    +0.000 C 
ENDBRANCH  14  17
ENDBRANCH   3  11
BRANCH   1  22
ATOM     21  N   UNL     1      37.094   1.363  15.969  0.00  0.00    +0.000 NA
ATOM     22  C   UNL     1      36.527   2.614  16.303  0.00  0.00    +0.000 C 
ATOM     23  O   UNL     1      35.337   2.616  16.687  0.00  0.00    +0.000 OA
BRANCH  21  24
ATOM     24  N   UNL     1      36.503   0.116  16.012  0.00  0.00    +0.000 NA
BRANCH  24  27
ATOM     25  C   UNL     1      35.870  -2.679  16.084  0.00  0.00    +0.000 C 
ATOM     26  C   UNL     1      36.343  -2.004  14.867  0.00  0.00    +0.000 C 
ATOM     27  C   UNL     1      36.631  -0.725  14.845  0.00  0.00    +0.000 C 
BRANCH  27  28
ATOM     28  C   UNL     1      37.140  -0.190  13.560  0.00  0.00    +0.000 A 
ATOM     29  C   UNL     1      36.585   0.741  12.717  0.00  0.00    +0.000 A 
ATOM     30  C   UNL     1      37.286   1.063  11.633  0.00  0.00    +0.000 A 
ATOM     31  C   UNL     1      38.478   0.470  11.429  0.00  0.00    +0.000 A 
ATOM     32  S   UNL     1      38.625  -0.564  12.778  0.00  0.00    +0.000 S 
ENDBRANCH  27  28
ENDBRANCH  24  27
ENDBRANCH  21  24
ENDBRANCH   1  22
TORSDOF 6
ENDMDL
MODEL 4
REMARK VINA RESULT:      -8.3      3.614      7.160
REMARK  Name = 
REMARK  6 active torsions:
REMARK  status: ('A' for Active; 'I' for Inactive)
REMARK    1  A    between atoms: C_3  and  N_4
REMARK    2  A    between atoms: C_3  and  C_28
REMARK    3  A    between atoms: N_4  and  N_5
REMARK    4  A    between atoms: C_6  and  C_8
REMARK    5  A    between atoms: C_10  and  C_11
REMARK    6  A    between atoms: C_14  and  C_15
REMARK                            x       y       z     vdW  Elec       q    Type
REMARK                         _______ _______ _______ _____ _____    ______ ____
ROOT
ATOM      1  C   UNL     1      37.087   5.352  14.992  0.00  0.00    +0.000 A 
ATOM      2  C   UNL     1      38.143   5.814  15.722  0.00  0.00    +0.000 A 
ATOM      3  C   UNL     1      38.615   5.117  16.833  0.00  0.00    +0.000 A 
ATOM      4  N   UNL     1      38.002   3.971  17.165  0.00  0.00    +0.000 NA
ATOM      5  C   UNL     1      36.955   3.458  16.490  0.00  0.00    +0.000 A 
ATOM      6  C   UNL     1      36.333   2.287  16.860  0.00  0.00    +0.000 A 
ATOM      7  C   UNL     1      35.252   1.808  16.139  0.00  0.00    +0.000 A 
ATOM      8  C   UNL     1      34.781   2.506  15.036  0.00  0.00    +0.000 A 
ATOM      9  C   UNL     1      35.438   3.670  14.709  0.00  0.00    +0.000 A 
ATOM     10  C   UNL     1      36.506   4.144  15.418  0.00  0.00    +0.000 A 
ENDROOT
BRANCH   3  11
ATOM     11  C   UNL     1      39.739   5.616  17.640  0.00  0.00    +0.000 A 
ATOM     12  C   UNL     1      40.944   5.998  17.108  0.00  0.00    +0.000 A 
ATOM     13  C   UNL     1      41.972   6.490  17.927  0.00  0.00    +0.000 A 
ATOM     14  C   UNL     1      41.794   6.602  19.311  0.00  0.00    +0.000 A 
ATOM     15  C   UNL     1      40.588   6.213  19.820  0.00  0.00    +0.000 A 
ATOM     16  C   UNL     1      39.575   5.730  19.014  0.00  0.00    +0.000 A 
BRANCH  14  17
ATOM     17  C   UNL     1      42.886   7.146  20.134  0.00  0.00    +0.000 C 
ATOM     18  C   UNL     1      43.081   6.295  21.361  0.00  0.00    +0.000 C 
ATOM     19  C   UNL     1      42.556   8.563  20.632  0.00  0.00    +0.000 C 
ATOM     20  C   UNL     1      44.156   7.197  19.281  0.00  0.00    +0.000 C 
ENDBRANCH  14  17
ENDBRANCH   3  11
BRANCH   1  22
ATOM     21  N   UNL     1      35.467   6.905  13.906  0.00  0.00    +0.000 NA
ATOM     22  C   UNL     1      36.535   5.986  13.796  0.00  0.00    +0.000 C 
ATOM     23  O   UNL     1      36.969   5.750  12.647  0.00  0.00    +0.000 OA
BRANCH  21  24
ATOM     24  N   UNL     1      34.824   7.595  12.899  0.00  0.00    +0.000 NA
BRANCH  24  27
ATOM     25  C   UNL     1      34.852   9.582  10.833  0.00  0.00    +0.000 C 
ATOM     26  C   UNL     1      34.467   9.885  12.218  0.00  0.00    +0.000 C 
ATOM     27  C   UNL     1      34.458   8.968  13.157  0.00  0.00    +0.000 C 
BRANCH  27  28
ATOM     28  C   UNL     1      34.090   9.427  14.517  0.00  0.00    +0.000 A 
ATOM     29  C   UNL     1      33.469   8.745  15.533  0.00  0.00    +0.000 A 
ATOM     30  C   UNL     1      33.292   9.402  16.677  0.00  0.00    +0.000 A 
ATOM     31  C   UNL     1      33.726  10.674  16.771  0.00  0.00    +0.000 A 
ATOM     32  S   UNL     1      34.394  10.963  15.228  0.00  0.00    +0.000 S 
ENDBRANCH  27  28
ENDBRANCH  24  27
ENDBRANCH  21  24
ENDBRANCH   1  22
TORSDOF 6
ENDMDL
MODEL 5
REMARK VINA RESULT:      -8.3      2.669      4.527
REMARK  Name = 
REMARK  6 active torsions:
REMARK  status: ('A' for Active; 'I' for Inactive)
REMARK    1  A    between atoms: C_3  and  N_4
REMARK    2  A    between atoms: C_3  and  C_28
REMARK    3  A    between atoms: N_4  and  N_5
REMARK    4  A    between atoms: C_6  and  C_8
REMARK    5  A    between atoms: C_10  and  C_11
REMARK    6  A    between atoms: C_14  and  C_15
REMARK                            x       y       z     vdW  Elec       q    Type
REMARK                         _______ _______ _______ _____ _____    ______ ____
ROOT
ATOM      1  C   UNL     1      37.934   2.103  14.941  0.00  0.00    +0.000 A 
ATOM      2  C   UNL     1      38.377   3.269  15.493  0.00  0.00    +0.000 A 
ATOM      3  C   UNL     1      37.855   3.745  16.695  0.00  0.00    +0.000 A 
ATOM      4  N   UNL     1      36.902   3.020  17.299  0.00  0.00    +0.000 NA
ATOM      5  C   UNL     1      36.418   1.862  16.810  0.00  0.00    +0.000 A 
ATOM      6  C   UNL     1      35.429   1.143  17.442  0.00  0.00    +0.000 A 
ATOM      7  C   UNL     1      34.957  -0.038  16.892  0.00  0.00    +0.000 A 
ATOM      8  C   UNL     1      35.476  -0.507  15.693  0.00  0.00    +0.000 A 
ATOM      9  C   UNL     1      36.462   0.249  15.103  0.00  0.00    +0.000 A 
ATOM     10  C   UNL     1      36.930   1.413  15.645  0.00  0.00    +0.000 A 
ENDROOT
BRANCH   3  11
ATOM     11  C   UNL     1      38.311   5.012  17.289  0.00  0.00    +0.000 A 
ATOM     12  C   UNL     1      38.158   6.232  16.683  0.00  0.00    +0.000 A 
ATOM     13  C   UNL     1      38.593   7.410  17.310  0.00  0.00    +0.000 A 
ATOM     14  C   UNL     1      39.195   7.369  18.573  0.00  0.00    +0.000 A 
ATOM     15  C   UNL     1      39.340   6.142  19.157  0.00  0.00    +0.000 A 
ATOM     16  C   UNL     1      38.911   4.983  18.541  0.00  0.00    +0.000 A 
BRANCH  14  17
ATOM     17  C   UNL     1      39.614   8.627  19.211  0.00  0.00    +0.000 C 
ATOM     18  C   UNL     1      41.078   8.567  19.559  0.00  0.00    +0.000 C 
ATOM     19  C   UNL     1      38.860   8.861  20.530  0.00  0.00    +0.000 C 
ATOM     20  C   UNL     1      39.316   9.780  18.250  0.00  0.00    +0.000 C 
ENDBRANCH  14  17
ENDBRANCH   3  11
BRANCH   1  22
ATOM     21  N   UNL     1      39.311   0.393  13.761  0.00  0.00    +0.000 NA
ATOM     22  C   UNL     1      38.434   1.500  13.707  0.00  0.00    +0.000 C 
ATOM     23  O   UNL     1      38.118   1.923  12.573  0.00  0.00    +0.000 OA
BRANCH  21  24
ATOM     24  N   UNL     1      39.880  -0.302  12.712  0.00  0.00    +0.000 NA
BRANCH  24  27
ATOM     25  C   UNL     1      40.520  -1.789  10.347  0.00  0.00    +0.000 C 
ATOM     26  C   UNL     1      39.837  -2.390  11.501  0.00  0.00    +0.000 C 
ATOM     27  C   UNL     1      39.547  -1.700  12.578  0.00  0.00    +0.000 C 
BRANCH  27  28
ATOM     28  C   UNL     1      38.817  -2.426  13.644  0.00  0.00    +0.000 A 
ATOM     29  C   UNL     1      37.599  -3.056  13.598  0.00  0.00    +0.000 A 
ATOM     30  C   UNL     1      37.196  -3.666  14.711  0.00  0.00    +0.000 A 
ATOM     31  C   UNL     1      37.993  -3.632  15.797  0.00  0.00    +0.000 A 
ATOM     32  S   UNL     1      39.334  -2.726  15.257  0.00  0.00    +0.000 S 
ENDBRANCH  27  28
ENDBRANCH  24  27
ENDBRANCH  21  24
ENDBRANCH   1  22
TORSDOF 6
ENDMDL
MODEL 6
REMARK VINA RESULT:      -7.9      2.579      7.205
REMARK  Name = 
REMARK  6 active torsions:
REMARK  status: ('A' for Active; 'I' for Inactive)
REMARK    1  A    between atoms: C_3  and  N_4
REMARK    2  A    between atoms: C_3  and  C_28
REMARK    3  A    between atoms: N_4  and  N_5
REMARK    4  A    between atoms: C_6  and  C_8
REMARK    5  A    between atoms: C_10  and  C_11
REMARK    6  A    between atoms: C_14  and  C_15
REMARK                            x       y       z     vdW  Elec       q    Type
REMARK                         _______ _______ _______ _____ _____    ______ ____
ROOT
ATOM      1  C   UNL     1      36.051   3.490  15.249  0.00  0.00    +0.000 A 
ATOM      2  C   UNL     1      35.670   3.973  14.032  0.00  0.00    +0.000 A 
ATOM      3  C   UNL     1      36.252   5.121  13.496  0.00  0.00    +0.000 A 
ATOM      4  N   UNL     1      37.203   5.739  14.211  0.00  0.00    +0.000 NA
ATOM      5  C   UNL     1      37.626   5.317  15.418  0.00  0.00    +0.000 A 
ATOM      6  C   UNL     1      38.595   5.977  16.140  0.00  0.00    +0.000 A 
ATOM      7  C   UNL     1      38.987   5.508  17.383  0.00  0.00    +0.000 A 
ATOM      8  C   UNL     1      38.403   4.368  17.917  0.00  0.00    +0.000 A 
ATOM      9  C   UNL     1      37.441   3.746  17.155  0.00  0.00    +0.000 A 
ATOM     10  C   UNL     1      37.054   4.205  15.927  0.00  0.00    +0.000 A 
ENDROOT
BRANCH   3  11
ATOM     11  C   UNL     1      35.834   5.664  12.193  0.00  0.00    +0.000 A 
ATOM     12  C   UNL     1      34.867   6.624  12.046  0.00  0.00    +0.000 A 
ATOM     13  C   UNL     1      34.528   7.120  10.777  0.00  0.00    +0.000 A 
ATOM     14  C   UNL     1      35.170   6.645   9.628  0.00  0.00    +0.000 A 
ATOM     15  C   UNL     1      36.127   5.686   9.797  0.00  0.00    +0.000 A 
ATOM     16  C   UNL     1      36.462   5.198  11.045  0.00  0.00    +0.000 A 
BRANCH  14  17
ATOM     17  C   UNL     1      34.806   7.207   8.317  0.00  0.00    +0.000 C 
ATOM     18  C   UNL     1      33.546   6.558   7.808  0.00  0.00    +0.000 C 
ATOM     19  C   UNL     1      35.896   6.928   7.269  0.00  0.00    +0.000 C 
ATOM     20  C   UNL     1      34.632   8.720   8.471  0.00  0.00    +0.000 C 
ENDBRANCH  14  17
ENDBRANCH   3  11
BRANCH   1  22
ATOM     21  N   UNL     1      36.199   1.046  15.722  0.00  0.00    +0.000 NA
ATOM     22  C   UNL     1      35.531   2.281  15.887  0.00  0.00    +0.000 C 
ATOM     23  O   UNL     1      34.497   2.281  16.590  0.00  0.00    +0.000 OA
BRANCH  21  24
ATOM     24  N   UNL     1      35.861  -0.187  16.242  0.00  0.00    +0.000 NA
BRANCH  24  27
ATOM     25  C   UNL     1      35.716  -0.074  19.103  0.00  0.00    +0.000 C 
ATOM     26  C   UNL     1      36.775  -0.803  18.391  0.00  0.00    +0.000 C 
ATOM     27  C   UNL     1      36.833  -0.847  17.081  0.00  0.00    +0.000 C 
BRANCH  27  28
ATOM     28  C   UNL     1      37.982  -1.582  16.501  0.00  0.00    +0.000 A 
ATOM     29  C   UNL     1      38.635  -2.696  16.967  0.00  0.00    +0.000 A 
ATOM     30  C   UNL     1      39.625  -3.170  16.215  0.00  0.00    +0.000 A 
ATOM     31  C   UNL     1      39.923  -2.543  15.061  0.00  0.00    +0.000 A 
ATOM     32  S   UNL     1      38.799  -1.260  15.024  0.00  0.00    +0.000 S 
ENDBRANCH  27  28
ENDBRANCH  24  27
ENDBRANCH  21  24
ENDBRANCH   1  22
TORSDOF 6
ENDMDL
MODEL 7
REMARK VINA RESULT:      -7.8      2.874      4.999
REMARK  Name = 
REMARK  6 active torsions:
REMARK  status: ('A' for Active; 'I' for Inactive)
REMARK    1  A    between atoms: C_3  and  N_4
REMARK    2  A    between atoms: C_3  and  C_28
REMARK    3  A    between atoms: N_4  and  N_5
REMARK    4  A    between atoms: C_6  and  C_8
REMARK    5  A    between atoms: C_10  and  C_11
REMARK    6  A    between atoms: C_14  and  C_15
REMARK                            x       y       z     vdW  Elec       q    Type
REMARK                         _______ _______ _______ _____ _____    ______ ____
ROOT
ATOM      1  C   UNL     1      39.755   6.641  17.946  0.00  0.00    +0.000 A 
ATOM      2  C   UNL     1      41.010   6.323  18.374  0.00  0.00    +0.000 A 
ATOM      3  C   UNL     1      41.492   6.774  19.601  0.00  0.00    +0.000 A 
ATOM      4  N   UNL     1      40.683   7.531  20.357  0.00  0.00    +0.000 NA
ATOM      5  C   UNL     1      39.434   7.884  19.996  0.00  0.00    +0.000 A 
ATOM      6  C   UNL     1      38.628   8.675  20.782  0.00  0.00    +0.000 A 
ATOM      7  C   UNL     1      37.353   9.019  20.360  0.00  0.00    +0.000 A 
ATOM      8  C   UNL     1      36.878   8.572  19.136  0.00  0.00    +0.000 A 
ATOM      9  C   UNL     1      37.724   7.784  18.389  0.00  0.00    +0.000 A 
ATOM     10  C   UNL     1      38.980   7.442  18.804  0.00  0.00    +0.000 A 
ENDROOT
BRANCH   3  11
ATOM     11  C   UNL     1      42.852   6.454  20.064  0.00  0.00    +0.000 A 
ATOM     12  C   UNL     1      43.122   5.828  21.253  0.00  0.00    +0.000 A 
ATOM     13  C   UNL     1      44.440   5.527  21.629  0.00  0.00    +0.000 A 
ATOM     14  C   UNL     1      45.516   5.861  20.798  0.00  0.00    +0.000 A 
ATOM     15  C   UNL     1      45.225   6.488  19.620  0.00  0.00    +0.000 A 
ATOM     16  C   UNL     1      43.928   6.782  19.248  0.00  0.00    +0.000 A 
BRANCH  14  17
ATOM     17  C   UNL     1      46.882   5.506  21.214  0.00  0.00    +0.000 C 
ATOM     18  C   UNL     1      47.506   4.579  20.206  0.00  0.00    +0.000 C 
ATOM     19  C   UNL     1      46.879   4.755  22.556  0.00  0.00    +0.000 C 
ATOM     20  C   UNL     1      47.693   6.796  21.363  0.00  0.00    +0.000 C 
ENDBRANCH  14  17
ENDBRANCH   3  11
BRANCH   1  22
ATOM     21  N   UNL     1      38.279   5.076  16.687  0.00  0.00    +0.000 NA
ATOM     22  C   UNL     1      39.142   6.196  16.696  0.00  0.00    +0.000 C 
ATOM     23  O   UNL     1      39.346   6.768  15.603  0.00  0.00    +0.000 OA
BRANCH  21  24
ATOM     24  N   UNL     1      37.614   4.516  15.614  0.00  0.00    +0.000 NA
BRANCH  24  27
ATOM     25  C   UNL     1      39.824   3.444  14.137  0.00  0.00    +0.000 C 
ATOM     26  C   UNL     1      38.778   2.596  14.725  0.00  0.00    +0.000 C 
ATOM     27  C   UNL     1      37.770   3.096  15.399  0.00  0.00    +0.000 C 
BRANCH  27  28
ATOM     28  C   UNL     1      36.768   2.125  15.896  0.00  0.00    +0.000 A 
ATOM     29  C   UNL     1      35.596   2.346  16.577  0.00  0.00    +0.000 A 
ATOM     30  C   UNL     1      34.863   1.276  16.874  0.00  0.00    +0.000 A 
ATOM     31  C   UNL     1      35.302   0.060  16.494  0.00  0.00    +0.000 A 
ATOM     32  S   UNL     1      36.774   0.416  15.708  0.00  0.00    +0.000 S 
ENDBRANCH  27  28
ENDBRANCH  24  27
ENDBRANCH  21  24
ENDBRANCH   1  22
TORSDOF 6
ENDMDL
MODEL 8
REMARK VINA RESULT:      -7.7      3.624      9.110
REMARK  Name = 
REMARK  6 active torsions:
REMARK  status: ('A' for Active; 'I' for Inactive)
REMARK    1  A    between atoms: C_3  and  N_4
REMARK    2  A    between atoms: C_3  and  C_28
REMARK    3  A    between atoms: N_4  and  N_5
REMARK    4  A    between atoms: C_6  and  C_8
REMARK    5  A    between atoms: C_10  and  C_11
REMARK    6  A    between atoms: C_14  and  C_15
REMARK                            x       y       z     vdW  Elec       q    Type
REMARK                         _______ _______ _______ _____ _____    ______ ____
ROOT
ATOM      1  C   UNL     1      36.686   0.769  15.206  0.00  0.00    +0.000 A 
ATOM      2  C   UNL     1      37.509   0.482  14.158  0.00  0.00    +0.000 A 
ATOM      3  C   UNL     1      37.613  -0.813  13.652  0.00  0.00    +0.000 A 
ATOM      4  N   UNL     1      36.874  -1.774  14.225  0.00  0.00    +0.000 NA
ATOM      5  C   UNL     1      36.041  -1.561  15.263  0.00  0.00    +0.000 A 
ATOM      6  C   UNL     1      35.304  -2.568  15.843  0.00  0.00    +0.000 A 
ATOM      7  C   UNL     1      34.470  -2.299  16.917  0.00  0.00    +0.000 A 
ATOM      8  C   UNL     1      34.373  -1.010  17.421  0.00  0.00    +0.000 A 
ATOM      9  C   UNL     1      35.130  -0.041  16.804  0.00  0.00    +0.000 A 
ATOM     10  C   UNL     1      35.952  -0.303  15.744  0.00  0.00    +0.000 A 
ENDROOT
BRANCH   3  11
ATOM     11  C   UNL     1      38.514  -1.138  12.535  0.00  0.00    +0.000 A 
ATOM     12  C   UNL     1      38.857  -0.245  11.553  0.00  0.00    +0.000 A 
ATOM     13  C   UNL     1      39.741  -0.606  10.525  0.00  0.00    +0.000 A 
ATOM     14  C   UNL     1      40.295  -1.891  10.474  0.00  0.00    +0.000 A 
ATOM     15  C   UNL     1      39.936  -2.765  11.460  0.00  0.00    +0.000 A 
ATOM     16  C   UNL     1      39.067  -2.410  12.473  0.00  0.00    +0.000 A 
BRANCH  14  17
ATOM     17  C   UNL     1      41.238  -2.225   9.395  0.00  0.00    +0.000 C 
ATOM     18  C   UNL     1      40.748  -1.661   8.088  0.00  0.00    +0.000 C 
ATOM     19  C   UNL     1      41.346  -3.747   9.201  0.00  0.00    +0.000 C 
ATOM     20  C   UNL     1      42.614  -1.667   9.764  0.00  0.00    +0.000 C 
ENDBRANCH  14  17
ENDBRANCH   3  11
BRANCH   1  22
ATOM     21  N   UNL     1      37.469   2.667  16.621  0.00  0.00    +0.000 NA
ATOM     22  C   UNL     1      36.479   2.093  15.791  0.00  0.00    +0.000 C 
ATOM     23  O   UNL     1      35.443   2.764  15.592  0.00  0.00    +0.000 OA
BRANCH  21  24
ATOM     24  N   UNL     1      37.451   3.893  17.254  0.00  0.00    +0.000 NA
BRANCH  24  27
ATOM     25  C   UNL     1      39.176   5.555  18.829  0.00  0.00    +0.000 C 
ATOM     26  C   UNL     1      39.017   5.727  17.378  0.00  0.00    +0.000 C 
ATOM     27  C   UNL     1      38.224   4.961  16.666  0.00  0.00    +0.000 C 
BRANCH  27  28
ATOM     28  C   UNL     1      38.130   5.278  15.222  0.00  0.00    +0.000 A 
ATOM     29  C   UNL     1      39.010   5.004  14.206  0.00  0.00    +0.000 A 
ATOM     30  C   UNL     1      38.650   5.380  12.981  0.00  0.00    +0.000 A 
ATOM     31  C   UNL     1      37.463   5.994  12.812  0.00  0.00    +0.000 A 
ATOM     32  S   UNL     1      36.836   6.054  14.397  0.00  0.00    +0.000 S 
ENDBRANCH  27  28
ENDBRANCH  24  27
ENDBRANCH  21  24
ENDBRANCH   1  22
TORSDOF 6
ENDMDL
MODEL 9
REMARK VINA RESULT:      -7.7      3.486      8.948
REMARK  Name = 
REMARK  6 active torsions:
REMARK  status: ('A' for Active; 'I' for Inactive)
REMARK    1  A    between atoms: C_3  and  N_4
REMARK    2  A    between atoms: C_3  and  C_28
REMARK    3  A    between atoms: N_4  and  N_5
REMARK    4  A    between atoms: C_6  and  C_8
REMARK    5  A    between atoms: C_10  and  C_11
REMARK    6  A    between atoms: C_14  and  C_15
REMARK                            x       y       z     vdW  Elec       q    Type
REMARK                         _______ _______ _______ _____ _____    ______ ____
ROOT
ATOM      1  C   UNL     1      37.503   5.749  15.333  0.00  0.00    +0.000 A 
ATOM      2  C   UNL     1      37.286   4.442  15.655  0.00  0.00    +0.000 A 
ATOM      3  C   UNL     1      36.191   3.744  15.150  0.00  0.00    +0.000 A 
ATOM      4  N   UNL     1      35.352   4.395  14.331  0.00  0.00    +0.000 NA
ATOM      5  C   UNL     1      35.505   5.684  13.971  0.00  0.00    +0.000 A 
ATOM      6  C   UNL     1      34.622   6.335  13.139  0.00  0.00    +0.000 A 
ATOM      7  C   UNL     1      34.819   7.666  12.809  0.00  0.00    +0.000 A 
ATOM      8  C   UNL     1      35.908   8.360  13.317  0.00  0.00    +0.000 A 
ATOM      9  C   UNL     1      36.760   7.663  14.143  0.00  0.00    +0.000 A 
ATOM     10  C   UNL     1      36.569   6.349  14.469  0.00  0.00    +0.000 A 
ENDROOT
BRANCH   3  11
ATOM     11  C   UNL     1      35.936   2.340  15.509  0.00  0.00    +0.000 A 
ATOM     12  C   UNL     1      36.516   1.276  14.867  0.00  0.00    +0.000 A 
ATOM     13  C   UNL     1      36.252  -0.042  15.270  0.00  0.00    +0.000 A 
ATOM     14  C   UNL     1      35.387  -0.305  16.339  0.00  0.00    +0.000 A 
ATOM     15  C   UNL     1      34.818   0.769  16.962  0.00  0.00    +0.000 A 
ATOM     16  C   UNL     1      35.079   2.067  16.566  0.00  0.00    +0.000 A 
BRANCH  14  17
ATOM     17  C   UNL     1      35.155  -1.699  16.749  0.00  0.00    +0.000 C 
ATOM     18  C   UNL     1      36.198  -2.125  17.747  0.00  0.00    +0.000 C 
ATOM     19  C   UNL     1      35.276  -2.659  15.554  0.00  0.00    +0.000 C 
ATOM     20  C   UNL     1      33.745  -1.803  17.336  0.00  0.00    +0.000 C 
ENDBRANCH  14  17
ENDBRANCH   3  11
BRANCH   1  22
ATOM     21  N   UNL     1      38.594   7.205  17.038  0.00  0.00    +0.000 NA
ATOM     22  C   UNL     1      38.633   6.562  15.780  0.00  0.00    +0.000 C 
ATOM     23  O   UNL     1      39.662   6.726  15.088  0.00  0.00    +0.000 OA
BRANCH  21  24
ATOM     24  N   UNL     1      39.556   8.004  17.623  0.00  0.00    +0.000 NA
BRANCH  24  27
ATOM     25  C   UNL     1      40.232   6.027  19.586  0.00  0.00    +0.000 C 
ATOM     26  C   UNL     1      39.747   7.367  19.944  0.00  0.00    +0.000 C 
ATOM     27  C   UNL     1      39.439   8.264  19.038  0.00  0.00    +0.000 C 
BRANCH  27  28
ATOM     28  C   UNL     1      38.920   9.556  19.545  0.00  0.00    +0.000 A 
ATOM     29  C   UNL     1      38.988  10.093  20.807  0.00  0.00    +0.000 A 
ATOM     30  C   UNL     1      38.460  11.303  20.973  0.00  0.00    +0.000 A 
ATOM     31  C   UNL     1      37.901  11.921  19.915  0.00  0.00    +0.000 A 
ATOM     32  S   UNL     1      38.113  10.788  18.658  0.00  0.00    +0.000 S 
ENDBRANCH  27  28
ENDBRANCH  24  27
ENDBRANCH  21  24
ENDBRANCH   1  22
TORSDOF 6
ENDMDL
MODEL 10
REMARK VINA RESULT:      -7.7      4.641      6.688
REMARK  Name = 
REMARK  6 active torsions:
REMARK  status: ('A' for Active; 'I' for Inactive)
REMARK    1  A    between atoms: C_3  and  N_4
REMARK    2  A    between atoms: C_3  and  C_28
REMARK    3  A    between atoms: N_4  and  N_5
REMARK    4  A    between atoms: C_6  and  C_8
REMARK    5  A    between atoms: C_10  and  C_11
REMARK    6  A    between atoms: C_14  and  C_15
REMARK                            x       y       z     vdW  Elec       q    Type
REMARK                         _______ _______ _______ _____ _____    ______ ____
ROOT
ATOM      1  C   UNL     1      37.564   1.949  14.654  0.00  0.00    +0.000 A 
ATOM      2  C   UNL     1      37.282   3.234  14.295  0.00  0.00    +0.000 A 
ATOM      3  C   UNL     1      36.147   3.886  14.772  0.00  0.00    +0.000 A 
ATOM      4  N   UNL     1      35.335   3.214  15.602  0.00  0.00    +0.000 NA
ATOM      5  C   UNL     1      35.552   1.944  15.996  0.00  0.00    +0.000 A 
ATOM      6  C   UNL     1      34.696   1.270  16.837  0.00  0.00    +0.000 A 
ATOM      7  C   UNL     1      34.959  -0.040  17.205  0.00  0.00    +0.000 A 
ATOM      8  C   UNL     1      36.088  -0.689  16.724  0.00  0.00    +0.000 A 
ATOM      9  C   UNL     1      36.910   0.030  15.887  0.00  0.00    +0.000 A 
ATOM     10  C   UNL     1      36.654   1.323  15.525  0.00  0.00    +0.000 A 
ENDROOT
BRANCH   3  11
ATOM     11  C   UNL     1      35.822   5.265  14.375  0.00  0.00    +0.000 A 
ATOM     12  C   UNL     1      34.584   5.657  13.936  0.00  0.00    +0.000 A 
ATOM     13  C   UNL     1      34.329   6.994  13.593  0.00  0.00    +0.000 A 
ATOM     14  C   UNL     1      35.333   7.963  13.691  0.00  0.00    +0.000 A 
ATOM     15  C   UNL     1      36.560   7.551  14.128  0.00  0.00    +0.000 A 
ATOM     16  C   UNL     1      36.812   6.235  14.466  0.00  0.00    +0.000 A 
BRANCH  14  17
ATOM     17  C   UNL     1      35.021   9.359  13.347  0.00  0.00    +0.000 C 
ATOM     18  C   UNL     1      34.426   9.431  11.966  0.00  0.00    +0.000 C 
ATOM     19  C   UNL     1      36.292  10.225  13.322  0.00  0.00    +0.000 C 
ATOM     20  C   UNL     1      34.057   9.913  14.400  0.00  0.00    +0.000 C 
ENDBRANCH  14  17
ENDBRANCH   3  11
BRANCH   1  22
ATOM     21  N   UNL     1      38.719   0.448  13.032  0.00  0.00    +0.000 NA
ATOM     22  C   UNL     1      38.739   1.185  14.238  0.00  0.00    +0.000 C 
ATOM     23  O   UNL     1      39.792   1.146  14.913  0.00  0.00    +0.000 OA
BRANCH  21  24
ATOM     24  N   UNL     1      39.723  -0.324  12.483  0.00  0.00    +0.000 NA
BRANCH  24  27
ATOM     25  C   UNL     1      40.348  -2.013  10.252  0.00  0.00    +0.000 C 
ATOM     26  C   UNL     1      39.859  -2.540  11.534  0.00  0.00    +0.000 C 
ATOM     27  C   UNL     1      39.575  -1.759  12.549  0.00  0.00    +0.000 C 
BRANCH  27  28
ATOM     28  C   UNL     1      39.050  -2.426  13.763  0.00  0.00    +0.000 A 
ATOM     29  C   UNL     1      39.592  -2.508  15.021  0.00  0.00    +0.000 A 
ATOM     30  C   UNL     1      38.877  -3.150  15.942  0.00  0.00    +0.000 A 
ATOM     31  C   UNL     1      37.684  -3.670  15.594  0.00  0.00    +0.000 A 
ATOM     32  S   UNL     1      37.556  -3.259  13.944  0.00  0.00    +0.000 S 
ENDBRANCH  27  28
ENDBRANCH  24  27
ENDBRANCH  21  24
ENDBRANCH   1  22
TORSDOF 6
ENDMDL
