MODEL 1
REMARK VINA RESULT:      -6.6      0.000      0.000
REMARK  Name = 
REMARK  4 active torsions:
REMARK  status: ('A' for Active; 'I' for Inactive)
REMARK    1  A    between atoms: O_2  and  C_3
REMARK    2  A    between atoms: C_6  and  C_7
REMARK    3  A    between atoms: C_12  and  C_13
REMARK    4  A    between atoms: C_16  and  O_17
REMARK                            x       y       z     vdW  Elec       q    Type
REMARK                         _______ _______ _______ _____ _____    ______ ____
ROOT
ATOM      1  C   UNL     1      28.234  23.613  23.566  0.00  0.00    +0.000 A 
ATOM      2  N   UNL     1      27.810  23.624  22.286  0.00  0.00    +0.000 NA
ATOM      3  C   UNL     1      26.499  23.313  22.289  0.00  0.00    +0.000 A 
ATOM      4  N   UNL     1      25.664  23.216  21.127  0.00  0.00    +0.000 NA
ATOM      5  O   UNL     1      26.101  23.112  23.516  0.00  0.00    +0.000 OA
ATOM      6  C   UNL     1      27.129  23.284  24.324  0.00  0.00    +0.000 A 
ENDROOT
BRANCH   1  10
ATOM      7  C   UNL     1      32.193  24.394  25.016  0.00  0.00    +0.000 A 
ATOM      8  C   UNL     1      31.795  23.119  24.691  0.00  0.00    +0.000 A 
ATOM      9  C   UNL     1      30.505  22.870  24.219  0.00  0.00    +0.000 A 
ATOM     10  C   UNL     1      29.590  23.890  24.064  0.00  0.00    +0.000 A 
ATOM     11  C   UNL     1      29.988  25.169  24.391  0.00  0.00    +0.000 A 
ATOM     12  C   UNL     1      31.277  25.410  24.861  0.00  0.00    +0.000 A 
BRANCH   7  14
ATOM     13  C   UNL     1      34.595  24.758  24.640  0.00  0.00    +0.000 C 
ATOM     14  O   UNL     1      33.485  24.597  25.482  0.00  0.00    +0.000 OA
ENDBRANCH   7  14
ENDBRANCH   1  10
BRANCH   6  15
ATOM     15  C   UNL     1      27.089  23.148  25.778  0.00  0.00    +0.000 A 
ATOM     16  C   UNL     1      26.159  23.906  26.448  0.00  0.00    +0.000 A 
ATOM     17  C   UNL     1      26.013  23.876  27.809  0.00  0.00    +0.000 A 
ATOM     18  C   UNL     1      26.854  23.034  28.511  0.00  0.00    +0.000 A 
ATOM     19  C   UNL     1      27.791  22.268  27.853  0.00  0.00    +0.000 A 
ATOM     20  C   UNL     1      27.926  22.310  26.482  0.00  0.00    +0.000 A 
BRANCH  18  21
ATOM     21  O   UNL     1      26.765  22.947  29.910  0.00  0.00    +0.000 OA
ATOM     22  C   UNL     1      26.460  21.696  30.498  0.00  0.00    +0.000 C 
ENDBRANCH  18  21
ENDBRANCH   6  15
TORSDOF 4
ENDMDL
MODEL 2
REMARK VINA RESULT:      -6.5      2.100      5.850
REMARK  Name = 
REMARK  4 active torsions:
REMARK  status: ('A' for Active; 'I' for Inactive)
REMARK    1  A    between atoms: O_2  and  C_3
REMARK    2  A    between atoms: C_6  and  C_7
REMARK    3  A    between atoms: C_12  and  C_13
REMARK    4  A    between atoms: C_16  and  O_17
REMARK                            x       y       z     vdW  Elec       q    Type
REMARK                         _______ _______ _______ _____ _____    ______ ____
ROOT
ATOM      1  C   UNL     1      26.270  23.546  25.836  0.00  0.00    +0.000 A 
ATOM      2  N   UNL     1      25.322  23.338  24.900  0.00  0.00    +0.000 NA
ATOM      3  C   UNL     1      25.950  23.054  23.742  0.00  0.00    +0.000 A 
ATOM      4  N   UNL     1      25.305  22.767  22.494  0.00  0.00    +0.000 NA
ATOM      5  O   UNL     1      27.242  23.079  23.929  0.00  0.00    +0.000 OA
ATOM      6  C   UNL     1      27.478  23.376  25.191  0.00  0.00    +0.000 A 
ENDROOT
BRANCH   1  10
ATOM      7  C   UNL     1      25.679  24.559  29.960  0.00  0.00    +0.000 A 
ATOM      8  C   UNL     1      25.245  25.391  28.956  0.00  0.00    +0.000 A 
ATOM      9  C   UNL     1      25.440  25.057  27.615  0.00  0.00    +0.000 A 
ATOM     10  C   UNL     1      26.072  23.886  27.253  0.00  0.00    +0.000 A 
ATOM     11  C   UNL     1      26.508  23.050  28.260  0.00  0.00    +0.000 A 
ATOM     12  C   UNL     1      26.309  23.391  29.597  0.00  0.00    +0.000 A 
BRANCH   7  14
ATOM     13  C   UNL     1      24.731  26.066  31.657  0.00  0.00    +0.000 C 
ATOM     14  O   UNL     1      25.465  24.930  31.282  0.00  0.00    +0.000 OA
ENDBRANCH   7  14
ENDBRANCH   1  10
BRANCH   6  15
ATOM     15  C   UNL     1      28.804  23.500  25.794  0.00  0.00    +0.000 A 
ATOM     16  C   UNL     1      29.423  22.335  26.176  0.00  0.00    +0.000 A 
ATOM     17  C   UNL     1      30.665  22.305  26.752  0.00  0.00    +0.000 A 
ATOM     18  C   UNL     1      31.296  23.519  26.943  0.00  0.00    +0.000 A 
ATOM     19  C   UNL     1      30.687  24.695  26.565  0.00  0.00    +0.000 A 
ATOM     20  C   UNL     1      29.436  24.709  25.987  0.00  0.00    +0.000 A 
BRANCH  18  21
ATOM     21  O   UNL     1      32.572  23.571  27.528  0.00  0.00    +0.000 OA
ATOM     22  C   UNL     1      33.474  24.579  27.109  0.00  0.00    +0.000 C 
ENDBRANCH  18  21
ENDBRANCH   6  15
TORSDOF 4
ENDMDL
MODEL 3
REMARK VINA RESULT:      -6.4     18.433     21.038
REMARK  Name = 
REMARK  4 active torsions:
REMARK  status: ('A' for Active; 'I' for Inactive)
REMARK    1  A    between atoms: O_2  and  C_3
REMARK    2  A    between atoms: C_6  and  C_7
REMARK    3  A    between atoms: C_12  and  C_13
REMARK    4  A    between atoms: C_16  and  O_17
REMARK                            x       y       z     vdW  Elec       q    Type
REMARK                         _______ _______ _______ _____ _____    ______ ____
ROOT
ATOM      1  C   UNL     1      17.502  10.170  38.492  0.00  0.00    +0.000 A 
ATOM      2  N   UNL     1      16.603   9.768  39.412  0.00  0.00    +0.000 NA
ATOM      3  C   UNL     1      17.267   9.558  40.566  0.00  0.00    +0.000 A 
ATOM      4  N   UNL     1      16.678   9.121  41.798  0.00  0.00    +0.000 NA
ATOM      5  O   UNL     1      18.535   9.814  40.392  0.00  0.00    +0.000 OA
ATOM      6  C   UNL     1      18.720  10.189  39.142  0.00  0.00    +0.000 A 
ENDROOT
BRANCH   1  10
ATOM      7  C   UNL     1      16.767  11.208  34.398  0.00  0.00    +0.000 A 
ATOM      8  C   UNL     1      16.567  12.119  35.408  0.00  0.00    +0.000 A 
ATOM      9  C   UNL     1      16.809  11.776  36.739  0.00  0.00    +0.000 A 
ATOM     10  C   UNL     1      17.252  10.517  37.085  0.00  0.00    +0.000 A 
ATOM     11  C   UNL     1      17.452   9.602  36.073  0.00  0.00    +0.000 A 
ATOM     12  C   UNL     1      17.209   9.952  34.746  0.00  0.00    +0.000 A 
BRANCH   7  14
ATOM     13  C   UNL     1      16.212  10.683  32.060  0.00  0.00    +0.000 C 
ATOM     14  O   UNL     1      16.515  11.591  33.086  0.00  0.00    +0.000 OA
ENDBRANCH   7  14
ENDBRANCH   1  10
BRANCH   6  15
ATOM     15  C   UNL     1      20.005  10.562  38.555  0.00  0.00    +0.000 A 
ATOM     16  C   UNL     1      20.724   9.560  37.948  0.00  0.00    +0.000 A 
ATOM     17  C   UNL     1      21.942   9.769  37.359  0.00  0.00    +0.000 A 
ATOM     18  C   UNL     1      22.443  11.056  37.394  0.00  0.00    +0.000 A 
ATOM     19  C   UNL     1      21.734  12.070  38.000  0.00  0.00    +0.000 A 
ATOM     20  C   UNL     1      20.509  11.844  38.590  0.00  0.00    +0.000 A 
BRANCH  18  21
ATOM     21  O   UNL     1      23.686  11.351  36.811  0.00  0.00    +0.000 OA
ATOM     22  C   UNL     1      24.371  10.329  36.110  0.00  0.00    +0.000 C 
ENDBRANCH  18  21
ENDBRANCH   6  15
TORSDOF 4
ENDMDL
MODEL 4
REMARK VINA RESULT:      -6.4      2.051      2.550
REMARK  Name = 
REMARK  4 active torsions:
REMARK  status: ('A' for Active; 'I' for Inactive)
REMARK    1  A    between atoms: O_2  and  C_3
REMARK    2  A    between atoms: C_6  and  C_7
REMARK    3  A    between atoms: C_12  and  C_13
REMARK    4  A    between atoms: C_16  and  O_17
REMARK                            x       y       z     vdW  Elec       q    Type
REMARK                         _______ _______ _______ _____ _____    ______ ____
ROOT
ATOM      1  C   UNL     1      27.695  23.373  25.193  0.00  0.00    +0.000 A 
ATOM      2  N   UNL     1      27.419  23.120  23.898  0.00  0.00    +0.000 NA
ATOM      3  C   UNL     1      26.079  23.078  23.769  0.00  0.00    +0.000 A 
ATOM      4  N   UNL     1      25.367  22.833  22.548  0.00  0.00    +0.000 NA
ATOM      5  O   UNL     1      25.521  23.294  24.929  0.00  0.00    +0.000 OA
ATOM      6  C   UNL     1      26.472  23.478  25.823  0.00  0.00    +0.000 A 
ENDROOT
BRANCH   1  10
ATOM      7  C   UNL     1      31.555  23.798  27.012  0.00  0.00    +0.000 A 
ATOM      8  C   UNL     1      30.835  24.898  26.608  0.00  0.00    +0.000 A 
ATOM      9  C   UNL     1      29.579  24.754  26.016  0.00  0.00    +0.000 A 
ATOM     10  C   UNL     1      29.020  23.510  25.817  0.00  0.00    +0.000 A 
ATOM     11  C   UNL     1      29.741  22.405  26.222  0.00  0.00    +0.000 A 
ATOM     12  C   UNL     1      30.994  22.557  26.811  0.00  0.00    +0.000 A 
BRANCH   7  14
ATOM     13  C   UNL     1      33.134  23.517  28.875  0.00  0.00    +0.000 C 
ATOM     14  O   UNL     1      32.801  23.986  27.596  0.00  0.00    +0.000 OA
ENDBRANCH   7  14
ENDBRANCH   1  10
BRANCH   6  15
ATOM     15  C   UNL     1      26.253  23.748  27.243  0.00  0.00    +0.000 A 
ATOM     16  C   UNL     1      25.571  24.899  27.557  0.00  0.00    +0.000 A 
ATOM     17  C   UNL     1      25.296  25.273  28.846  0.00  0.00    +0.000 A 
ATOM     18  C   UNL     1      25.739  24.435  29.850  0.00  0.00    +0.000 A 
ATOM     19  C   UNL     1      26.425  23.279  29.549  0.00  0.00    +0.000 A 
ATOM     20  C   UNL     1      26.694  22.915  28.247  0.00  0.00    +0.000 A 
BRANCH  18  21
ATOM     21  O   UNL     1      25.496  24.750  31.197  0.00  0.00    +0.000 OA
ATOM     22  C   UNL     1      25.064  26.058  31.525  0.00  0.00    +0.000 C 
ENDBRANCH  18  21
ENDBRANCH   6  15
TORSDOF 4
ENDMDL
MODEL 5
REMARK VINA RESULT:      -6.4      0.820      5.371
REMARK  Name = 
REMARK  4 active torsions:
REMARK  status: ('A' for Active; 'I' for Inactive)
REMARK    1  A    between atoms: O_2  and  C_3
REMARK    2  A    between atoms: C_6  and  C_7
REMARK    3  A    between atoms: C_12  and  C_13
REMARK    4  A    between atoms: C_16  and  O_17
REMARK                            x       y       z     vdW  Elec       q    Type
REMARK                         _______ _______ _______ _____ _____    ______ ____
ROOT
ATOM      1  C   UNL     1      27.076  23.248  24.449  0.00  0.00    +0.000 A 
ATOM      2  N   UNL     1      26.026  23.136  23.611  0.00  0.00    +0.000 NA
ATOM      3  C   UNL     1      26.486  23.310  22.357  0.00  0.00    +0.000 A 
ATOM      4  N   UNL     1      25.690  23.268  21.164  0.00  0.00    +0.000 NA
ATOM      5  O   UNL     1      27.774  23.525  22.391  0.00  0.00    +0.000 OA
ATOM      6  C   UNL     1      28.171  23.496  23.647  0.00  0.00    +0.000 A 
ENDROOT
BRANCH   1  10
ATOM      7  C   UNL     1      27.078  22.900  28.723  0.00  0.00    +0.000 A 
ATOM      8  C   UNL     1      27.983  22.208  27.954  0.00  0.00    +0.000 A 
ATOM      9  C   UNL     1      27.978  22.325  26.563  0.00  0.00    +0.000 A 
ATOM     10  C   UNL     1      27.069  23.135  25.916  0.00  0.00    +0.000 A 
ATOM     11  C   UNL     1      26.160  23.829  26.686  0.00  0.00    +0.000 A 
ATOM     12  C   UNL     1      26.171  23.707  28.074  0.00  0.00    +0.000 A 
BRANCH   7  14
ATOM     13  C   UNL     1      28.309  22.645  30.836  0.00  0.00    +0.000 C 
ATOM     14  O   UNL     1      27.117  22.755  30.104  0.00  0.00    +0.000 OA
ENDBRANCH   7  14
ENDBRANCH   1  10
BRANCH   6  15
ATOM     15  C   UNL     1      29.546  23.694  24.100  0.00  0.00    +0.000 A 
ATOM     16  C   UNL     1      29.946  24.989  24.323  0.00  0.00    +0.000 A 
ATOM     17  C   UNL     1      31.205  25.318  24.749  0.00  0.00    +0.000 A 
ATOM     18  C   UNL     1      32.089  24.276  24.955  0.00  0.00    +0.000 A 
ATOM     19  C   UNL     1      31.701  22.973  24.735  0.00  0.00    +0.000 A 
ATOM     20  C   UNL     1      30.430  22.657  24.306  0.00  0.00    +0.000 A 
BRANCH  18  21
ATOM     21  O   UNL     1      33.399  24.532  25.392  0.00  0.00    +0.000 OA
ATOM     22  C   UNL     1      34.419  24.708  24.427  0.00  0.00    +0.000 C 
ENDBRANCH  18  21
ENDBRANCH   6  15
TORSDOF 4
ENDMDL
MODEL 6
REMARK VINA RESULT:      -6.1     19.894     22.664
REMARK  Name = 
REMARK  4 active torsions:
REMARK  status: ('A' for Active; 'I' for Inactive)
REMARK    1  A    between atoms: O_2  and  C_3
REMARK    2  A    between atoms: C_6  and  C_7
REMARK    3  A    between atoms: C_12  and  C_13
REMARK    4  A    between atoms: C_16  and  O_17
REMARK                            x       y       z     vdW  Elec       q    Type
REMARK                         _______ _______ _______ _____ _____    ______ ____
ROOT
ATOM      1  C   UNL     1      20.112   9.268  39.057  0.00  0.00    +0.000 A 
ATOM      2  N   UNL     1      21.420   9.098  39.335  0.00  0.00    +0.000 NA
ATOM      3  C   UNL     1      22.125   9.653  38.329  0.00  0.00    +0.000 A 
ATOM      4  N   UNL     1      23.556   9.688  38.235  0.00  0.00    +0.000 NA
ATOM      5  O   UNL     1      21.304  10.156  37.447  0.00  0.00    +0.000 OA
ATOM      6  C   UNL     1      20.069   9.942  37.854  0.00  0.00    +0.000 A 
ENDROOT
BRANCH   1  10
ATOM      7  C   UNL     1      16.750   8.020  41.407  0.00  0.00    +0.000 A 
ATOM      8  C   UNL     1      17.132   9.340  41.359  0.00  0.00    +0.000 A 
ATOM      9  C   UNL     1      18.227   9.741  40.592  0.00  0.00    +0.000 A 
ATOM     10  C   UNL     1      18.960   8.831  39.861  0.00  0.00    +0.000 A 
ATOM     11  C   UNL     1      18.579   7.507  39.908  0.00  0.00    +0.000 A 
ATOM     12  C   UNL     1      17.484   7.114  40.676  0.00  0.00    +0.000 A 
BRANCH   7  14
ATOM     13  C   UNL     1      15.750   7.290  43.532  0.00  0.00    +0.000 C 
ATOM     14  O   UNL     1      15.654   7.664  42.183  0.00  0.00    +0.000 OA
ENDBRANCH   7  14
ENDBRANCH   1  10
BRANCH   6  15
ATOM     15  C   UNL     1      18.863  10.356  37.139  0.00  0.00    +0.000 A 
ATOM     16  C   UNL     1      18.422   9.528  36.135  0.00  0.00    +0.000 A 
ATOM     17  C   UNL     1      17.306   9.794  35.386  0.00  0.00    +0.000 A 
ATOM     18  C   UNL     1      16.618  10.955  35.678  0.00  0.00    +0.000 A 
ATOM     19  C   UNL     1      17.050  11.795  36.681  0.00  0.00    +0.000 A 
ATOM     20  C   UNL     1      18.174  11.514  37.426  0.00  0.00    +0.000 A 
BRANCH  18  21
ATOM     21  O   UNL     1      15.464  11.298  34.954  0.00  0.00    +0.000 OA
ATOM     22  C   UNL     1      15.562  11.463  33.551  0.00  0.00    +0.000 C 
ENDBRANCH  18  21
ENDBRANCH   6  15
TORSDOF 4
ENDMDL
MODEL 7
REMARK VINA RESULT:      -6.1      2.519      5.280
REMARK  Name = 
REMARK  4 active torsions:
REMARK  status: ('A' for Active; 'I' for Inactive)
REMARK    1  A    between atoms: O_2  and  C_3
REMARK    2  A    between atoms: C_6  and  C_7
REMARK    3  A    between atoms: C_12  and  C_13
REMARK    4  A    between atoms: C_16  and  O_17
REMARK                            x       y       z     vdW  Elec       q    Type
REMARK                         _______ _______ _______ _____ _____    ______ ____
ROOT
ATOM      1  C   UNL     1      28.414  24.500  24.138  0.00  0.00    +0.000 A 
ATOM      2  N   UNL     1      28.259  24.821  22.838  0.00  0.00    +0.000 NA
ATOM      3  C   UNL     1      29.374  24.436  22.188  0.00  0.00    +0.000 A 
ATOM      4  N   UNL     1      29.616  24.594  20.783  0.00  0.00    +0.000 NA
ATOM      5  O   UNL     1      30.207  23.892  23.034  0.00  0.00    +0.000 OA
ATOM      6  C   UNL     1      29.660  23.912  24.233  0.00  0.00    +0.000 A 
ENDROOT
BRANCH   1  10
ATOM      7  C   UNL     1      25.653  25.179  27.347  0.00  0.00    +0.000 A 
ATOM      8  C   UNL     1      26.594  26.122  27.009  0.00  0.00    +0.000 A 
ATOM      9  C   UNL     1      27.491  25.896  25.963  0.00  0.00    +0.000 A 
ATOM     10  C   UNL     1      27.464  24.725  25.237  0.00  0.00    +0.000 A 
ATOM     11  C   UNL     1      26.520  23.777  25.576  0.00  0.00    +0.000 A 
ATOM     12  C   UNL     1      25.628  24.011  26.621  0.00  0.00    +0.000 A 
BRANCH   7  14
ATOM     13  C   UNL     1      25.174  25.475  29.741  0.00  0.00    +0.000 C 
ATOM     14  O   UNL     1      24.780  25.445  28.394  0.00  0.00    +0.000 OA
ENDBRANCH   7  14
ENDBRANCH   1  10
BRANCH   6  15
ATOM     15  C   UNL     1      30.280  23.395  25.451  0.00  0.00    +0.000 A 
ATOM     16  C   UNL     1      31.324  24.120  25.971  0.00  0.00    +0.000 A 
ATOM     17  C   UNL     1      31.995  23.751  27.107  0.00  0.00    +0.000 A 
ATOM     18  C   UNL     1      31.578  22.592  27.733  0.00  0.00    +0.000 A 
ATOM     19  C   UNL     1      30.532  21.855  27.221  0.00  0.00    +0.000 A 
ATOM     20  C   UNL     1      29.866  22.239  26.077  0.00  0.00    +0.000 A 
BRANCH  18  21
ATOM     21  O   UNL     1      32.215  22.147  28.902  0.00  0.00    +0.000 OA
ATOM     22  C   UNL     1      33.169  22.989  29.522  0.00  0.00    +0.000 C 
ENDBRANCH  18  21
ENDBRANCH   6  15
TORSDOF 4
ENDMDL
MODEL 8
REMARK VINA RESULT:      -6.1      2.577      3.115
REMARK  Name = 
REMARK  4 active torsions:
REMARK  status: ('A' for Active; 'I' for Inactive)
REMARK    1  A    between atoms: O_2  and  C_3
REMARK    2  A    between atoms: C_6  and  C_7
REMARK    3  A    between atoms: C_12  and  C_13
REMARK    4  A    between atoms: C_16  and  O_17
REMARK                            x       y       z     vdW  Elec       q    Type
REMARK                         _______ _______ _______ _____ _____    ______ ____
ROOT
ATOM      1  C   UNL     1      29.897  23.900  24.535  0.00  0.00    +0.000 A 
ATOM      2  N   UNL     1      30.371  23.843  23.274  0.00  0.00    +0.000 NA
ATOM      3  C   UNL     1      29.424  24.349  22.461  0.00  0.00    +0.000 A 
ATOM      4  N   UNL     1      29.529  24.471  21.036  0.00  0.00    +0.000 NA
ATOM      5  O   UNL     1      28.389  24.713  23.169  0.00  0.00    +0.000 OA
ATOM      6  C   UNL     1      28.638  24.455  24.438  0.00  0.00    +0.000 A 
ENDROOT
BRANCH   1  10
ATOM      7  C   UNL     1      31.846  22.603  28.127  0.00  0.00    +0.000 A 
ATOM      8  C   UNL     1      30.841  21.859  27.558  0.00  0.00    +0.000 A 
ATOM      9  C   UNL     1      30.210  22.286  26.388  0.00  0.00    +0.000 A 
ATOM     10  C   UNL     1      30.571  23.462  25.768  0.00  0.00    +0.000 A 
ATOM     11  C   UNL     1      31.580  24.210  26.339  0.00  0.00    +0.000 A 
ATOM     12  C   UNL     1      32.205  23.777  27.506  0.00  0.00    +0.000 A 
BRANCH   7  14
ATOM     13  C   UNL     1      33.828  22.221  29.533  0.00  0.00    +0.000 C 
ATOM     14  O   UNL     1      32.448  22.142  29.292  0.00  0.00    +0.000 OA
ENDBRANCH   7  14
ENDBRANCH   1  10
BRANCH   6  15
ATOM     15  C   UNL     1      27.722  24.720  25.546  0.00  0.00    +0.000 A 
ATOM     16  C   UNL     1      26.811  23.737  25.846  0.00  0.00    +0.000 A 
ATOM     17  C   UNL     1      25.896  23.853  26.859  0.00  0.00    +0.000 A 
ATOM     18  C   UNL     1      25.917  25.024  27.592  0.00  0.00    +0.000 A 
ATOM     19  C   UNL     1      26.826  26.017  27.301  0.00  0.00    +0.000 A 
ATOM     20  C   UNL     1      27.740  25.887  26.279  0.00  0.00    +0.000 A 
BRANCH  18  21
ATOM     21  O   UNL     1      25.011  25.218  28.647  0.00  0.00    +0.000 OA
ATOM     22  C   UNL     1      25.473  25.082  29.978  0.00  0.00    +0.000 C 
ENDBRANCH  18  21
ENDBRANCH   6  15
TORSDOF 4
ENDMDL
MODEL 9
REMARK VINA RESULT:      -6.0      4.023      5.748
REMARK  Name = 
REMARK  4 active torsions:
REMARK  status: ('A' for Active; 'I' for Inactive)
REMARK    1  A    between atoms: O_2  and  C_3
REMARK    2  A    between atoms: C_6  and  C_7
REMARK    3  A    between atoms: C_12  and  C_13
REMARK    4  A    between atoms: C_16  and  O_17
REMARK                            x       y       z     vdW  Elec       q    Type
REMARK                         _______ _______ _______ _____ _____    ______ ____
ROOT
ATOM      1  C   UNL     1      31.428  22.261  28.816  0.00  0.00    +0.000 A 
ATOM      2  N   UNL     1      32.539  21.670  29.300  0.00  0.00    +0.000 NA
ATOM      3  C   UNL     1      32.373  21.516  30.628  0.00  0.00    +0.000 A 
ATOM      4  N   UNL     1      33.325  20.927  31.524  0.00  0.00    +0.000 NA
ATOM      5  O   UNL     1      31.207  21.988  30.979  0.00  0.00    +0.000 OA
ATOM      6  C   UNL     1      30.601  22.451  29.904  0.00  0.00    +0.000 A 
ENDROOT
BRANCH   1  10
ATOM      7  C   UNL     1      30.620  23.361  24.752  0.00  0.00    +0.000 A 
ATOM      8  C   UNL     1      31.586  24.009  25.483  0.00  0.00    +0.000 A 
ATOM      9  C   UNL     1      31.845  23.647  26.806  0.00  0.00    +0.000 A 
ATOM     10  C   UNL     1      31.144  22.632  27.421  0.00  0.00    +0.000 A 
ATOM     11  C   UNL     1      30.174  21.981  26.688  0.00  0.00    +0.000 A 
ATOM     12  C   UNL     1      29.921  22.348  25.368  0.00  0.00    +0.000 A 
BRANCH   7  14
ATOM     13  C   UNL     1      29.113  23.873  22.876  0.00  0.00    +0.000 C 
ATOM     14  O   UNL     1      30.393  23.754  23.438  0.00  0.00    +0.000 OA
ENDBRANCH   7  14
ENDBRANCH   1  10
BRANCH   6  15
ATOM     15  C   UNL     1      29.273  23.061  29.883  0.00  0.00    +0.000 A 
ATOM     16  C   UNL     1      28.208  22.241  30.166  0.00  0.00    +0.000 A 
ATOM     17  C   UNL     1      26.912  22.682  30.182  0.00  0.00    +0.000 A 
ATOM     18  C   UNL     1      26.700  24.016  29.896  0.00  0.00    +0.000 A 
ATOM     19  C   UNL     1      27.758  24.850  29.609  0.00  0.00    +0.000 A 
ATOM     20  C   UNL     1      29.058  24.392  29.597  0.00  0.00    +0.000 A 
BRANCH  18  21
ATOM     21  O   UNL     1      25.398  24.544  29.892  0.00  0.00    +0.000 OA
ATOM     22  C   UNL     1      25.155  25.767  30.561  0.00  0.00    +0.000 C 
ENDBRANCH  18  21
ENDBRANCH   6  15
TORSDOF 4
ENDMDL
MODEL 10
REMARK VINA RESULT:      -5.9     18.124     21.521
REMARK  Name = 
REMARK  4 active torsions:
REMARK  status: ('A' for Active; 'I' for Inactive)
REMARK    1  A    between atoms: O_2  and  C_3
REMARK    2  A    between atoms: C_6  and  C_7
REMARK    3  A    between atoms: C_12  and  C_13
REMARK    4  A    between atoms: C_16  and  O_17
REMARK                            x       y       z     vdW  Elec       q    Type
REMARK                         _______ _______ _______ _____ _____    ______ ____
ROOT
ATOM      1  C   UNL     1      18.337  10.742  37.805  0.00  0.00    +0.000 A 
ATOM      2  N   UNL     1      17.414  11.385  37.062  0.00  0.00    +0.000 NA
ATOM      3  C   UNL     1      16.202  11.072  37.560  0.00  0.00    +0.000 A 
ATOM      4  N   UNL     1      14.947  11.549  37.056  0.00  0.00    +0.000 NA
ATOM      5  O   UNL     1      16.343  10.265  38.577  0.00  0.00    +0.000 OA
ATOM      6  C   UNL     1      17.629  10.039  38.758  0.00  0.00    +0.000 A 
ENDROOT
BRANCH   1  10
ATOM      7  C   UNL     1      22.597  10.811  37.318  0.00  0.00    +0.000 A 
ATOM      8  C   UNL     1      21.826   9.862  36.690  0.00  0.00    +0.000 A 
ATOM      9  C   UNL     1      20.440   9.844  36.852  0.00  0.00    +0.000 A 
ATOM     10  C   UNL     1      19.799  10.773  37.643  0.00  0.00    +0.000 A 
ATOM     11  C   UNL     1      20.571  11.726  38.274  0.00  0.00    +0.000 A 
ATOM     12  C   UNL     1      21.955  11.738  38.107  0.00  0.00    +0.000 A 
BRANCH   7  14
ATOM     13  C   UNL     1      24.592  10.253  35.992  0.00  0.00    +0.000 C 
ATOM     14  O   UNL     1      23.973  10.793  37.130  0.00  0.00    +0.000 OA
ENDBRANCH   7  14
ENDBRANCH   1  10
BRANCH   6  15
ATOM     15  C   UNL     1      18.195   9.184  39.799  0.00  0.00    +0.000 A 
ATOM     16  C   UNL     1      18.571   7.917  39.425  0.00  0.00    +0.000 A 
ATOM     17  C   UNL     1      19.116   7.013  40.298  0.00  0.00    +0.000 A 
ATOM     18  C   UNL     1      19.280   7.425  41.606  0.00  0.00    +0.000 A 
ATOM     19  C   UNL     1      18.906   8.692  41.995  0.00  0.00    +0.000 A 
ATOM     20  C   UNL     1      18.359   9.592  41.105  0.00  0.00    +0.000 A 
BRANCH  18  21
ATOM     21  O   UNL     1      19.831   6.555  42.561  0.00  0.00    +0.000 OA
ATOM     22  C   UNL     1      19.092   5.413  42.951  0.00  0.00    +0.000 C 
ENDBRANCH  18  21
ENDBRANCH   6  15
TORSDOF 4
ENDMDL
