MODEL 1
REMARK VINA RESULT:      -7.2      0.000      0.000
REMARK  Name = 
REMARK  8 active torsions:
REMARK  status: ('A' for Active; 'I' for Inactive)
REMARK    1  A    between atoms: O_2  and  C_3
REMARK    2  A    between atoms: C_8  and  O_9
REMARK    3  A    between atoms: O_9  and  C_10
REMARK    4  A    between atoms: C_10  and  C_11
REMARK    5  A    between atoms: C_17  and  C_18
REMARK    6  A    between atoms: C_21  and  O_22
REMARK    7  A    between atoms: O_22  and  C_23
REMARK    8  A    between atoms: C_23  and  C_24
REMARK                            x       y       z     vdW  Elec       q    Type
REMARK                         _______ _______ _______ _____ _____    ______ ____
ROOT
ATOM      1  C   UNL     1      38.905   1.079  14.310  0.00  0.00    +0.000 A 
ATOM      2  C   UNL     1      39.713   2.205  14.395  0.00  0.00    +0.000 A 
ATOM      3  C   UNL     1      39.108   3.434  14.656  0.00  0.00    +0.000 A 
ATOM      4  C   UNL     1      37.795   3.538  14.822  0.00  0.00    +0.000 A 
ATOM      5  C   UNL     1      37.006   2.413  14.735  0.00  0.00    +0.000 A 
ATOM      6  C   UNL     1      37.544   1.163  14.478  0.00  0.00    +0.000 A 
ATOM      7  C   UNL     1      37.049   4.896  15.110  0.00  0.00    +0.000 C 
ATOM      8  N   UNL     1      37.924   5.701  14.060  0.00  0.00    +0.000 NA
ATOM      9  C   UNL     1      39.226   5.817  14.449  0.00  0.00    +0.000 C 
ATOM     10  C   UNL     1      40.016   4.589  14.741  0.00  0.00    +0.000 C 
ENDROOT
BRANCH   7  11
ATOM     11  C   UNL     1      37.809   5.341  16.390  0.00  0.00    +0.000 A 
ATOM     12  C   UNL     1      38.117   4.415  17.341  0.00  0.00    +0.000 A 
ATOM     13  C   UNL     1      38.803   4.781  18.510  0.00  0.00    +0.000 A 
ATOM     14  C   UNL     1      39.182   6.115  18.716  0.00  0.00    +0.000 A 
ATOM     15  C   UNL     1      38.862   7.013  17.754  0.00  0.00    +0.000 A 
ATOM     16  C   UNL     1      38.188   6.630  16.614  0.00  0.00    +0.000 A 
BRANCH  14  17
ATOM     17  O   UNL     1      39.858   6.430  19.884  0.00  0.00    +0.000 OA
BRANCH  17  18
ATOM     18  C   UNL     1      40.978   7.214  20.067  0.00  0.00    +0.000 C 
BRANCH  18  19
ATOM     19  C   UNL     1      42.237   6.468  19.873  0.00  0.00    +0.000 C 
ATOM     20  C   UNL     1      42.989   6.100  21.110  0.00  0.00    +0.000 C 
ATOM     21  C   UNL     1      43.140   6.868  18.783  0.00  0.00    +0.000 C 
ENDBRANCH  18  19
ENDBRANCH  17  18
ENDBRANCH  14  17
ENDBRANCH   7  11
BRANCH   1  23
ATOM     22  C   UNL     1      40.190  -0.860  15.044  0.00  0.00    +0.000 C 
ATOM     23  O   UNL     1      39.541  -0.129  14.049  0.00  0.00    +0.000 OA
ENDBRANCH   1  23
BRANCH   6  24
ATOM     24  O   UNL     1      36.811  -0.006  14.378  0.00  0.00    +0.000 OA
BRANCH  24  25
ATOM     25  C   UNL     1      35.725  -0.183  15.262  0.00  0.00    +0.000 C 
BRANCH  25  26
ATOM     26  C   UNL     1      36.216  -0.527  16.614  0.00  0.00    +0.000 A 
ATOM     27  C   UNL     1      37.096  -1.574  16.740  0.00  0.00    +0.000 A 
ATOM     28  C   UNL     1      37.559  -1.905  17.986  0.00  0.00    +0.000 A 
ATOM     29  C   UNL     1      37.173  -1.224  19.124  0.00  0.00    +0.000 A 
ATOM     30  C   UNL     1      36.284  -0.176  18.946  0.00  0.00    +0.000 A 
ATOM     31  C   UNL     1      35.788   0.200  17.730  0.00  0.00    +0.000 A 
ENDBRANCH  25  26
ENDBRANCH  24  25
ENDBRANCH   6  24
TORSDOF 8
ENDMDL
MODEL 2
REMARK VINA RESULT:      -7.1      2.907      8.184
REMARK  Name = 
REMARK  8 active torsions:
REMARK  status: ('A' for Active; 'I' for Inactive)
REMARK    1  A    between atoms: O_2  and  C_3
REMARK    2  A    between atoms: C_8  and  O_9
REMARK    3  A    between atoms: O_9  and  C_10
REMARK    4  A    between atoms: C_10  and  C_11
REMARK    5  A    between atoms: C_17  and  C_18
REMARK    6  A    between atoms: C_21  and  O_22
REMARK    7  A    between atoms: O_22  and  C_23
REMARK    8  A    between atoms: C_23  and  C_24
REMARK                            x       y       z     vdW  Elec       q    Type
REMARK                         _______ _______ _______ _____ _____    ______ ____
ROOT
ATOM      1  C   UNL     1      37.402   4.081  13.760  0.00  0.00    +0.000 A 
ATOM      2  C   UNL     1      36.800   2.962  13.200  0.00  0.00    +0.000 A 
ATOM      3  C   UNL     1      37.251   1.703  13.595  0.00  0.00    +0.000 A 
ATOM      4  C   UNL     1      38.229   1.564  14.482  0.00  0.00    +0.000 A 
ATOM      5  C   UNL     1      38.816   2.683  15.029  0.00  0.00    +0.000 A 
ATOM      6  C   UNL     1      38.416   3.962  14.680  0.00  0.00    +0.000 A 
ATOM      7  C   UNL     1      38.790   0.173  14.963  0.00  0.00    +0.000 C 
ATOM      8  N   UNL     1      38.761  -0.444  13.502  0.00  0.00    +0.000 NA
ATOM      9  C   UNL     1      37.491  -0.613  13.034  0.00  0.00    +0.000 C 
ATOM     10  C   UNL     1      36.571   0.556  12.973  0.00  0.00    +0.000 C 
ENDROOT
BRANCH   7  11
ATOM     11  C   UNL     1      37.474  -0.471  15.480  0.00  0.00    +0.000 A 
ATOM     12  C   UNL     1      37.257  -1.802  15.282  0.00  0.00    +0.000 A 
ATOM     13  C   UNL     1      36.080  -2.418  15.735  0.00  0.00    +0.000 A 
ATOM     14  C   UNL     1      35.104  -1.666  16.402  0.00  0.00    +0.000 A 
ATOM     15  C   UNL     1      35.345  -0.345  16.585  0.00  0.00    +0.000 A 
ATOM     16  C   UNL     1      36.510   0.237  16.130  0.00  0.00    +0.000 A 
BRANCH  14  17
ATOM     17  O   UNL     1      33.957  -2.316  16.832  0.00  0.00    +0.000 OA
BRANCH  17  18
ATOM     18  C   UNL     1      32.894  -1.831  17.566  0.00  0.00    +0.000 C 
BRANCH  18  19
ATOM     19  C   UNL     1      31.694  -2.684  17.467  0.00  0.00    +0.000 C 
ATOM     20  C   UNL     1      31.717  -3.744  16.415  0.00  0.00    +0.000 C 
ATOM     21  C   UNL     1      30.366  -2.061  17.585  0.00  0.00    +0.000 C 
ENDBRANCH  18  19
ENDBRANCH  17  18
ENDBRANCH  14  17
ENDBRANCH   7  11
BRANCH   1  23
ATOM     22  C   UNL     1      35.763   5.886  13.864  0.00  0.00    +0.000 C 
ATOM     23  O   UNL     1      36.928   5.320  13.344  0.00  0.00    +0.000 OA
ENDBRANCH   1  23
BRANCH   6  24
ATOM     24  O   UNL     1      38.961   5.127  15.189  0.00  0.00    +0.000 OA
BRANCH  24  25
ATOM     25  C   UNL     1      38.460   5.609  16.417  0.00  0.00    +0.000 C 
BRANCH  25  26
ATOM     26  C   UNL     1      39.572   5.888  17.351  0.00  0.00    +0.000 A 
ATOM     27  C   UNL     1      39.327   5.801  18.699  0.00  0.00    +0.000 A 
ATOM     28  C   UNL     1      40.347   6.058  19.577  0.00  0.00    +0.000 A 
ATOM     29  C   UNL     1      41.617   6.402  19.154  0.00  0.00    +0.000 A 
ATOM     30  C   UNL     1      41.814   6.478  17.785  0.00  0.00    +0.000 A 
ATOM     31  C   UNL     1      40.837   6.233  16.863  0.00  0.00    +0.000 A 
ENDBRANCH  25  26
ENDBRANCH  24  25
ENDBRANCH   6  24
TORSDOF 8
ENDMDL
MODEL 3
REMARK VINA RESULT:      -7.0      1.421      2.065
REMARK  Name = 
REMARK  8 active torsions:
REMARK  status: ('A' for Active; 'I' for Inactive)
REMARK    1  A    between atoms: O_2  and  C_3
REMARK    2  A    between atoms: C_8  and  O_9
REMARK    3  A    between atoms: O_9  and  C_10
REMARK    4  A    between atoms: C_10  and  C_11
REMARK    5  A    between atoms: C_17  and  C_18
REMARK    6  A    between atoms: C_21  and  O_22
REMARK    7  A    between atoms: O_22  and  C_23
REMARK    8  A    between atoms: C_23  and  C_24
REMARK                            x       y       z     vdW  Elec       q    Type
REMARK                         _______ _______ _______ _____ _____    ______ ____
ROOT
ATOM      1  C   UNL     1      38.938   0.539  14.576  0.00  0.00    +0.000 A 
ATOM      2  C   UNL     1      39.663   1.714  14.424  0.00  0.00    +0.000 A 
ATOM      3  C   UNL     1      38.986   2.927  14.540  0.00  0.00    +0.000 A 
ATOM      4  C   UNL     1      37.683   2.973  14.791  0.00  0.00    +0.000 A 
ATOM      5  C   UNL     1      36.978   1.800  14.940  0.00  0.00    +0.000 A 
ATOM      6  C   UNL     1      37.589   0.562  14.836  0.00  0.00    +0.000 A 
ATOM      7  C   UNL     1      36.859   4.308  14.925  0.00  0.00    +0.000 C 
ATOM      8  N   UNL     1      37.598   4.992  13.699  0.00  0.00    +0.000 NA
ATOM      9  C   UNL     1      38.911   5.250  13.962  0.00  0.00    +0.000 C 
ATOM     10  C   UNL     1      39.809   4.136  14.376  0.00  0.00    +0.000 C 
ENDROOT
BRANCH   7  11
ATOM     11  C   UNL     1      37.668   4.998  16.058  0.00  0.00    +0.000 A 
ATOM     12  C   UNL     1      37.919   6.335  15.982  0.00  0.00    +0.000 A 
ATOM     13  C   UNL     1      38.647   6.992  16.987  0.00  0.00    +0.000 A 
ATOM     14  C   UNL     1      39.129   6.275  18.091  0.00  0.00    +0.000 A 
ATOM     15  C   UNL     1      38.864   4.947  18.140  0.00  0.00    +0.000 A 
ATOM     16  C   UNL     1      38.147   4.324  17.140  0.00  0.00    +0.000 A 
BRANCH  14  17
ATOM     17  O   UNL     1      39.841   6.965  19.059  0.00  0.00    +0.000 OA
BRANCH  17  18
ATOM     18  C   UNL     1      39.467   7.323  20.338  0.00  0.00    +0.000 C 
BRANCH  18  19
ATOM     19  C   UNL     1      38.949   8.703  20.416  0.00  0.00    +0.000 C 
ATOM     20  C   UNL     1      37.485   8.878  20.179  0.00  0.00    +0.000 C 
ATOM     21  C   UNL     1      39.733   9.793  19.815  0.00  0.00    +0.000 C 
ENDBRANCH  18  19
ENDBRANCH  17  18
ENDBRANCH  14  17
ENDBRANCH   7  11
BRANCH   1  23
ATOM     22  C   UNL     1      39.795  -1.307  13.231  0.00  0.00    +0.000 C 
ATOM     23  O   UNL     1      39.644  -0.652  14.454  0.00  0.00    +0.000 OA
ENDBRANCH   1  23
BRANCH   6  24
ATOM     24  O   UNL     1      36.941  -0.653  14.975  0.00  0.00    +0.000 OA
BRANCH  24  25
ATOM     25  C   UNL     1      36.153  -0.853  16.128  0.00  0.00    +0.000 C 
BRANCH  25  26
ATOM     26  C   UNL     1      36.941  -1.540  17.174  0.00  0.00    +0.000 A 
ATOM     27  C   UNL     1      37.862  -2.480  16.783  0.00  0.00    +0.000 A 
ATOM     28  C   UNL     1      38.599  -3.126  17.740  0.00  0.00    +0.000 A 
ATOM     29  C   UNL     1      38.450  -2.866  19.088  0.00  0.00    +0.000 A 
ATOM     30  C   UNL     1      37.508  -1.910  19.433  0.00  0.00    +0.000 A 
ATOM     31  C   UNL     1      36.745  -1.234  18.525  0.00  0.00    +0.000 A 
ENDBRANCH  25  26
ENDBRANCH  24  25
ENDBRANCH   6  24
TORSDOF 8
ENDMDL
MODEL 4
REMARK VINA RESULT:      -6.9      1.603      2.498
REMARK  Name = 
REMARK  8 active torsions:
REMARK  status: ('A' for Active; 'I' for Inactive)
REMARK    1  A    between atoms: O_2  and  C_3
REMARK    2  A    between atoms: C_8  and  O_9
REMARK    3  A    between atoms: O_9  and  C_10
REMARK    4  A    between atoms: C_10  and  C_11
REMARK    5  A    between atoms: C_17  and  C_18
REMARK    6  A    between atoms: C_21  and  O_22
REMARK    7  A    between atoms: O_22  and  C_23
REMARK    8  A    between atoms: C_23  and  C_24
REMARK                            x       y       z     vdW  Elec       q    Type
REMARK                         _______ _______ _______ _____ _____    ______ ____
ROOT
ATOM      1  C   UNL     1      38.274  -1.030  14.547  0.00  0.00    +0.000 A 
ATOM      2  C   UNL     1      39.063   0.093  14.335  0.00  0.00    +0.000 A 
ATOM      3  C   UNL     1      38.428   1.321  14.153  0.00  0.00    +0.000 A 
ATOM      4  C   UNL     1      37.105   1.427  14.180  0.00  0.00    +0.000 A 
ATOM      5  C   UNL     1      36.336   0.306  14.391  0.00  0.00    +0.000 A 
ATOM      6  C   UNL     1      36.903  -0.943  14.579  0.00  0.00    +0.000 A 
ATOM      7  C   UNL     1      36.327   2.782  13.973  0.00  0.00    +0.000 C 
ATOM      8  N   UNL     1      37.277   3.249  12.792  0.00  0.00    +0.000 NA
ATOM      9  C   UNL     1      38.543   3.524  13.220  0.00  0.00    +0.000 C 
ATOM     10  C   UNL     1      39.317   2.474  13.939  0.00  0.00    +0.000 C 
ENDROOT
BRANCH   7  11
ATOM     11  C   UNL     1      36.977   3.628  15.101  0.00  0.00    +0.000 A 
ATOM     12  C   UNL     1      37.302   4.929  14.859  0.00  0.00    +0.000 A 
ATOM     13  C   UNL     1      37.891   5.724  15.855  0.00  0.00    +0.000 A 
ATOM     14  C   UNL     1      38.154   5.186  17.122  0.00  0.00    +0.000 A 
ATOM     15  C   UNL     1      37.820   3.890  17.335  0.00  0.00    +0.000 A 
ATOM     16  C   UNL     1      37.242   3.129  16.340  0.00  0.00    +0.000 A 
BRANCH  14  17
ATOM     17  O   UNL     1      38.735   6.008  18.075  0.00  0.00    +0.000 OA
BRANCH  17  18
ATOM     18  C   UNL     1      38.364   7.270  18.491  0.00  0.00    +0.000 C 
BRANCH  18  19
ATOM     19  C   UNL     1      39.159   7.751  19.638  0.00  0.00    +0.000 C 
ATOM     20  C   UNL     1      40.195   6.815  20.168  0.00  0.00    +0.000 C 
ATOM     21  C   UNL     1      38.478   8.481  20.719  0.00  0.00    +0.000 C 
ENDBRANCH  18  19
ENDBRANCH  17  18
ENDBRANCH  14  17
ENDBRANCH   7  11
BRANCH   1  23
ATOM     22  C   UNL     1      40.134  -2.332  15.441  0.00  0.00    +0.000 C 
ATOM     23  O   UNL     1      38.939  -2.237  14.725  0.00  0.00    +0.000 OA
ENDBRANCH   1  23
BRANCH   6  24
ATOM     24  O   UNL     1      36.191  -2.110  14.796  0.00  0.00    +0.000 OA
BRANCH  24  25
ATOM     25  C   UNL     1      35.267  -2.130  15.863  0.00  0.00    +0.000 C 
BRANCH  25  26
ATOM     26  C   UNL     1      35.961  -1.886  17.146  0.00  0.00    +0.000 A 
ATOM     27  C   UNL     1      36.948  -2.760  17.530  0.00  0.00    +0.000 A 
ATOM     28  C   UNL     1      37.599  -2.547  18.716  0.00  0.00    +0.000 A 
ATOM     29  C   UNL     1      37.299  -1.482  19.543  0.00  0.00    +0.000 A 
ATOM     30  C   UNL     1      36.297  -0.628  19.113  0.00  0.00    +0.000 A 
ATOM     31  C   UNL     1      35.613  -0.789  17.942  0.00  0.00    +0.000 A 
ENDBRANCH  25  26
ENDBRANCH  24  25
ENDBRANCH   6  24
TORSDOF 8
ENDMDL
MODEL 5
REMARK VINA RESULT:      -6.9      2.899      8.460
REMARK  Name = 
REMARK  8 active torsions:
REMARK  status: ('A' for Active; 'I' for Inactive)
REMARK    1  A    between atoms: O_2  and  C_3
REMARK    2  A    between atoms: C_8  and  O_9
REMARK    3  A    between atoms: O_9  and  C_10
REMARK    4  A    between atoms: C_10  and  C_11
REMARK    5  A    between atoms: C_17  and  C_18
REMARK    6  A    between atoms: C_21  and  O_22
REMARK    7  A    between atoms: O_22  and  C_23
REMARK    8  A    between atoms: C_23  and  C_24
REMARK                            x       y       z     vdW  Elec       q    Type
REMARK                         _______ _______ _______ _____ _____    ______ ____
ROOT
ATOM      1  C   UNL     1      37.369   4.237  13.980  0.00  0.00    +0.000 A 
ATOM      2  C   UNL     1      36.937   3.216  13.144  0.00  0.00    +0.000 A 
ATOM      3  C   UNL     1      37.646   2.015  13.147  0.00  0.00    +0.000 A 
ATOM      4  C   UNL     1      38.707   1.840  13.925  0.00  0.00    +0.000 A 
ATOM      5  C   UNL     1      39.124   2.861  14.749  0.00  0.00    +0.000 A 
ATOM      6  C   UNL     1      38.465   4.078  14.793  0.00  0.00    +0.000 A 
ATOM      7  C   UNL     1      39.555   0.513  13.970  0.00  0.00    +0.000 C 
ATOM      8  N   UNL     1      39.512   0.328  12.395  0.00  0.00    +0.000 NA
ATOM      9  C   UNL     1      38.258   0.040  11.941  0.00  0.00    +0.000 C 
ATOM     10  C   UNL     1      37.136   0.970  12.246  0.00  0.00    +0.000 C 
ENDROOT
BRANCH   7  11
ATOM     11  C   UNL     1      38.432  -0.500  14.324  0.00  0.00    +0.000 A 
ATOM     12  C   UNL     1      37.470  -0.146  15.221  0.00  0.00    +0.000 A 
ATOM     13  C   UNL     1      36.439  -1.035  15.565  0.00  0.00    +0.000 A 
ATOM     14  C   UNL     1      36.387  -2.310  14.984  0.00  0.00    +0.000 A 
ATOM     15  C   UNL     1      37.356  -2.635  14.096  0.00  0.00    +0.000 A 
ATOM     16  C   UNL     1      38.359  -1.744  13.774  0.00  0.00    +0.000 A 
BRANCH  14  17
ATOM     17  O   UNL     1      35.351  -3.154  15.353  0.00  0.00    +0.000 OA
BRANCH  17  18
ATOM     18  C   UNL     1      35.396  -4.462  15.791  0.00  0.00    +0.000 C 
BRANCH  18  19
ATOM     19  C   UNL     1      34.633  -5.382  14.926  0.00  0.00    +0.000 C 
ATOM     20  C   UNL     1      33.618  -4.759  14.025  0.00  0.00    +0.000 C 
ATOM     21  C   UNL     1      34.157  -6.656  15.487  0.00  0.00    +0.000 C 
ENDBRANCH  18  19
ENDBRANCH  17  18
ENDBRANCH  14  17
ENDBRANCH   7  11
BRANCH   1  23
ATOM     22  C   UNL     1      35.256   5.439  13.770  0.00  0.00    +0.000 C 
ATOM     23  O   UNL     1      36.640   5.420  13.951  0.00  0.00    +0.000 OA
ENDBRANCH   1  23
BRANCH   6  24
ATOM     24  O   UNL     1      38.829   5.144  15.597  0.00  0.00    +0.000 OA
BRANCH  24  25
ATOM     25  C   UNL     1      38.505   5.078  16.969  0.00  0.00    +0.000 C 
BRANCH  25  26
ATOM     26  C   UNL     1      39.600   5.648  17.782  0.00  0.00    +0.000 A 
ATOM     27  C   UNL     1      40.763   6.010  17.146  0.00  0.00    +0.000 A 
ATOM     28  C   UNL     1      41.787   6.539  17.886  0.00  0.00    +0.000 A 
ATOM     29  C   UNL     1      41.694   6.724  19.252  0.00  0.00    +0.000 A 
ATOM     30  C   UNL     1      40.502   6.343  19.848  0.00  0.00    +0.000 A 
ATOM     31  C   UNL     1      39.447   5.811  19.163  0.00  0.00    +0.000 A 
ENDBRANCH  25  26
ENDBRANCH  24  25
ENDBRANCH   6  24
TORSDOF 8
ENDMDL
MODEL 6
REMARK VINA RESULT:      -6.7      4.016      7.649
REMARK  Name = 
REMARK  8 active torsions:
REMARK  status: ('A' for Active; 'I' for Inactive)
REMARK    1  A    between atoms: O_2  and  C_3
REMARK    2  A    between atoms: C_8  and  O_9
REMARK    3  A    between atoms: O_9  and  C_10
REMARK    4  A    between atoms: C_10  and  C_11
REMARK    5  A    between atoms: C_17  and  C_18
REMARK    6  A    between atoms: C_21  and  O_22
REMARK    7  A    between atoms: O_22  and  C_23
REMARK    8  A    between atoms: C_23  and  C_24
REMARK                            x       y       z     vdW  Elec       q    Type
REMARK                         _______ _______ _______ _____ _____    ______ ____
ROOT
ATOM      1  C   UNL     1      41.315  -2.722  12.411  0.00  0.00    +0.000 A 
ATOM      2  C   UNL     1      39.936  -2.893  12.398  0.00  0.00    +0.000 A 
ATOM      3  C   UNL     1      39.240  -2.725  13.595  0.00  0.00    +0.000 A 
ATOM      4  C   UNL     1      39.866  -2.410  14.722  0.00  0.00    +0.000 A 
ATOM      5  C   UNL     1      41.232  -2.243  14.719  0.00  0.00    +0.000 A 
ATOM      6  C   UNL     1      41.983  -2.395  13.566  0.00  0.00    +0.000 A 
ATOM      7  C   UNL     1      39.140  -2.215  16.107  0.00  0.00    +0.000 C 
ATOM      8  N   UNL     1      38.190  -3.467  15.885  0.00  0.00    +0.000 NA
ATOM      9  C   UNL     1      37.292  -3.265  14.879  0.00  0.00    +0.000 C 
ATOM     10  C   UNL     1      37.783  -2.913  13.518  0.00  0.00    +0.000 C 
ENDROOT
BRANCH   7  11
ATOM     11  C   UNL     1      38.118  -1.114  15.710  0.00  0.00    +0.000 A 
ATOM     12  C   UNL     1      38.496  -0.131  14.846  0.00  0.00    +0.000 A 
ATOM     13  C   UNL     1      37.600   0.880  14.465  0.00  0.00    +0.000 A 
ATOM     14  C   UNL     1      36.294   0.892  14.974  0.00  0.00    +0.000 A 
ATOM     15  C   UNL     1      35.946  -0.098  15.832  0.00  0.00    +0.000 A 
ATOM     16  C   UNL     1      36.845  -1.080  16.191  0.00  0.00    +0.000 A 
BRANCH  14  17
ATOM     17  O   UNL     1      35.443   1.909  14.570  0.00  0.00    +0.000 OA
BRANCH  17  18
ATOM     18  C   UNL     1      35.150   3.107  15.187  0.00  0.00    +0.000 C 
BRANCH  18  19
ATOM     19  C   UNL     1      36.064   4.195  14.788  0.00  0.00    +0.000 C 
ATOM     20  C   UNL     1      36.348   4.323  13.327  0.00  0.00    +0.000 C 
ATOM     21  C   UNL     1      37.263   4.451  15.601  0.00  0.00    +0.000 C 
ENDBRANCH  18  19
ENDBRANCH  17  18
ENDBRANCH  14  17
ENDBRANCH   7  11
BRANCH   1  23
ATOM     22  C   UNL     1      42.155  -4.153  10.622  0.00  0.00    +0.000 C 
ATOM     23  O   UNL     1      41.977  -2.896  11.201  0.00  0.00    +0.000 OA
ENDBRANCH   1  23
BRANCH   6  24
ATOM     24  O   UNL     1      43.357  -2.242  13.492  0.00  0.00    +0.000 OA
BRANCH  24  25
ATOM     25  C   UNL     1      43.907  -1.011  13.906  0.00  0.00    +0.000 C 
BRANCH  25  26
ATOM     26  C   UNL     1      44.696  -1.193  15.144  0.00  0.00    +0.000 A 
ATOM     27  C   UNL     1      44.935  -0.094  15.932  0.00  0.00    +0.000 A 
ATOM     28  C   UNL     1      45.664  -0.247  17.081  0.00  0.00    +0.000 A 
ATOM     29  C   UNL     1      46.170  -1.470  17.478  0.00  0.00    +0.000 A 
ATOM     30  C   UNL     1      45.903  -2.549  16.651  0.00  0.00    +0.000 A 
ATOM     31  C   UNL     1      45.183  -2.457  15.494  0.00  0.00    +0.000 A 
ENDBRANCH  25  26
ENDBRANCH  24  25
ENDBRANCH   6  24
TORSDOF 8
ENDMDL
MODEL 7
REMARK VINA RESULT:      -6.7      2.546      4.578
REMARK  Name = 
REMARK  8 active torsions:
REMARK  status: ('A' for Active; 'I' for Inactive)
REMARK    1  A    between atoms: O_2  and  C_3
REMARK    2  A    between atoms: C_8  and  O_9
REMARK    3  A    between atoms: O_9  and  C_10
REMARK    4  A    between atoms: C_10  and  C_11
REMARK    5  A    between atoms: C_17  and  C_18
REMARK    6  A    between atoms: C_21  and  O_22
REMARK    7  A    between atoms: O_22  and  C_23
REMARK    8  A    between atoms: C_23  and  C_24
REMARK                            x       y       z     vdW  Elec       q    Type
REMARK                         _______ _______ _______ _____ _____    ______ ____
ROOT
ATOM      1  C   UNL     1      37.843   5.326  15.731  0.00  0.00    +0.000 A 
ATOM      2  C   UNL     1      38.297   6.612  15.990  0.00  0.00    +0.000 A 
ATOM      3  C   UNL     1      38.913   6.861  17.217  0.00  0.00    +0.000 A 
ATOM      4  C   UNL     1      39.067   5.901  18.121  0.00  0.00    +0.000 A 
ATOM      5  C   UNL     1      38.612   4.631  17.851  0.00  0.00    +0.000 A 
ATOM      6  C   UNL     1      37.992   4.317  16.653  0.00  0.00    +0.000 A 
ATOM      7  C   UNL     1      39.745   6.118  19.527  0.00  0.00    +0.000 C 
ATOM      8  N   UNL     1      39.023   7.512  19.758  0.00  0.00    +0.000 NA
ATOM      9  C   UNL     1      39.464   8.474  18.898  0.00  0.00    +0.000 C 
ATOM     10  C   UNL     1      39.378   8.240  17.430  0.00  0.00    +0.000 C 
ENDROOT
BRANCH   7  11
ATOM     11  C   UNL     1      41.120   6.677  19.067  0.00  0.00    +0.000 A 
ATOM     12  C   UNL     1      41.780   7.565  19.862  0.00  0.00    +0.000 A 
ATOM     13  C   UNL     1      43.024   8.091  19.479  0.00  0.00    +0.000 A 
ATOM     14  C   UNL     1      43.608   7.705  18.264  0.00  0.00    +0.000 A 
ATOM     15  C   UNL     1      42.928   6.821  17.495  0.00  0.00    +0.000 A 
ATOM     16  C   UNL     1      41.707   6.319  17.892  0.00  0.00    +0.000 A 
BRANCH  14  17
ATOM     17  O   UNL     1      44.838   8.249  17.927  0.00  0.00    +0.000 OA
BRANCH  17  18
ATOM     18  C   UNL     1      46.023   8.248  18.634  0.00  0.00    +0.000 C 
BRANCH  18  19
ATOM     19  C   UNL     1      46.621   6.903  18.744  0.00  0.00    +0.000 C 
ATOM     20  C   UNL     1      46.796   6.147  17.468  0.00  0.00    +0.000 C 
ATOM     21  C   UNL     1      46.201   6.025  19.847  0.00  0.00    +0.000 C 
ENDBRANCH  18  19
ENDBRANCH  17  18
ENDBRANCH  14  17
ENDBRANCH   7  11
BRANCH   1  23
ATOM     22  C   UNL     1      35.919   5.498  14.241  0.00  0.00    +0.000 C 
ATOM     23  O   UNL     1      37.235   5.113  14.500  0.00  0.00    +0.000 OA
ENDBRANCH   1  23
BRANCH   6  24
ATOM     24  O   UNL     1      37.513   3.064  16.316  0.00  0.00    +0.000 OA
BRANCH  24  25
ATOM     25  C   UNL     1      36.265   2.670  16.844  0.00  0.00    +0.000 C 
BRANCH  25  26
ATOM     26  C   UNL     1      36.011   1.243  16.552  0.00  0.00    +0.000 A 
ATOM     27  C   UNL     1      35.069   0.582  17.300  0.00  0.00    +0.000 A 
ATOM     28  C   UNL     1      34.823  -0.740  17.042  0.00  0.00    +0.000 A 
ATOM     29  C   UNL     1      35.490  -1.436  16.052  0.00  0.00    +0.000 A 
ATOM     30  C   UNL     1      36.431  -0.726  15.323  0.00  0.00    +0.000 A 
ATOM     31  C   UNL     1      36.719   0.592  15.536  0.00  0.00    +0.000 A 
ENDBRANCH  25  26
ENDBRANCH  24  25
ENDBRANCH   6  24
TORSDOF 8
ENDMDL
MODEL 8
REMARK VINA RESULT:      -6.6      5.120      8.271
REMARK  Name = 
REMARK  8 active torsions:
REMARK  status: ('A' for Active; 'I' for Inactive)
REMARK    1  A    between atoms: O_2  and  C_3
REMARK    2  A    between atoms: C_8  and  O_9
REMARK    3  A    between atoms: O_9  and  C_10
REMARK    4  A    between atoms: C_10  and  C_11
REMARK    5  A    between atoms: C_17  and  C_18
REMARK    6  A    between atoms: C_21  and  O_22
REMARK    7  A    between atoms: O_22  and  C_23
REMARK    8  A    between atoms: C_23  and  C_24
REMARK                            x       y       z     vdW  Elec       q    Type
REMARK                         _______ _______ _______ _____ _____    ______ ____
ROOT
ATOM      1  C   UNL     1      43.084   1.019  13.094  0.00  0.00    +0.000 A 
ATOM      2  C   UNL     1      41.901   0.740  12.423  0.00  0.00    +0.000 A 
ATOM      3  C   UNL     1      41.250  -0.461  12.704  0.00  0.00    +0.000 A 
ATOM      4  C   UNL     1      41.739  -1.324  13.587  0.00  0.00    +0.000 A 
ATOM      5  C   UNL     1      42.912  -1.034  14.244  0.00  0.00    +0.000 A 
ATOM      6  C   UNL     1      43.608   0.141  14.012  0.00  0.00    +0.000 A 
ATOM      7  C   UNL     1      41.058  -2.699  13.942  0.00  0.00    +0.000 C 
ATOM      8  N   UNL     1      40.701  -3.014  12.428  0.00  0.00    +0.000 NA
ATOM      9  C   UNL     1      39.757  -2.166  11.930  0.00  0.00    +0.000 C 
ATOM     10  C   UNL     1      39.999  -0.697  11.967  0.00  0.00    +0.000 C 
ENDROOT
BRANCH   7  11
ATOM     11  C   UNL     1      39.657  -2.190  14.377  0.00  0.00    +0.000 A 
ATOM     12  C   UNL     1      38.550  -2.916  14.054  0.00  0.00    +0.000 A 
ATOM     13  C   UNL     1      37.268  -2.487  14.430  0.00  0.00    +0.000 A 
ATOM     14  C   UNL     1      37.108  -1.294  15.151  0.00  0.00    +0.000 A 
ATOM     15  C   UNL     1      38.226  -0.593  15.459  0.00  0.00    +0.000 A 
ATOM     16  C   UNL     1      39.475  -1.036  15.077  0.00  0.00    +0.000 A 
BRANCH  14  17
ATOM     17  O   UNL     1      35.824  -0.910  15.502  0.00  0.00    +0.000 OA
BRANCH  17  18
ATOM     18  C   UNL     1      35.121  -1.152  16.664  0.00  0.00    +0.000 C 
BRANCH  18  19
ATOM     19  C   UNL     1      35.069   0.022  17.557  0.00  0.00    +0.000 C 
ATOM     20  C   UNL     1      34.917   1.353  16.898  0.00  0.00    +0.000 C 
ATOM     21  C   UNL     1      35.987   0.083  18.706  0.00  0.00    +0.000 C 
ENDBRANCH  18  19
ENDBRANCH  17  18
ENDBRANCH  14  17
ENDBRANCH   7  11
BRANCH   1  23
ATOM     22  C   UNL     1      44.606   2.354  11.733  0.00  0.00    +0.000 C 
ATOM     23  O   UNL     1      43.706   2.224  12.791  0.00  0.00    +0.000 OA
ENDBRANCH   1  23
BRANCH   6  24
ATOM     24  O   UNL     1      44.791   0.495  14.637  0.00  0.00    +0.000 OA
BRANCH  24  25
ATOM     25  C   UNL     1      45.788  -0.494  14.773  0.00  0.00    +0.000 C 
BRANCH  25  26
ATOM     26  C   UNL     1      45.963  -0.853  16.197  0.00  0.00    +0.000 A 
ATOM     27  C   UNL     1      46.016  -2.184  16.531  0.00  0.00    +0.000 A 
ATOM     28  C   UNL     1      46.176  -2.533  17.846  0.00  0.00    +0.000 A 
ATOM     29  C   UNL     1      46.288  -1.592  18.852  0.00  0.00    +0.000 A 
ATOM     30  C   UNL     1      46.229  -0.263  18.465  0.00  0.00    +0.000 A 
ATOM     31  C   UNL     1      46.070   0.145  17.171  0.00  0.00    +0.000 A 
ENDBRANCH  25  26
ENDBRANCH  24  25
ENDBRANCH   6  24
TORSDOF 8
ENDMDL
MODEL 9
REMARK VINA RESULT:      -6.6      5.853     11.208
REMARK  Name = 
REMARK  8 active torsions:
REMARK  status: ('A' for Active; 'I' for Inactive)
REMARK    1  A    between atoms: O_2  and  C_3
REMARK    2  A    between atoms: C_8  and  O_9
REMARK    3  A    between atoms: O_9  and  C_10
REMARK    4  A    between atoms: C_10  and  C_11
REMARK    5  A    between atoms: C_17  and  C_18
REMARK    6  A    between atoms: C_21  and  O_22
REMARK    7  A    between atoms: O_22  and  C_23
REMARK    8  A    between atoms: C_23  and  C_24
REMARK                            x       y       z     vdW  Elec       q    Type
REMARK                         _______ _______ _______ _____ _____    ______ ____
ROOT
ATOM      1  C   UNL     1      44.131   7.204  26.064  0.00  0.00    +0.000 A 
ATOM      2  C   UNL     1      44.247   8.088  25.000  0.00  0.00    +0.000 A 
ATOM      3  C   UNL     1      44.803   7.619  23.810  0.00  0.00    +0.000 A 
ATOM      4  C   UNL     1      45.214   6.363  23.685  0.00  0.00    +0.000 A 
ATOM      5  C   UNL     1      45.091   5.497  24.748  0.00  0.00    +0.000 A 
ATOM      6  C   UNL     1      44.549   5.899  25.957  0.00  0.00    +0.000 A 
ATOM      7  C   UNL     1      45.857   5.774  22.373  0.00  0.00    +0.000 C 
ATOM      8  N   UNL     1      46.732   7.072  22.114  0.00  0.00    +0.000 NA
ATOM      9  C   UNL     1      45.971   8.156  21.789  0.00  0.00    +0.000 C 
ATOM     10  C   UNL     1      44.895   8.600  22.717  0.00  0.00    +0.000 C 
ENDROOT
BRANCH   7  11
ATOM     11  C   UNL     1      44.721   6.092  21.362  0.00  0.00    +0.000 A 
ATOM     12  C   UNL     1      45.041   6.492  20.100  0.00  0.00    +0.000 A 
ATOM     13  C   UNL     1      44.041   6.788  19.160  0.00  0.00    +0.000 A 
ATOM     14  C   UNL     1      42.689   6.675  19.512  0.00  0.00    +0.000 A 
ATOM     15  C   UNL     1      42.400   6.275  20.774  0.00  0.00    +0.000 A 
ATOM     16  C   UNL     1      43.401   5.990  21.679  0.00  0.00    +0.000 A 
BRANCH  14  17
ATOM     17  O   UNL     1      41.736   6.976  18.551  0.00  0.00    +0.000 OA
BRANCH  17  18
ATOM     18  C   UNL     1      40.699   7.885  18.597  0.00  0.00    +0.000 C 
BRANCH  18  19
ATOM     19  C   UNL     1      39.446   7.297  19.111  0.00  0.00    +0.000 C 
ATOM     20  C   UNL     1      38.994   7.766  20.455  0.00  0.00    +0.000 C 
ATOM     21  C   UNL     1      39.207   5.857  18.926  0.00  0.00    +0.000 C 
ENDBRANCH  18  19
ENDBRANCH  17  18
ENDBRANCH  14  17
ENDBRANCH   7  11
BRANCH   1  23
ATOM     22  C   UNL     1      44.305   8.467  28.144  0.00  0.00    +0.000 C 
ATOM     23  O   UNL     1      43.572   7.704  27.234  0.00  0.00    +0.000 OA
ENDBRANCH   1  23
BRANCH   6  24
ATOM     24  O   UNL     1      44.396   5.083  27.064  0.00  0.00    +0.000 OA
BRANCH  24  25
ATOM     25  C   UNL     1      43.408   4.077  27.012  0.00  0.00    +0.000 C 
BRANCH  25  26
ATOM     26  C   UNL     1      42.429   4.263  28.105  0.00  0.00    +0.000 A 
ATOM     27  C   UNL     1      41.423   5.180  27.928  0.00  0.00    +0.000 A 
ATOM     28  C   UNL     1      40.509   5.364  28.932  0.00  0.00    +0.000 A 
ATOM     29  C   UNL     1      40.562   4.659  30.119  0.00  0.00    +0.000 A 
ATOM     30  C   UNL     1      41.595   3.745  30.250  0.00  0.00    +0.000 A 
ATOM     31  C   UNL     1      42.535   3.519  29.285  0.00  0.00    +0.000 A 
ENDBRANCH  25  26
ENDBRANCH  24  25
ENDBRANCH   6  24
TORSDOF 8
ENDMDL
MODEL 10
REMARK VINA RESULT:      -6.6      5.459      9.533
REMARK  Name = 
REMARK  8 active torsions:
REMARK  status: ('A' for Active; 'I' for Inactive)
REMARK    1  A    between atoms: O_2  and  C_3
REMARK    2  A    between atoms: C_8  and  O_9
REMARK    3  A    between atoms: O_9  and  C_10
REMARK    4  A    between atoms: C_10  and  C_11
REMARK    5  A    between atoms: C_17  and  C_18
REMARK    6  A    between atoms: C_21  and  O_22
REMARK    7  A    between atoms: O_22  and  C_23
REMARK    8  A    between atoms: C_23  and  C_24
REMARK                            x       y       z     vdW  Elec       q    Type
REMARK                         _______ _______ _______ _____ _____    ______ ____
ROOT
ATOM      1  C   UNL     1      40.863  -1.769  14.576  0.00  0.00    +0.000 A 
ATOM      2  C   UNL     1      40.229  -2.507  15.568  0.00  0.00    +0.000 A 
ATOM      3  C   UNL     1      39.015  -2.036  16.066  0.00  0.00    +0.000 A 
ATOM      4  C   UNL     1      38.468  -0.915  15.613  0.00  0.00    +0.000 A 
ATOM      5  C   UNL     1      39.107  -0.194  14.629  0.00  0.00    +0.000 A 
ATOM      6  C   UNL     1      40.315  -0.606  14.092  0.00  0.00    +0.000 A 
ATOM      7  C   UNL     1      37.105  -0.325  16.139  0.00  0.00    +0.000 C 
ATOM      8  N   UNL     1      37.448  -0.651  17.654  0.00  0.00    +0.000 NA
ATOM      9  C   UNL     1      37.479  -1.991  17.902  0.00  0.00    +0.000 C 
ATOM     10  C   UNL     1      38.389  -2.863  17.110  0.00  0.00    +0.000 C 
ENDROOT
BRANCH   7  11
ATOM     11  C   UNL     1      36.178  -1.543  15.876  0.00  0.00    +0.000 A 
ATOM     12  C   UNL     1      36.441  -2.369  14.825  0.00  0.00    +0.000 A 
ATOM     13  C   UNL     1      35.625  -3.479  14.556  0.00  0.00    +0.000 A 
ATOM     14  C   UNL     1      34.519  -3.754  15.372  0.00  0.00    +0.000 A 
ATOM     15  C   UNL     1      34.281  -2.916  16.410  0.00  0.00    +0.000 A 
ATOM     16  C   UNL     1      35.098  -1.831  16.653  0.00  0.00    +0.000 A 
BRANCH  14  17
ATOM     17  O   UNL     1      33.742  -4.861  15.070  0.00  0.00    +0.000 OA
BRANCH  17  18
ATOM     18  C   UNL     1      33.996  -5.904  14.202  0.00  0.00    +0.000 C 
BRANCH  18  19
ATOM     19  C   UNL     1      33.834  -7.227  14.836  0.00  0.00    +0.000 C 
ATOM     20  C   UNL     1      34.543  -7.434  16.134  0.00  0.00    +0.000 C 
ATOM     21  C   UNL     1      33.880  -8.431  13.991  0.00  0.00    +0.000 C 
ENDBRANCH  18  19
ENDBRANCH  17  18
ENDBRANCH  14  17
ENDBRANCH   7  11
BRANCH   1  23
ATOM     22  C   UNL     1      42.135  -3.286  13.150  0.00  0.00    +0.000 C 
ATOM     23  O   UNL     1      42.070  -2.267  14.102  0.00  0.00    +0.000 OA
ENDBRANCH   1  23
BRANCH   6  24
ATOM     24  O   UNL     1      41.010   0.068  13.103  0.00  0.00    +0.000 OA
BRANCH  24  25
ATOM     25  C   UNL     1      40.384   0.231  11.849  0.00  0.00    +0.000 C 
BRANCH  25  26
ATOM     26  C   UNL     1      40.859  -0.799  10.901  0.00  0.00    +0.000 A 
ATOM     27  C   UNL     1      42.124  -0.674  10.383  0.00  0.00    +0.000 A 
ATOM     28  C   UNL     1      42.578  -1.620   9.503  0.00  0.00    +0.000 A 
ATOM     29  C   UNL     1      41.808  -2.700   9.116  0.00  0.00    +0.000 A 
ATOM     30  C   UNL     1      40.539  -2.783   9.666  0.00  0.00    +0.000 A 
ATOM     31  C   UNL     1      40.032  -1.871  10.547  0.00  0.00    +0.000 A 
ENDBRANCH  25  26
ENDBRANCH  24  25
ENDBRANCH   6  24
TORSDOF 8
ENDMDL
