MODEL 1
REMARK VINA RESULT:      -7.7      0.000      0.000
REMARK  Name = 
REMARK  3 active torsions:
REMARK  status: ('A' for Active; 'I' for Inactive)
REMARK    1  A    between atoms: C_7  and  N_8
REMARK    2  A    between atoms: C_9  and  C_11
REMARK    3  A    between atoms: C_16  and  N_17
REMARK                            x       y       z     vdW  Elec       q    Type
REMARK                         _______ _______ _______ _____ _____    ______ ____
ROOT
ATOM      1  N   UNL     1      16.388  10.708  36.427  0.00  0.00    +0.000 NA
ATOM      2  C   UNL     1      16.078  12.064  36.258  0.00  0.00    +0.000 C 
ATOM      3  O   UNL     1      16.397  12.873  37.163  0.00  0.00    +0.000 OA
ENDROOT
BRANCH   1  10
ATOM      4  C   UNL     1      16.224   9.575  41.192  0.00  0.00    +0.000 C 
ATOM      5  C   UNL     1      16.954   9.599  39.898  0.00  0.00    +0.000 A 
ATOM      6  C   UNL     1      18.230   9.083  39.849  0.00  0.00    +0.000 A 
ATOM      7  C   UNL     1      18.901   9.114  38.626  0.00  0.00    +0.000 A 
ATOM      8  C   UNL     1      18.312   9.643  37.496  0.00  0.00    +0.000 A 
ATOM      9  C   UNL     1      19.066   9.652  36.217  0.00  0.00    +0.000 C 
ATOM     10  C   UNL     1      17.038  10.158  37.544  0.00  0.00    +0.000 A 
ATOM     11  C   UNL     1      16.377  10.126  38.755  0.00  0.00    +0.000 A 
ENDBRANCH   1  10
BRANCH   2  12
ATOM     12  C   UNL     1      15.400  12.482  35.039  0.00  0.00    +0.000 A 
ATOM     13  C   UNL     1      14.376  13.415  35.091  0.00  0.00    +0.000 A 
ATOM     14  C   UNL     1      13.753  13.790  33.917  0.00  0.00    +0.000 A 
ATOM     15  C   UNL     1      14.089  13.285  32.678  0.00  0.00    +0.000 A 
ATOM     16  C   UNL     1      13.380  13.726  31.435  0.00  0.00    +0.000 C 
ATOM     17  C   UNL     1      15.108  12.357  32.637  0.00  0.00    +0.000 A 
ATOM     18  C   UNL     1      15.752  11.965  33.810  0.00  0.00    +0.000 A 
BRANCH  17  19
ATOM     19  N   UNL     1      15.470  11.827  31.373  0.00  0.00    +0.000 N 
ATOM     20  O   UNL     1      15.022  10.783  30.889  0.00  0.00    +0.000 OA
ATOM     21  O   UNL     1      16.390  12.537  30.638  0.00  0.00    +0.000 OA
ENDBRANCH  17  19
ENDBRANCH   2  12
TORSDOF 3
ENDMDL
MODEL 2
REMARK VINA RESULT:      -7.6      2.294      7.248
REMARK  Name = 
REMARK  3 active torsions:
REMARK  status: ('A' for Active; 'I' for Inactive)
REMARK    1  A    between atoms: C_7  and  N_8
REMARK    2  A    between atoms: C_9  and  C_11
REMARK    3  A    between atoms: C_16  and  N_17
REMARK                            x       y       z     vdW  Elec       q    Type
REMARK                         _______ _______ _______ _____ _____    ______ ____
ROOT
ATOM      1  N   UNL     1      15.405  11.263  34.973  0.00  0.00    +0.000 NA
ATOM      2  C   UNL     1      16.247  11.716  35.996  0.00  0.00    +0.000 C 
ATOM      3  O   UNL     1      17.061  12.638  35.744  0.00  0.00    +0.000 OA
ENDROOT
BRANCH   1  10
ATOM      4  C   UNL     1      13.568  14.479  31.763  0.00  0.00    +0.000 C 
ATOM      5  C   UNL     1      14.480  13.347  32.075  0.00  0.00    +0.000 A 
ATOM      6  C   UNL     1      15.265  12.833  31.066  0.00  0.00    +0.000 A 
ATOM      7  C   UNL     1      16.114  11.771  31.377  0.00  0.00    +0.000 A 
ATOM      8  C   UNL     1      16.172  11.245  32.650  0.00  0.00    +0.000 A 
ATOM      9  C   UNL     1      17.093  10.114  32.932  0.00  0.00    +0.000 C 
ATOM     10  C   UNL     1      15.388  11.757  33.657  0.00  0.00    +0.000 A 
ATOM     11  C   UNL     1      14.549  12.808  33.348  0.00  0.00    +0.000 A 
ENDBRANCH   1  10
BRANCH   2  12
ATOM     12  C   UNL     1      16.144  11.102  37.313  0.00  0.00    +0.000 A 
ATOM     13  C   UNL     1      14.936  11.099  37.993  0.00  0.00    +0.000 A 
ATOM     14  C   UNL     1      14.871  10.509  39.239  0.00  0.00    +0.000 A 
ATOM     15  C   UNL     1      15.950   9.913  39.859  0.00  0.00    +0.000 A 
ATOM     16  C   UNL     1      15.826   9.287  41.214  0.00  0.00    +0.000 C 
ATOM     17  C   UNL     1      17.147   9.922  39.175  0.00  0.00    +0.000 A 
ATOM     18  C   UNL     1      17.234  10.511  37.915  0.00  0.00    +0.000 A 
BRANCH  17  19
ATOM     19  N   UNL     1      18.267   9.314  39.796  0.00  0.00    +0.000 N 
ATOM     20  O   UNL     1      18.990   9.855  40.638  0.00  0.00    +0.000 OA
ATOM     21  O   UNL     1      18.564   8.024  39.424  0.00  0.00    +0.000 OA
ENDBRANCH  17  19
ENDBRANCH   2  12
TORSDOF 3
ENDMDL
MODEL 3
REMARK VINA RESULT:      -7.6      2.258      7.456
REMARK  Name = 
REMARK  3 active torsions:
REMARK  status: ('A' for Active; 'I' for Inactive)
REMARK    1  A    between atoms: C_7  and  N_8
REMARK    2  A    between atoms: C_9  and  C_11
REMARK    3  A    between atoms: C_16  and  N_17
REMARK                            x       y       z     vdW  Elec       q    Type
REMARK                         _______ _______ _______ _____ _____    ______ ____
ROOT
ATOM      1  N   UNL     1      15.640  11.336  35.615  0.00  0.00    +0.000 NA
ATOM      2  C   UNL     1      16.597  11.750  36.549  0.00  0.00    +0.000 C 
ATOM      3  O   UNL     1      16.977  12.946  36.535  0.00  0.00    +0.000 OA
ENDROOT
BRANCH   1  10
ATOM      4  C   UNL     1      12.764  15.170  34.590  0.00  0.00    +0.000 C 
ATOM      5  C   UNL     1      13.631  14.051  34.135  0.00  0.00    +0.000 A 
ATOM      6  C   UNL     1      13.820  13.868  32.783  0.00  0.00    +0.000 A 
ATOM      7  C   UNL     1      14.637  12.814  32.374  0.00  0.00    +0.000 A 
ATOM      8  C   UNL     1      15.240  11.976  33.289  0.00  0.00    +0.000 A 
ATOM      9  C   UNL     1      16.101  10.867  32.804  0.00  0.00    +0.000 C 
ATOM     10  C   UNL     1      15.051  12.157  34.638  0.00  0.00    +0.000 A 
ATOM     11  C   UNL     1      14.243  13.201  35.040  0.00  0.00    +0.000 A 
ENDBRANCH   1  10
BRANCH   2  12
ATOM     12  C   UNL     1      17.114  10.777  37.502  0.00  0.00    +0.000 A 
ATOM     13  C   UNL     1      18.274  10.072  37.225  0.00  0.00    +0.000 A 
ATOM     14  C   UNL     1      18.737   9.156  38.148  0.00  0.00    +0.000 A 
ATOM     15  C   UNL     1      18.108   8.895  39.348  0.00  0.00    +0.000 A 
ATOM     16  C   UNL     1      18.652   7.890  40.315  0.00  0.00    +0.000 C 
ATOM     17  C   UNL     1      16.954   9.601  39.614  0.00  0.00    +0.000 A 
ATOM     18  C   UNL     1      16.469  10.531  38.696  0.00  0.00    +0.000 A 
BRANCH  17  19
ATOM     19  N   UNL     1      16.292   9.348  40.842  0.00  0.00    +0.000 N 
ATOM     20  O   UNL     1      15.327   8.590  40.983  0.00  0.00    +0.000 OA
ATOM     21  O   UNL     1      16.768  10.001  41.954  0.00  0.00    +0.000 OA
ENDBRANCH  17  19
ENDBRANCH   2  12
TORSDOF 3
ENDMDL
MODEL 4
REMARK VINA RESULT:      -6.6      2.951      4.995
REMARK  Name = 
REMARK  3 active torsions:
REMARK  status: ('A' for Active; 'I' for Inactive)
REMARK    1  A    between atoms: C_7  and  N_8
REMARK    2  A    between atoms: C_9  and  C_11
REMARK    3  A    between atoms: C_16  and  N_17
REMARK                            x       y       z     vdW  Elec       q    Type
REMARK                         _______ _______ _______ _____ _____    ______ ____
ROOT
ATOM      1  N   UNL     1      16.589   9.127  40.329  0.00  0.00    +0.000 NA
ATOM      2  C   UNL     1      17.718   9.589  39.641  0.00  0.00    +0.000 C 
ATOM      3  O   UNL     1      18.790   9.743  40.276  0.00  0.00    +0.000 OA
ENDROOT
BRANCH   1  10
ATOM      4  C   UNL     1      16.015  10.696  44.936  0.00  0.00    +0.000 C 
ATOM      5  C   UNL     1      16.260   9.591  43.972  0.00  0.00    +0.000 A 
ATOM      6  C   UNL     1      16.432   8.314  44.459  0.00  0.00    +0.000 A 
ATOM      7  C   UNL     1      16.661   7.290  43.540  0.00  0.00    +0.000 A 
ATOM      8  C   UNL     1      16.716   7.540  42.185  0.00  0.00    +0.000 A 
ATOM      9  C   UNL     1      16.962   6.415  41.245  0.00  0.00    +0.000 C 
ATOM     10  C   UNL     1      16.544   8.814  41.698  0.00  0.00    +0.000 A 
ATOM     11  C   UNL     1      16.318   9.825  42.609  0.00  0.00    +0.000 A 
ENDBRANCH   1  10
BRANCH   2  12
ATOM     12  C   UNL     1      17.606   9.870  38.216  0.00  0.00    +0.000 A 
ATOM     13  C   UNL     1      18.459   9.259  37.311  0.00  0.00    +0.000 A 
ATOM     14  C   UNL     1      18.327   9.548  35.968  0.00  0.00    +0.000 A 
ATOM     15  C   UNL     1      17.385  10.419  35.462  0.00  0.00    +0.000 A 
ATOM     16  C   UNL     1      17.284  10.698  33.994  0.00  0.00    +0.000 C 
ATOM     17  C   UNL     1      16.541  11.023  36.371  0.00  0.00    +0.000 A 
ATOM     18  C   UNL     1      16.657  10.745  37.732  0.00  0.00    +0.000 A 
BRANCH  17  19
ATOM     19  N   UNL     1      15.566  11.922  35.871  0.00  0.00    +0.000 N 
ATOM     20  O   UNL     1      14.477  11.591  35.392  0.00  0.00    +0.000 OA
ATOM     21  O   UNL     1      15.864  13.263  35.929  0.00  0.00    +0.000 OA
ENDBRANCH  17  19
ENDBRANCH   2  12
TORSDOF 3
ENDMDL
MODEL 5
REMARK VINA RESULT:      -6.5     19.702     21.688
REMARK  Name = 
REMARK  3 active torsions:
REMARK  status: ('A' for Active; 'I' for Inactive)
REMARK    1  A    between atoms: C_7  and  N_8
REMARK    2  A    between atoms: C_9  and  C_11
REMARK    3  A    between atoms: C_16  and  N_17
REMARK                            x       y       z     vdW  Elec       q    Type
REMARK                         _______ _______ _______ _____ _____    ______ ____
ROOT
ATOM      1  N   UNL     1      34.195  -1.066  34.357  0.00  0.00    +0.000 NA
ATOM      2  C   UNL     1      33.168  -0.155  34.634  0.00  0.00    +0.000 C 
ATOM      3  O   UNL     1      32.016  -0.594  34.864  0.00  0.00    +0.000 OA
ENDROOT
BRANCH   1  10
ATOM      4  C   UNL     1      33.169  -5.056  31.703  0.00  0.00    +0.000 C 
ATOM      5  C   UNL     1      33.542  -4.432  32.999  0.00  0.00    +0.000 A 
ATOM      6  C   UNL     1      33.728  -5.244  34.095  0.00  0.00    +0.000 A 
ATOM      7  C   UNL     1      34.078  -4.641  35.303  0.00  0.00    +0.000 A 
ATOM      8  C   UNL     1      34.234  -3.275  35.406  0.00  0.00    +0.000 A 
ATOM      9  C   UNL     1      34.608  -2.680  36.715  0.00  0.00    +0.000 C 
ATOM     10  C   UNL     1      34.049  -2.463  34.313  0.00  0.00    +0.000 A 
ATOM     11  C   UNL     1      33.703  -3.062  33.118  0.00  0.00    +0.000 A 
ENDBRANCH   1  10
BRANCH   2  12
ATOM     12  C   UNL     1      33.479   1.269  34.644  0.00  0.00    +0.000 A 
ATOM     13  C   UNL     1      33.390   2.015  33.479  0.00  0.00    +0.000 A 
ATOM     14  C   UNL     1      33.691   3.361  33.522  0.00  0.00    +0.000 A 
ATOM     15  C   UNL     1      34.082   4.021  34.669  0.00  0.00    +0.000 A 
ATOM     16  C   UNL     1      34.398   5.484  34.662  0.00  0.00    +0.000 C 
ATOM     17  C   UNL     1      34.168   3.270  35.823  0.00  0.00    +0.000 A 
ATOM     18  C   UNL     1      33.867   1.909  35.802  0.00  0.00    +0.000 A 
BRANCH  17  19
ATOM     19  N   UNL     1      34.567   3.929  37.012  0.00  0.00    +0.000 N 
ATOM     20  O   UNL     1      35.736   4.086  37.377  0.00  0.00    +0.000 OA
ATOM     21  O   UNL     1      33.568   4.428  37.816  0.00  0.00    +0.000 OA
ENDBRANCH  17  19
ENDBRANCH   2  12
TORSDOF 3
ENDMDL
MODEL 6
REMARK VINA RESULT:      -6.4      3.003      4.834
REMARK  Name = 
REMARK  3 active torsions:
REMARK  status: ('A' for Active; 'I' for Inactive)
REMARK    1  A    between atoms: C_7  and  N_8
REMARK    2  A    between atoms: C_9  and  C_11
REMARK    3  A    between atoms: C_16  and  N_17
REMARK                            x       y       z     vdW  Elec       q    Type
REMARK                         _______ _______ _______ _____ _____    ______ ____
ROOT
ATOM      1  N   UNL     1      19.394  11.047  37.669  0.00  0.00    +0.000 NA
ATOM      2  C   UNL     1      18.337  10.225  38.079  0.00  0.00    +0.000 C 
ATOM      3  O   UNL     1      18.602   9.155  38.679  0.00  0.00    +0.000 OA
ENDROOT
BRANCH   1  10
ATOM      4  C   UNL     1      23.490   8.894  36.056  0.00  0.00    +0.000 C 
ATOM      5  C   UNL     1      22.779   9.713  37.073  0.00  0.00    +0.000 A 
ATOM      6  C   UNL     1      23.483  10.169  38.165  0.00  0.00    +0.000 A 
ATOM      7  C   UNL     1      22.801  10.936  39.108  0.00  0.00    +0.000 A 
ATOM      8  C   UNL     1      21.462  11.232  38.961  0.00  0.00    +0.000 A 
ATOM      9  C   UNL     1      20.778  12.053  39.993  0.00  0.00    +0.000 C 
ATOM     10  C   UNL     1      20.758  10.777  37.872  0.00  0.00    +0.000 A 
ATOM     11  C   UNL     1      21.436  10.018  36.940  0.00  0.00    +0.000 A 
ENDBRANCH   1  10
BRANCH   2  12
ATOM     12  C   UNL     1      16.971  10.645  37.795  0.00  0.00    +0.000 A 
ATOM     13  C   UNL     1      15.993  10.557  38.773  0.00  0.00    +0.000 A 
ATOM     14  C   UNL     1      14.708  10.963  38.472  0.00  0.00    +0.000 A 
ATOM     15  C   UNL     1      14.331  11.456  37.240  0.00  0.00    +0.000 A 
ATOM     16  C   UNL     1      12.922  11.881  36.965  0.00  0.00    +0.000 C 
ATOM     17  C   UNL     1      15.311  11.538  36.274  0.00  0.00    +0.000 A 
ATOM     18  C   UNL     1      16.615  11.135  36.557  0.00  0.00    +0.000 A 
BRANCH  17  19
ATOM     19  N   UNL     1      14.944  12.043  35.001  0.00  0.00    +0.000 N 
ATOM     20  O   UNL     1      14.963  11.395  33.950  0.00  0.00    +0.000 OA
ATOM     21  O   UNL     1      14.537  13.355  34.943  0.00  0.00    +0.000 OA
ENDBRANCH  17  19
ENDBRANCH   2  12
TORSDOF 3
ENDMDL
MODEL 7
REMARK VINA RESULT:      -6.3     18.855     20.912
REMARK  Name = 
REMARK  3 active torsions:
REMARK  status: ('A' for Active; 'I' for Inactive)
REMARK    1  A    between atoms: C_7  and  N_8
REMARK    2  A    between atoms: C_9  and  C_11
REMARK    3  A    between atoms: C_16  and  N_17
REMARK                            x       y       z     vdW  Elec       q    Type
REMARK                         _______ _______ _______ _____ _____    ______ ____
ROOT
ATOM      1  N   UNL     1      30.243  22.215  26.977  0.00  0.00    +0.000 NA
ATOM      2  C   UNL     1      30.628  23.064  28.022  0.00  0.00    +0.000 C 
ATOM      3  O   UNL     1      30.271  24.267  27.986  0.00  0.00    +0.000 OA
ENDROOT
BRANCH   1  10
ATOM      4  C   UNL     1      25.798  22.972  25.057  0.00  0.00    +0.000 C 
ATOM      5  C   UNL     1      27.279  22.969  24.918  0.00  0.00    +0.000 A 
ATOM      6  C   UNL     1      27.831  23.338  23.712  0.00  0.00    +0.000 A 
ATOM      7  C   UNL     1      29.221  23.330  23.600  0.00  0.00    +0.000 A 
ATOM      8  C   UNL     1      30.025  22.965  24.660  0.00  0.00    +0.000 A 
ATOM      9  C   UNL     1      31.501  22.972  24.492  0.00  0.00    +0.000 C 
ATOM     10  C   UNL     1      29.475  22.596  25.864  0.00  0.00    +0.000 A 
ATOM     11  C   UNL     1      28.099  22.605  25.972  0.00  0.00    +0.000 A 
ENDBRANCH   1  10
BRANCH   2  12
ATOM     12  C   UNL     1      31.427  22.518  29.111  0.00  0.00    +0.000 A 
ATOM     13  C   UNL     1      32.679  21.977  28.860  0.00  0.00    +0.000 A 
ATOM     14  C   UNL     1      33.411  21.467  29.913  0.00  0.00    +0.000 A 
ATOM     15  C   UNL     1      32.968  21.462  31.220  0.00  0.00    +0.000 A 
ATOM     16  C   UNL     1      33.803  20.895  32.327  0.00  0.00    +0.000 C 
ATOM     17  C   UNL     1      31.722  22.001  31.460  0.00  0.00    +0.000 A 
ATOM     18  C   UNL     1      30.966  22.522  30.411  0.00  0.00    +0.000 A 
BRANCH  17  19
ATOM     19  N   UNL     1      31.249  22.005  32.796  0.00  0.00    +0.000 N 
ATOM     20  O   UNL     1      30.550  21.122  33.302  0.00  0.00    +0.000 OA
ATOM     21  O   UNL     1      31.600  23.079  33.579  0.00  0.00    +0.000 OA
ENDBRANCH  17  19
ENDBRANCH   2  12
TORSDOF 3
ENDMDL
MODEL 8
REMARK VINA RESULT:      -6.2     21.709     23.548
REMARK  Name = 
REMARK  3 active torsions:
REMARK  status: ('A' for Active; 'I' for Inactive)
REMARK    1  A    between atoms: C_7  and  N_8
REMARK    2  A    between atoms: C_9  and  C_11
REMARK    3  A    between atoms: C_16  and  N_17
REMARK                            x       y       z     vdW  Elec       q    Type
REMARK                         _______ _______ _______ _____ _____    ______ ____
ROOT
ATOM      1  N   UNL     1      28.638  25.328  23.660  0.00  0.00    +0.000 NA
ATOM      2  C   UNL     1      29.054  25.154  22.335  0.00  0.00    +0.000 C 
ATOM      3  O   UNL     1      29.222  23.988  21.902  0.00  0.00    +0.000 OA
ENDROOT
BRANCH   1  10
ATOM      4  C   UNL     1      30.426  22.102  26.888  0.00  0.00    +0.000 C 
ATOM      5  C   UNL     1      29.271  22.699  26.167  0.00  0.00    +0.000 A 
ATOM      6  C   UNL     1      28.008  22.212  26.424  0.00  0.00    +0.000 A 
ATOM      7  C   UNL     1      26.936  22.783  25.739  0.00  0.00    +0.000 A 
ATOM      8  C   UNL     1      27.125  23.804  24.831  0.00  0.00    +0.000 A 
ATOM      9  C   UNL     1      25.951  24.381  24.126  0.00  0.00    +0.000 C 
ATOM     10  C   UNL     1      28.385  24.290  24.574  0.00  0.00    +0.000 A 
ATOM     11  C   UNL     1      29.444  23.723  25.253  0.00  0.00    +0.000 A 
ENDBRANCH   1  10
BRANCH   2  12
ATOM     12  C   UNL     1      29.275  26.334  21.509  0.00  0.00    +0.000 A 
ATOM     13  C   UNL     1      29.004  27.599  22.006  0.00  0.00    +0.000 A 
ATOM     14  C   UNL     1      29.224  28.696  21.198  0.00  0.00    +0.000 A 
ATOM     15  C   UNL     1      29.702  28.611  19.907  0.00  0.00    +0.000 A 
ATOM     16  C   UNL     1      29.923  29.835  19.072  0.00  0.00    +0.000 C 
ATOM     17  C   UNL     1      29.968  27.349  19.421  0.00  0.00    +0.000 A 
ATOM     18  C   UNL     1      29.754  26.227  20.220  0.00  0.00    +0.000 A 
BRANCH  17  19
ATOM     19  N   UNL     1      30.461  27.240  18.097  0.00  0.00    +0.000 N 
ATOM     20  O   UNL     1      29.759  27.134  17.086  0.00  0.00    +0.000 OA
ATOM     21  O   UNL     1      31.826  27.254  17.935  0.00  0.00    +0.000 OA
ENDBRANCH  17  19
ENDBRANCH   2  12
TORSDOF 3
ENDMDL
MODEL 9
REMARK VINA RESULT:      -6.2     21.630     23.517
REMARK  Name = 
REMARK  3 active torsions:
REMARK  status: ('A' for Active; 'I' for Inactive)
REMARK    1  A    between atoms: C_7  and  N_8
REMARK    2  A    between atoms: C_9  and  C_11
REMARK    3  A    between atoms: C_16  and  N_17
REMARK                            x       y       z     vdW  Elec       q    Type
REMARK                         _______ _______ _______ _____ _____    ______ ____
ROOT
ATOM      1  N   UNL     1      20.552  -7.394  25.171  0.00  0.00    +0.000 NA
ATOM      2  C   UNL     1      21.664  -8.148  25.563  0.00  0.00    +0.000 C 
ATOM      3  O   UNL     1      21.542  -8.954  26.518  0.00  0.00    +0.000 OA
ENDROOT
BRANCH   1  10
ATOM      4  C   UNL     1      16.640 -10.106  26.336  0.00  0.00    +0.000 C 
ATOM      5  C   UNL     1      17.349  -8.800  26.338  0.00  0.00    +0.000 A 
ATOM      6  C   UNL     1      16.732  -7.713  26.918  0.00  0.00    +0.000 A 
ATOM      7  C   UNL     1      17.412  -6.496  26.911  0.00  0.00    +0.000 A 
ATOM      8  C   UNL     1      18.663  -6.374  26.343  0.00  0.00    +0.000 A 
ATOM      9  C   UNL     1      19.347  -5.056  26.361  0.00  0.00    +0.000 C 
ATOM     10  C   UNL     1      19.279  -7.458  25.764  0.00  0.00    +0.000 A 
ATOM     11  C   UNL     1      18.604  -8.661  25.772  0.00  0.00    +0.000 A 
ENDBRANCH   1  10
BRANCH   2  12
ATOM     12  C   UNL     1      22.921  -7.969  24.847  0.00  0.00    +0.000 A 
ATOM     13  C   UNL     1      23.350  -6.700  24.490  0.00  0.00    +0.000 A 
ATOM     14  C   UNL     1      24.544  -6.565  23.811  0.00  0.00    +0.000 A 
ATOM     15  C   UNL     1      25.349  -7.628  23.460  0.00  0.00    +0.000 A 
ATOM     16  C   UNL     1      26.636  -7.426  22.723  0.00  0.00    +0.000 C 
ATOM     17  C   UNL     1      24.913  -8.887  23.819  0.00  0.00    +0.000 A 
ATOM     18  C   UNL     1      23.710  -9.046  24.505  0.00  0.00    +0.000 A 
BRANCH  17  19
ATOM     19  N   UNL     1      25.726  -9.993  23.467  0.00  0.00    +0.000 N 
ATOM     20  O   UNL     1      25.657 -10.613  22.401  0.00  0.00    +0.000 OA
ATOM     21  O   UNL     1      26.660 -10.401  24.391  0.00  0.00    +0.000 OA
ENDBRANCH  17  19
ENDBRANCH   2  12
TORSDOF 3
ENDMDL
MODEL 10
REMARK VINA RESULT:      -6.1      4.983      8.552
REMARK  Name = 
REMARK  3 active torsions:
REMARK  status: ('A' for Active; 'I' for Inactive)
REMARK    1  A    between atoms: C_7  and  N_8
REMARK    2  A    between atoms: C_9  and  C_11
REMARK    3  A    between atoms: C_16  and  N_17
REMARK                            x       y       z     vdW  Elec       q    Type
REMARK                         _______ _______ _______ _____ _____    ______ ____
ROOT
ATOM      1  N   UNL     1      19.957  10.647  37.998  0.00  0.00    +0.000 NA
ATOM      2  C   UNL     1      20.694   9.983  37.010  0.00  0.00    +0.000 C 
ATOM      3  O   UNL     1      20.078   9.442  36.059  0.00  0.00    +0.000 OA
ENDROOT
BRANCH   1  10
ATOM      4  C   UNL     1      15.941  12.841  36.246  0.00  0.00    +0.000 C 
ATOM      5  C   UNL     1      16.575  11.852  37.156  0.00  0.00    +0.000 A 
ATOM      6  C   UNL     1      15.769  11.099  37.981  0.00  0.00    +0.000 A 
ATOM      7  C   UNL     1      16.382  10.176  38.828  0.00  0.00    +0.000 A 
ATOM      8  C   UNL     1      17.752  10.016  38.846  0.00  0.00    +0.000 A 
ATOM      9  C   UNL     1      18.358   9.019  39.766  0.00  0.00    +0.000 C 
ATOM     10  C   UNL     1      18.557  10.767  38.024  0.00  0.00    +0.000 A 
ATOM     11  C   UNL     1      17.948  11.679  37.186  0.00  0.00    +0.000 A 
ENDBRANCH   1  10
BRANCH   2  12
ATOM     12  C   UNL     1      22.146   9.946  37.123  0.00  0.00    +0.000 A 
ATOM     13  C   UNL     1      22.941  10.052  35.992  0.00  0.00    +0.000 A 
ATOM     14  C   UNL     1      24.313  10.013  36.133  0.00  0.00    +0.000 A 
ATOM     15  C   UNL     1      24.953   9.872  37.347  0.00  0.00    +0.000 A 
ATOM     16  C   UNL     1      26.447   9.834  37.445  0.00  0.00    +0.000 C 
ATOM     17  C   UNL     1      24.154   9.766  38.466  0.00  0.00    +0.000 A 
ATOM     18  C   UNL     1      22.766   9.804  38.346  0.00  0.00    +0.000 A 
BRANCH  17  19
ATOM     19  N   UNL     1      24.792   9.621  39.723  0.00  0.00    +0.000 N 
ATOM     20  O   UNL     1      25.102   8.543  40.240  0.00  0.00    +0.000 OA
ATOM     21  O   UNL     1      25.084  10.775  40.412  0.00  0.00    +0.000 OA
ENDBRANCH  17  19
ENDBRANCH   2  12
TORSDOF 3
ENDMDL
