MODEL 1
REMARK VINA RESULT:      -8.2      0.000      0.000
REMARK  Name = 
REMARK  8 active torsions:
REMARK  status: ('A' for Active; 'I' for Inactive)
REMARK    1  A    between atoms: C_2  and  O_3
REMARK    2  A    between atoms: O_3  and  C_4
REMARK    3  A    between atoms: C_7  and  O_8
REMARK    4  A    between atoms: O_8  and  C_9
REMARK    5  A    between atoms: C_9  and  C_10
REMARK    6  A    between atoms: C_13  and  C_14
REMARK    7  A    between atoms: N_16  and  N_17
REMARK    8  A    between atoms: N_17  and  C_18
REMARK                            x       y       z     vdW  Elec       q    Type
REMARK                         _______ _______ _______ _____ _____    ______ ____
ROOT
ATOM      1  C   UNL     1      40.121   5.850  17.923  0.00  0.00    +0.000 A 
ATOM      2  C   UNL     1      40.243   5.749  16.553  0.00  0.00    +0.000 A 
ATOM      3  C   UNL     1      39.376   4.961  15.816  0.00  0.00    +0.000 A 
ATOM      4  C   UNL     1      38.361   4.249  16.415  0.00  0.00    +0.000 A 
ATOM      5  C   UNL     1      38.262   4.368  17.783  0.00  0.00    +0.000 A 
ATOM      6  C   UNL     1      39.106   5.138  18.529  0.00  0.00    +0.000 A 
ENDROOT
BRANCH   4   7
ATOM      7  C   UNL     1      37.412   3.414  15.667  0.00  0.00    +0.000 C 
ATOM      8  O   UNL     1      36.411   3.938  15.153  0.00  0.00    +0.000 OA
ATOM      9  N   UNL     1      37.695   2.047  15.573  0.00  0.00    +0.000 NA
BRANCH   9  10
ATOM     10  N   UNL     1      36.866   1.168  14.892  0.00  0.00    +0.000 NA
BRANCH  10  11
ATOM     11  C   UNL     1      36.122   0.155  15.582  0.00  0.00    +0.000 C 
ATOM     12  C   UNL     1      35.263   0.367  16.531  0.00  0.00    +0.000 C 
ATOM     13  C   UNL     1      34.500  -0.643  17.242  0.00  0.00    +0.000 C 
ATOM     14  C   UNL     1      34.664  -2.042  16.832  0.00  0.00    +0.000 C 
ATOM     15  C   UNL     1      35.646  -2.260  15.770  0.00  0.00    +0.000 A 
ATOM     16  C   UNL     1      35.876  -3.589  15.356  0.00  0.00    +0.000 A 
ATOM     17  C   UNL     1      36.781  -3.870  14.360  0.00  0.00    +0.000 A 
ATOM     18  C   UNL     1      37.444  -2.825  13.789  0.00  0.00    +0.000 A 
ATOM     19  C   UNL     1      37.254  -1.523  14.156  0.00  0.00    +0.000 A 
ATOM     20  C   UNL     1      36.331  -1.238  15.172  0.00  0.00    +0.000 A 
ENDBRANCH  10  11
ENDBRANCH   9  10
ENDBRANCH   4   7
BRANCH   1  21
ATOM     21  C   UNL     1      41.044   6.694  18.739  0.00  0.00    +0.000 C 
BRANCH  21  22
ATOM     22  O   UNL     1      40.542   6.949  20.029  0.00  0.00    +0.000 OA
BRANCH  22  26
ATOM     23  C   UNL     1      38.701  10.677  20.768  0.00  0.00    +0.000 A 
ATOM     24  C   UNL     1      37.970   9.520  20.661  0.00  0.00    +0.000 A 
ATOM     25  C   UNL     1      38.537   8.285  20.420  0.00  0.00    +0.000 A 
ATOM     26  C   UNL     1      39.912   8.158  20.273  0.00  0.00    +0.000 A 
ATOM     27  C   UNL     1      40.642   9.335  20.384  0.00  0.00    +0.000 A 
ATOM     28  C   UNL     1      40.079  10.567  20.623  0.00  0.00    +0.000 A 
BRANCH  23  29
ATOM     29  O   UNL     1      38.114  11.923  21.012  0.00  0.00    +0.000 OA
BRANCH  29  31
ATOM     30  C   UNL     1      38.583  13.315  22.857  0.00  0.00    +0.000 C 
ATOM     31  C   UNL     1      38.888  13.040  21.399  0.00  0.00    +0.000 C 
ENDBRANCH  29  31
ENDBRANCH  23  29
ENDBRANCH  22  26
ENDBRANCH  21  22
ENDBRANCH   1  21
TORSDOF 8
ENDMDL
MODEL 2
REMARK VINA RESULT:      -8.1     23.114     26.982
REMARK  Name = 
REMARK  8 active torsions:
REMARK  status: ('A' for Active; 'I' for Inactive)
REMARK    1  A    between atoms: C_2  and  O_3
REMARK    2  A    between atoms: O_3  and  C_4
REMARK    3  A    between atoms: C_7  and  O_8
REMARK    4  A    between atoms: O_8  and  C_9
REMARK    5  A    between atoms: C_9  and  C_10
REMARK    6  A    between atoms: C_13  and  C_14
REMARK    7  A    between atoms: N_16  and  N_17
REMARK    8  A    between atoms: N_17  and  C_18
REMARK                            x       y       z     vdW  Elec       q    Type
REMARK                         _______ _______ _______ _____ _____    ______ ____
ROOT
ATOM      1  C   UNL     1      12.048   0.149  26.897  0.00  0.00    +0.000 A 
ATOM      2  C   UNL     1      12.708  -0.905  26.302  0.00  0.00    +0.000 A 
ATOM      3  C   UNL     1      14.091  -0.981  26.319  0.00  0.00    +0.000 A 
ATOM      4  C   UNL     1      14.860  -0.014  26.928  0.00  0.00    +0.000 A 
ATOM      5  C   UNL     1      14.174   1.026  27.513  0.00  0.00    +0.000 A 
ATOM      6  C   UNL     1      12.813   1.122  27.507  0.00  0.00    +0.000 A 
ENDROOT
BRANCH   4   7
ATOM      7  C   UNL     1      16.326  -0.067  26.980  0.00  0.00    +0.000 C 
ATOM      8  O   UNL     1      16.923   0.476  27.923  0.00  0.00    +0.000 OA
ATOM      9  N   UNL     1      16.983  -0.738  25.942  0.00  0.00    +0.000 NA
BRANCH   9  10
ATOM     10  N   UNL     1      18.364  -0.846  25.892  0.00  0.00    +0.000 NA
BRANCH  10  11
ATOM     11  C   UNL     1      19.129  -0.193  24.870  0.00  0.00    +0.000 C 
ATOM     12  C   UNL     1      19.442   1.067  24.854  0.00  0.00    +0.000 C 
ATOM     13  C   UNL     1      20.214   1.748  23.831  0.00  0.00    +0.000 C 
ATOM     14  C   UNL     1      20.743   0.946  22.722  0.00  0.00    +0.000 C 
ATOM     15  C   UNL     1      20.368  -0.467  22.754  0.00  0.00    +0.000 A 
ATOM     16  C   UNL     1      20.816  -1.285  21.695  0.00  0.00    +0.000 A 
ATOM     17  C   UNL     1      20.507  -2.625  21.659  0.00  0.00    +0.000 A 
ATOM     18  C   UNL     1      19.757  -3.132  22.678  0.00  0.00    +0.000 A 
ATOM     19  C   UNL     1      19.302  -2.379  23.723  0.00  0.00    +0.000 A 
ATOM     20  C   UNL     1      19.617  -1.014  23.758  0.00  0.00    +0.000 A 
ENDBRANCH  10  11
ENDBRANCH   9  10
ENDBRANCH   4   7
BRANCH   1  21
ATOM     21  C   UNL     1      10.557   0.252  26.891  0.00  0.00    +0.000 C 
BRANCH  21  22
ATOM     22  O   UNL     1      10.084   1.164  25.928  0.00  0.00    +0.000 OA
BRANCH  22  26
ATOM     23  C   UNL     1       6.743   0.148  23.554  0.00  0.00    +0.000 A 
ATOM     24  C   UNL     1       7.775  -0.733  23.760  0.00  0.00    +0.000 A 
ATOM     25  C   UNL     1       8.882  -0.436  24.529  0.00  0.00    +0.000 A 
ATOM     26  C   UNL     1       9.000   0.804  25.145  0.00  0.00    +0.000 A 
ATOM     27  C   UNL     1       7.949   1.687  24.930  0.00  0.00    +0.000 A 
ATOM     28  C   UNL     1       6.845   1.393  24.163  0.00  0.00    +0.000 A 
BRANCH  23  29
ATOM     29  O   UNL     1       5.626  -0.164  22.772  0.00  0.00    +0.000 OA
BRANCH  29  31
ATOM     30  C   UNL     1       4.701  -2.257  22.196  0.00  0.00    +0.000 C 
ATOM     31  C   UNL     1       5.675  -1.173  21.782  0.00  0.00    +0.000 C 
ENDBRANCH  29  31
ENDBRANCH  23  29
ENDBRANCH  22  26
ENDBRANCH  21  22
ENDBRANCH   1  21
TORSDOF 8
ENDMDL
MODEL 3
REMARK VINA RESULT:      -8.0      2.748      4.659
REMARK  Name = 
REMARK  8 active torsions:
REMARK  status: ('A' for Active; 'I' for Inactive)
REMARK    1  A    between atoms: C_2  and  O_3
REMARK    2  A    between atoms: O_3  and  C_4
REMARK    3  A    between atoms: C_7  and  O_8
REMARK    4  A    between atoms: O_8  and  C_9
REMARK    5  A    between atoms: C_9  and  C_10
REMARK    6  A    between atoms: C_13  and  C_14
REMARK    7  A    between atoms: N_16  and  N_17
REMARK    8  A    between atoms: N_17  and  C_18
REMARK                            x       y       z     vdW  Elec       q    Type
REMARK                         _______ _______ _______ _____ _____    ______ ____
ROOT
ATOM      1  C   UNL     1      40.009   6.290  18.330  0.00  0.00    +0.000 A 
ATOM      2  C   UNL     1      39.045   5.390  18.733  0.00  0.00    +0.000 A 
ATOM      3  C   UNL     1      38.475   4.506  17.832  0.00  0.00    +0.000 A 
ATOM      4  C   UNL     1      38.844   4.488  16.506  0.00  0.00    +0.000 A 
ATOM      5  C   UNL     1      39.808   5.397  16.132  0.00  0.00    +0.000 A 
ATOM      6  C   UNL     1      40.382   6.278  17.001  0.00  0.00    +0.000 A 
ENDROOT
BRANCH   4   7
ATOM      7  C   UNL     1      38.273   3.557  15.524  0.00  0.00    +0.000 C 
ATOM      8  O   UNL     1      38.527   3.710  14.318  0.00  0.00    +0.000 OA
ATOM      9  N   UNL     1      37.458   2.530  16.011  0.00  0.00    +0.000 NA
BRANCH   9  10
ATOM     10  N   UNL     1      36.867   1.597  15.172  0.00  0.00    +0.000 NA
BRANCH  10  11
ATOM     11  C   UNL     1      36.187   0.447  15.692  0.00  0.00    +0.000 C 
ATOM     12  C   UNL     1      35.298   0.463  16.638  0.00  0.00    +0.000 C 
ATOM     13  C   UNL     1      34.599  -0.688  17.180  0.00  0.00    +0.000 C 
ATOM     14  C   UNL     1      34.872  -2.000  16.583  0.00  0.00    +0.000 C 
ATOM     15  C   UNL     1      35.884  -1.997  15.529  0.00  0.00    +0.000 A 
ATOM     16  C   UNL     1      36.218  -3.235  14.940  0.00  0.00    +0.000 A 
ATOM     17  C   UNL     1      37.158  -3.309  13.939  0.00  0.00    +0.000 A 
ATOM     18  C   UNL     1      37.752  -2.150  13.538  0.00  0.00    +0.000 A 
ATOM     19  C   UNL     1      37.462  -0.930  14.078  0.00  0.00    +0.000 A 
ATOM     20  C   UNL     1      36.504  -0.856  15.099  0.00  0.00    +0.000 A 
ENDBRANCH  10  11
ENDBRANCH   9  10
ENDBRANCH   4   7
BRANCH   1  21
ATOM     21  C   UNL     1      40.638   7.253  19.283  0.00  0.00    +0.000 C 
BRANCH  21  22
ATOM     22  O   UNL     1      41.963   7.574  18.929  0.00  0.00    +0.000 OA
BRANCH  22  26
ATOM     23  C   UNL     1      45.188   5.847  21.039  0.00  0.00    +0.000 A 
ATOM     24  C   UNL     1      43.896   5.750  21.491  0.00  0.00    +0.000 A 
ATOM     25  C   UNL     1      42.818   6.301  20.829  0.00  0.00    +0.000 A 
ATOM     26  C   UNL     1      43.001   6.997  19.641  0.00  0.00    +0.000 A 
ATOM     27  C   UNL     1      44.313   7.088  19.192  0.00  0.00    +0.000 A 
ATOM     28  C   UNL     1      45.389   6.541  19.851  0.00  0.00    +0.000 A 
BRANCH  23  29
ATOM     29  O   UNL     1      46.273   5.285  21.720  0.00  0.00    +0.000 OA
BRANCH  29  31
ATOM     30  C   UNL     1      46.634   3.026  21.142  0.00  0.00    +0.000 C 
ATOM     31  C   UNL     1      46.215   3.975  22.247  0.00  0.00    +0.000 C 
ENDBRANCH  29  31
ENDBRANCH  23  29
ENDBRANCH  22  26
ENDBRANCH  21  22
ENDBRANCH   1  21
TORSDOF 8
ENDMDL
MODEL 4
REMARK VINA RESULT:      -7.9      1.068      2.196
REMARK  Name = 
REMARK  8 active torsions:
REMARK  status: ('A' for Active; 'I' for Inactive)
REMARK    1  A    between atoms: C_2  and  O_3
REMARK    2  A    between atoms: O_3  and  C_4
REMARK    3  A    between atoms: C_7  and  O_8
REMARK    4  A    between atoms: O_8  and  C_9
REMARK    5  A    between atoms: C_9  and  C_10
REMARK    6  A    between atoms: C_13  and  C_14
REMARK    7  A    between atoms: N_16  and  N_17
REMARK    8  A    between atoms: N_17  and  C_18
REMARK                            x       y       z     vdW  Elec       q    Type
REMARK                         _______ _______ _______ _____ _____    ______ ____
ROOT
ATOM      1  C   UNL     1      40.736   6.355  18.437  0.00  0.00    +0.000 A 
ATOM      2  C   UNL     1      40.702   6.328  17.058  0.00  0.00    +0.000 A 
ATOM      3  C   UNL     1      39.721   5.621  16.383  0.00  0.00    +0.000 A 
ATOM      4  C   UNL     1      38.745   4.920  17.055  0.00  0.00    +0.000 A 
ATOM      5  C   UNL     1      38.804   4.963  18.429  0.00  0.00    +0.000 A 
ATOM      6  C   UNL     1      39.761   5.652  19.115  0.00  0.00    +0.000 A 
ENDROOT
BRANCH   4   7
ATOM      7  C   UNL     1      37.681   4.171  16.375  0.00  0.00    +0.000 C 
ATOM      8  O   UNL     1      37.229   4.592  15.298  0.00  0.00    +0.000 OA
ATOM      9  N   UNL     1      37.224   3.000  16.991  0.00  0.00    +0.000 NA
BRANCH   9  10
ATOM     10  N   UNL     1      36.223   2.217  16.438  0.00  0.00    +0.000 NA
BRANCH  10  11
ATOM     11  C   UNL     1      36.528   1.061  15.646  0.00  0.00    +0.000 C 
ATOM     12  C   UNL     1      37.365   1.027  14.655  0.00  0.00    +0.000 C 
ATOM     13  C   UNL     1      37.688  -0.130  13.841  0.00  0.00    +0.000 C 
ATOM     14  C   UNL     1      37.054  -1.409  14.184  0.00  0.00    +0.000 C 
ATOM     15  C   UNL     1      36.106  -1.345  15.294  0.00  0.00    +0.000 A 
ATOM     16  C   UNL     1      35.435  -2.535  15.650  0.00  0.00    +0.000 A 
ATOM     17  C   UNL     1      34.532  -2.552  16.687  0.00  0.00    +0.000 A 
ATOM     18  C   UNL     1      34.310  -1.387  17.357  0.00  0.00    +0.000 A 
ATOM     19  C   UNL     1      34.935  -0.212  17.049  0.00  0.00    +0.000 A 
ATOM     20  C   UNL     1      35.855  -0.195  15.991  0.00  0.00    +0.000 A 
ENDBRANCH  10  11
ENDBRANCH   9  10
ENDBRANCH   4   7
BRANCH   1  21
ATOM     21  C   UNL     1      41.784   7.110  19.187  0.00  0.00    +0.000 C 
BRANCH  21  22
ATOM     22  O   UNL     1      41.269   7.760  20.325  0.00  0.00    +0.000 OA
BRANCH  22  26
ATOM     23  C   UNL     1      38.463  10.879  19.849  0.00  0.00    +0.000 A 
ATOM     24  C   UNL     1      39.685  10.908  19.227  0.00  0.00    +0.000 A 
ATOM     25  C   UNL     1      40.627   9.908  19.359  0.00  0.00    +0.000 A 
ATOM     26  C   UNL     1      40.367   8.796  20.151  0.00  0.00    +0.000 A 
ATOM     27  C   UNL     1      39.126   8.777  20.774  0.00  0.00    +0.000 A 
ATOM     28  C   UNL     1      38.186   9.773  20.645  0.00  0.00    +0.000 A 
BRANCH  23  29
ATOM     29  O   UNL     1      37.516  11.900  19.708  0.00  0.00    +0.000 OA
BRANCH  29  31
ATOM     30  C   UNL     1      38.104  13.317  21.500  0.00  0.00    +0.000 C 
ATOM     31  C   UNL     1      37.829  13.244  20.012  0.00  0.00    +0.000 C 
ENDBRANCH  29  31
ENDBRANCH  23  29
ENDBRANCH  22  26
ENDBRANCH  21  22
ENDBRANCH   1  21
TORSDOF 8
ENDMDL
MODEL 5
REMARK VINA RESULT:      -7.9     24.966     28.360
REMARK  Name = 
REMARK  8 active torsions:
REMARK  status: ('A' for Active; 'I' for Inactive)
REMARK    1  A    between atoms: C_2  and  O_3
REMARK    2  A    between atoms: O_3  and  C_4
REMARK    3  A    between atoms: C_7  and  O_8
REMARK    4  A    between atoms: O_8  and  C_9
REMARK    5  A    between atoms: C_9  and  C_10
REMARK    6  A    between atoms: C_13  and  C_14
REMARK    7  A    between atoms: N_16  and  N_17
REMARK    8  A    between atoms: N_17  and  C_18
REMARK                            x       y       z     vdW  Elec       q    Type
REMARK                         _______ _______ _______ _____ _____    ______ ____
ROOT
ATOM      1  C   UNL     1      14.406   0.176  27.213  0.00  0.00    +0.000 A 
ATOM      2  C   UNL     1      13.970  -0.939  26.529  0.00  0.00    +0.000 A 
ATOM      3  C   UNL     1      12.662  -1.036  26.085  0.00  0.00    +0.000 A 
ATOM      4  C   UNL     1      11.748  -0.031  26.304  0.00  0.00    +0.000 A 
ATOM      5  C   UNL     1      12.210   1.070  26.990  0.00  0.00    +0.000 A 
ATOM      6  C   UNL     1      13.493   1.187  27.438  0.00  0.00    +0.000 A 
ENDROOT
BRANCH   4   7
ATOM      7  C   UNL     1      10.357  -0.090  25.837  0.00  0.00    +0.000 C 
ATOM      8  O   UNL     1       9.721  -1.150  25.946  0.00  0.00    +0.000 OA
ATOM      9  N   UNL     1       9.815   1.074  25.282  0.00  0.00    +0.000 NA
BRANCH   9  10
ATOM     10  N   UNL     1       8.513   1.129  24.807  0.00  0.00    +0.000 NA
BRANCH  10  11
ATOM     11  C   UNL     1       7.519   1.944  25.442  0.00  0.00    +0.000 C 
ATOM     12  C   UNL     1       7.678   2.598  26.552  0.00  0.00    +0.000 C 
ATOM     13  C   UNL     1       6.687   3.428  27.210  0.00  0.00    +0.000 C 
ATOM     14  C   UNL     1       5.386   3.598  26.552  0.00  0.00    +0.000 C 
ATOM     15  C   UNL     1       5.224   2.843  25.310  0.00  0.00    +0.000 A 
ATOM     16  C   UNL     1       3.982   2.935  24.647  0.00  0.00    +0.000 A 
ATOM     17  C   UNL     1       3.758   2.257  23.472  0.00  0.00    +0.000 A 
ATOM     18  C   UNL     1       4.773   1.498  22.972  0.00  0.00    +0.000 A 
ATOM     19  C   UNL     1       5.991   1.378  23.578  0.00  0.00    +0.000 A 
ATOM     20  C   UNL     1       6.218   2.069  24.777  0.00  0.00    +0.000 A 
ENDBRANCH  10  11
ENDBRANCH   9  10
ENDBRANCH   4   7
BRANCH   1  21
ATOM     21  C   UNL     1      15.811   0.304  27.702  0.00  0.00    +0.000 C 
BRANCH  21  22
ATOM     22  O   UNL     1      16.576   1.189  26.919  0.00  0.00    +0.000 OA
BRANCH  22  26
ATOM     23  C   UNL     1      19.481  -0.484  24.351  0.00  0.00    +0.000 A 
ATOM     24  C   UNL     1      19.229   0.864  24.372  0.00  0.00    +0.000 A 
ATOM     25  C   UNL     1      18.288   1.446  25.197  0.00  0.00    +0.000 A 
ATOM     26  C   UNL     1      17.535   0.667  26.067  0.00  0.00    +0.000 A 
ATOM     27  C   UNL     1      17.800  -0.696  26.038  0.00  0.00    +0.000 A 
ATOM     28  C   UNL     1      18.737  -1.279  25.216  0.00  0.00    +0.000 A 
BRANCH  23  29
ATOM     29  O   UNL     1      20.438  -1.063  23.510  0.00  0.00    +0.000 OA
BRANCH  29  31
ATOM     30  C   UNL     1      20.433  -1.541  21.200  0.00  0.00    +0.000 C 
ATOM     31  C   UNL     1      20.091  -2.068  22.579  0.00  0.00    +0.000 C 
ENDBRANCH  29  31
ENDBRANCH  23  29
ENDBRANCH  22  26
ENDBRANCH  21  22
ENDBRANCH   1  21
TORSDOF 8
ENDMDL
MODEL 6
REMARK VINA RESULT:      -7.8      3.789      5.392
REMARK  Name = 
REMARK  8 active torsions:
REMARK  status: ('A' for Active; 'I' for Inactive)
REMARK    1  A    between atoms: C_2  and  O_3
REMARK    2  A    between atoms: O_3  and  C_4
REMARK    3  A    between atoms: C_7  and  O_8
REMARK    4  A    between atoms: O_8  and  C_9
REMARK    5  A    between atoms: C_9  and  C_10
REMARK    6  A    between atoms: C_13  and  C_14
REMARK    7  A    between atoms: N_16  and  N_17
REMARK    8  A    between atoms: N_17  and  C_18
REMARK                            x       y       z     vdW  Elec       q    Type
REMARK                         _______ _______ _______ _____ _____    ______ ____
ROOT
ATOM      1  C   UNL     1      41.675   6.702  19.099  0.00  0.00    +0.000 A 
ATOM      2  C   UNL     1      40.530   6.372  19.793  0.00  0.00    +0.000 A 
ATOM      3  C   UNL     1      39.438   5.822  19.144  0.00  0.00    +0.000 A 
ATOM      4  C   UNL     1      39.448   5.582  17.789  0.00  0.00    +0.000 A 
ATOM      5  C   UNL     1      40.604   5.921  17.122  0.00  0.00    +0.000 A 
ATOM      6  C   UNL     1      41.691   6.465  17.740  0.00  0.00    +0.000 A 
ENDROOT
BRANCH   4   7
ATOM      7  C   UNL     1      38.316   4.987  17.068  0.00  0.00    +0.000 C 
ATOM      8  O   UNL     1      37.796   5.608  16.127  0.00  0.00    +0.000 OA
ATOM      9  N   UNL     1      37.875   3.728  17.490  0.00  0.00    +0.000 NA
BRANCH   9  10
ATOM     10  N   UNL     1      36.813   3.075  16.881  0.00  0.00    +0.000 NA
BRANCH  10  11
ATOM     11  C   UNL     1      37.027   2.018  15.936  0.00  0.00    +0.000 C 
ATOM     12  C   UNL     1      37.797   2.085  14.894  0.00  0.00    +0.000 C 
ATOM     13  C   UNL     1      38.028   1.028  13.926  0.00  0.00    +0.000 C 
ATOM     14  C   UNL     1      37.374  -0.266  14.154  0.00  0.00    +0.000 C 
ATOM     15  C   UNL     1      36.503  -0.315  15.326  0.00  0.00    +0.000 A 
ATOM     16  C   UNL     1      35.817  -1.522  15.580  0.00  0.00    +0.000 A 
ATOM     17  C   UNL     1      34.983  -1.644  16.667  0.00  0.00    +0.000 A 
ATOM     18  C   UNL     1      34.844  -0.565  17.487  0.00  0.00    +0.000 A 
ATOM     19  C   UNL     1      35.487   0.623  17.281  0.00  0.00    +0.000 A 
ATOM     20  C   UNL     1      36.336   0.747  16.173  0.00  0.00    +0.000 A 
ENDBRANCH  10  11
ENDBRANCH   9  10
ENDBRANCH   4   7
BRANCH   1  21
ATOM     21  C   UNL     1      42.866   7.297  19.777  0.00  0.00    +0.000 C 
BRANCH  21  22
ATOM     22  O   UNL     1      43.896   6.358  19.979  0.00  0.00    +0.000 OA
BRANCH  22  26
ATOM     23  C   UNL     1      44.899   5.385  23.964  0.00  0.00    +0.000 A 
ATOM     24  C   UNL     1      45.404   4.680  22.901  0.00  0.00    +0.000 A 
ATOM     25  C   UNL     1      45.099   4.969  21.586  0.00  0.00    +0.000 A 
ATOM     26  C   UNL     1      44.242   6.018  21.276  0.00  0.00    +0.000 A 
ATOM     27  C   UNL     1      43.739   6.726  22.360  0.00  0.00    +0.000 A 
ATOM     28  C   UNL     1      44.041   6.439  23.671  0.00  0.00    +0.000 A 
BRANCH  23  29
ATOM     29  O   UNL     1      45.216   5.083  25.293  0.00  0.00    +0.000 OA
BRANCH  29  31
ATOM     30  C   UNL     1      44.900   4.509  27.559  0.00  0.00    +0.000 C 
ATOM     31  C   UNL     1      44.228   4.655  26.209  0.00  0.00    +0.000 C 
ENDBRANCH  29  31
ENDBRANCH  23  29
ENDBRANCH  22  26
ENDBRANCH  21  22
ENDBRANCH   1  21
TORSDOF 8
ENDMDL
MODEL 7
REMARK VINA RESULT:      -7.8      2.758      4.350
REMARK  Name = 
REMARK  8 active torsions:
REMARK  status: ('A' for Active; 'I' for Inactive)
REMARK    1  A    between atoms: C_2  and  O_3
REMARK    2  A    between atoms: O_3  and  C_4
REMARK    3  A    between atoms: C_7  and  O_8
REMARK    4  A    between atoms: O_8  and  C_9
REMARK    5  A    between atoms: C_9  and  C_10
REMARK    6  A    between atoms: C_13  and  C_14
REMARK    7  A    between atoms: N_16  and  N_17
REMARK    8  A    between atoms: N_17  and  C_18
REMARK                            x       y       z     vdW  Elec       q    Type
REMARK                         _______ _______ _______ _____ _____    ______ ____
ROOT
ATOM      1  C   UNL     1      40.566   6.460  17.788  0.00  0.00    +0.000 A 
ATOM      2  C   UNL     1      40.414   6.070  16.474  0.00  0.00    +0.000 A 
ATOM      3  C   UNL     1      39.452   5.142  16.112  0.00  0.00    +0.000 A 
ATOM      4  C   UNL     1      38.611   4.573  17.042  0.00  0.00    +0.000 A 
ATOM      5  C   UNL     1      38.785   4.980  18.346  0.00  0.00    +0.000 A 
ATOM      6  C   UNL     1      39.727   5.892  18.725  0.00  0.00    +0.000 A 
ENDROOT
BRANCH   4   7
ATOM      7  C   UNL     1      37.570   3.598  16.697  0.00  0.00    +0.000 C 
ATOM      8  O   UNL     1      37.077   2.889  17.588  0.00  0.00    +0.000 OA
ATOM      9  N   UNL     1      37.184   3.518  15.354  0.00  0.00    +0.000 NA
BRANCH   9  10
ATOM     10  N   UNL     1      36.212   2.631  14.917  0.00  0.00    +0.000 NA
BRANCH  10  11
ATOM     11  C   UNL     1      36.539   1.286  14.544  0.00  0.00    +0.000 C 
ATOM     12  C   UNL     1      37.306   0.945  13.555  0.00  0.00    +0.000 C 
ATOM     13  C   UNL     1      37.651  -0.409  13.160  0.00  0.00    +0.000 C 
ATOM     14  C   UNL     1      37.130  -1.514  13.973  0.00  0.00    +0.000 C 
ATOM     15  C   UNL     1      36.258  -1.108  15.074  0.00  0.00    +0.000 A 
ATOM     16  C   UNL     1      35.695  -2.127  15.872  0.00  0.00    +0.000 A 
ATOM     17  C   UNL     1      34.870  -1.821  16.927  0.00  0.00    +0.000 A 
ATOM     18  C   UNL     1      34.615  -0.506  17.176  0.00  0.00    +0.000 A 
ATOM     19  C   UNL     1      35.136   0.514  16.432  0.00  0.00    +0.000 A 
ATOM     20  C   UNL     1      35.978   0.201  15.356  0.00  0.00    +0.000 A 
ENDBRANCH  10  11
ENDBRANCH   9  10
ENDBRANCH   4   7
BRANCH   1  21
ATOM     21  C   UNL     1      41.596   7.459  18.202  0.00  0.00    +0.000 C 
BRANCH  21  22
ATOM     22  O   UNL     1      41.424   7.890  19.531  0.00  0.00    +0.000 OA
BRANCH  22  26
ATOM     23  C   UNL     1      44.344   6.792  22.378  0.00  0.00    +0.000 A 
ATOM     24  C   UNL     1      44.079   8.107  22.087  0.00  0.00    +0.000 A 
ATOM     25  C   UNL     1      43.133   8.503  21.164  0.00  0.00    +0.000 A 
ATOM     26  C   UNL     1      42.387   7.558  20.470  0.00  0.00    +0.000 A 
ATOM     27  C   UNL     1      42.663   6.231  20.773  0.00  0.00    +0.000 A 
ATOM     28  C   UNL     1      43.606   5.834  21.692  0.00  0.00    +0.000 A 
BRANCH  23  29
ATOM     29  O   UNL     1      45.306   6.402  23.316  0.00  0.00    +0.000 OA
BRANCH  29  31
ATOM     30  C   UNL     1      44.073   6.055  25.296  0.00  0.00    +0.000 C 
ATOM     31  C   UNL     1      45.026   5.427  24.300  0.00  0.00    +0.000 C 
ENDBRANCH  29  31
ENDBRANCH  23  29
ENDBRANCH  22  26
ENDBRANCH  21  22
ENDBRANCH   1  21
TORSDOF 8
ENDMDL
MODEL 8
REMARK VINA RESULT:      -7.8      3.734      6.183
REMARK  Name = 
REMARK  8 active torsions:
REMARK  status: ('A' for Active; 'I' for Inactive)
REMARK    1  A    between atoms: C_2  and  O_3
REMARK    2  A    between atoms: O_3  and  C_4
REMARK    3  A    between atoms: C_7  and  O_8
REMARK    4  A    between atoms: O_8  and  C_9
REMARK    5  A    between atoms: C_9  and  C_10
REMARK    6  A    between atoms: C_13  and  C_14
REMARK    7  A    between atoms: N_16  and  N_17
REMARK    8  A    between atoms: N_17  and  C_18
REMARK                            x       y       z     vdW  Elec       q    Type
REMARK                         _______ _______ _______ _____ _____    ______ ____
ROOT
ATOM      1  C   UNL     1      41.547   6.757  19.351  0.00  0.00    +0.000 A 
ATOM      2  C   UNL     1      40.332   6.432  19.917  0.00  0.00    +0.000 A 
ATOM      3  C   UNL     1      39.314   5.886  19.155  0.00  0.00    +0.000 A 
ATOM      4  C   UNL     1      39.469   5.645  17.808  0.00  0.00    +0.000 A 
ATOM      5  C   UNL     1      40.691   5.980  17.269  0.00  0.00    +0.000 A 
ATOM      6  C   UNL     1      41.708   6.520  18.001  0.00  0.00    +0.000 A 
ENDROOT
BRANCH   4   7
ATOM      7  C   UNL     1      38.419   5.055  16.969  0.00  0.00    +0.000 C 
ATOM      8  O   UNL     1      38.004   5.679  15.979  0.00  0.00    +0.000 OA
ATOM      9  N   UNL     1      37.932   3.796  17.339  0.00  0.00    +0.000 NA
BRANCH   9  10
ATOM     10  N   UNL     1      36.940   3.148  16.619  0.00  0.00    +0.000 NA
BRANCH  10  11
ATOM     11  C   UNL     1      37.236   2.019  15.786  0.00  0.00    +0.000 C 
ATOM     12  C   UNL     1      38.122   1.995  14.838  0.00  0.00    +0.000 C 
ATOM     13  C   UNL     1      38.438   0.865  13.984  0.00  0.00    +0.000 C 
ATOM     14  C   UNL     1      37.732  -0.398  14.229  0.00  0.00    +0.000 C 
ATOM     15  C   UNL     1      36.730  -0.346  15.292  0.00  0.00    +0.000 A 
ATOM     16  C   UNL     1      35.990  -1.519  15.552  0.00  0.00    +0.000 A 
ATOM     17  C   UNL     1      35.035  -1.546  16.540  0.00  0.00    +0.000 A 
ATOM     18  C   UNL     1      34.828  -0.406  17.256  0.00  0.00    +0.000 A 
ATOM     19  C   UNL     1      35.518   0.753  17.041  0.00  0.00    +0.000 A 
ATOM     20  C   UNL     1      36.492   0.780  16.033  0.00  0.00    +0.000 A 
ENDBRANCH  10  11
ENDBRANCH   9  10
ENDBRANCH   4   7
BRANCH   1  21
ATOM     21  C   UNL     1      42.660   7.347  20.153  0.00  0.00    +0.000 C 
BRANCH  21  22
ATOM     22  O   UNL     1      43.057   6.516  21.218  0.00  0.00    +0.000 OA
BRANCH  22  26
ATOM     23  C   UNL     1      46.743   4.465  21.030  0.00  0.00    +0.000 A 
ATOM     24  C   UNL     1      46.468   5.529  20.208  0.00  0.00    +0.000 A 
ATOM     25  C   UNL     1      45.275   6.222  20.240  0.00  0.00    +0.000 A 
ATOM     26  C   UNL     1      44.275   5.862  21.135  0.00  0.00    +0.000 A 
ATOM     27  C   UNL     1      44.566   4.785  21.963  0.00  0.00    +0.000 A 
ATOM     28  C   UNL     1      45.753   4.092  21.932  0.00  0.00    +0.000 A 
BRANCH  23  29
ATOM     29  O   UNL     1      47.956   3.770  20.987  0.00  0.00    +0.000 OA
BRANCH  29  31
ATOM     30  C   UNL     1      47.691   2.170  19.274  0.00  0.00    +0.000 C 
ATOM     31  C   UNL     1      48.002   2.378  20.742  0.00  0.00    +0.000 C 
ENDBRANCH  29  31
ENDBRANCH  23  29
ENDBRANCH  22  26
ENDBRANCH  21  22
ENDBRANCH   1  21
TORSDOF 8
ENDMDL
MODEL 9
REMARK VINA RESULT:      -7.6      3.051      5.043
REMARK  Name = 
REMARK  8 active torsions:
REMARK  status: ('A' for Active; 'I' for Inactive)
REMARK    1  A    between atoms: C_2  and  O_3
REMARK    2  A    between atoms: O_3  and  C_4
REMARK    3  A    between atoms: C_7  and  O_8
REMARK    4  A    between atoms: O_8  and  C_9
REMARK    5  A    between atoms: C_9  and  C_10
REMARK    6  A    between atoms: C_13  and  C_14
REMARK    7  A    between atoms: N_16  and  N_17
REMARK    8  A    between atoms: N_17  and  C_18
REMARK                            x       y       z     vdW  Elec       q    Type
REMARK                         _______ _______ _______ _____ _____    ______ ____
ROOT
ATOM      1  C   UNL     1      40.452   6.532  18.116  0.00  0.00    +0.000 A 
ATOM      2  C   UNL     1      39.573   5.838  18.921  0.00  0.00    +0.000 A 
ATOM      3  C   UNL     1      38.725   4.880  18.391  0.00  0.00    +0.000 A 
ATOM      4  C   UNL     1      38.724   4.581  17.047  0.00  0.00    +0.000 A 
ATOM      5  C   UNL     1      39.611   5.289  16.268  0.00  0.00    +0.000 A 
ATOM      6  C   UNL     1      40.454   6.237  16.768  0.00  0.00    +0.000 A 
ENDROOT
BRANCH   4   7
ATOM      7  C   UNL     1      37.851   3.562  16.450  0.00  0.00    +0.000 C 
ATOM      8  O   UNL     1      36.658   3.506  16.788  0.00  0.00    +0.000 OA
ATOM      9  N   UNL     1      38.424   2.693  15.515  0.00  0.00    +0.000 NA
BRANCH   9  10
ATOM     10  N   UNL     1      37.691   1.694  14.892  0.00  0.00    +0.000 NA
BRANCH  10  11
ATOM     11  C   UNL     1      37.896   0.310  15.205  0.00  0.00    +0.000 C 
ATOM     12  C   UNL     1      38.952  -0.382  14.903  0.00  0.00    +0.000 C 
ATOM     13  C   UNL     1      39.179  -1.782  15.210  0.00  0.00    +0.000 C 
ATOM     14  C   UNL     1      38.149  -2.493  15.977  0.00  0.00    +0.000 C 
ATOM     15  C   UNL     1      36.963  -1.699  16.295  0.00  0.00    +0.000 A 
ATOM     16  C   UNL     1      35.920  -2.336  16.999  0.00  0.00    +0.000 A 
ATOM     17  C   UNL     1      34.777  -1.651  17.337  0.00  0.00    +0.000 A 
ATOM     18  C   UNL     1      34.687  -0.342  16.970  0.00  0.00    +0.000 A 
ATOM     19  C   UNL     1      35.670   0.316  16.288  0.00  0.00    +0.000 A 
ATOM     20  C   UNL     1      36.835  -0.383  15.944  0.00  0.00    +0.000 A 
ENDBRANCH  10  11
ENDBRANCH   9  10
ENDBRANCH   4   7
BRANCH   1  21
ATOM     21  C   UNL     1      41.375   7.569  18.665  0.00  0.00    +0.000 C 
BRANCH  21  22
ATOM     22  O   UNL     1      41.717   7.329  20.010  0.00  0.00    +0.000 OA
BRANCH  22  26
ATOM     23  C   UNL     1      45.478   5.657  20.955  0.00  0.00    +0.000 A 
ATOM     24  C   UNL     1      45.293   6.427  19.834  0.00  0.00    +0.000 A 
ATOM     25  C   UNL     1      44.079   6.990  19.493  0.00  0.00    +0.000 A 
ATOM     26  C   UNL     1      42.962   6.794  20.296  0.00  0.00    +0.000 A 
ATOM     27  C   UNL     1      43.162   6.013  21.428  0.00  0.00    +0.000 A 
ATOM     28  C   UNL     1      44.370   5.451  21.769  0.00  0.00    +0.000 A 
BRANCH  23  29
ATOM     29  O   UNL     1      46.713   5.092  21.289  0.00  0.00    +0.000 OA
BRANCH  29  31
ATOM     30  C   UNL     1      48.118   6.672  22.333  0.00  0.00    +0.000 C 
ATOM     31  C   UNL     1      47.923   5.800  21.110  0.00  0.00    +0.000 C 
ENDBRANCH  29  31
ENDBRANCH  23  29
ENDBRANCH  22  26
ENDBRANCH  21  22
ENDBRANCH   1  21
TORSDOF 8
ENDMDL
MODEL 10
REMARK VINA RESULT:      -7.5      2.295      2.969
REMARK  Name = 
REMARK  8 active torsions:
REMARK  status: ('A' for Active; 'I' for Inactive)
REMARK    1  A    between atoms: C_2  and  O_3
REMARK    2  A    between atoms: O_3  and  C_4
REMARK    3  A    between atoms: C_7  and  O_8
REMARK    4  A    between atoms: O_8  and  C_9
REMARK    5  A    between atoms: C_9  and  C_10
REMARK    6  A    between atoms: C_13  and  C_14
REMARK    7  A    between atoms: N_16  and  N_17
REMARK    8  A    between atoms: N_17  and  C_18
REMARK                            x       y       z     vdW  Elec       q    Type
REMARK                         _______ _______ _______ _____ _____    ______ ____
ROOT
ATOM      1  C   UNL     1      40.071   6.244  17.620  0.00  0.00    +0.000 A 
ATOM      2  C   UNL     1      39.356   5.379  18.422  0.00  0.00    +0.000 A 
ATOM      3  C   UNL     1      38.521   4.421  17.871  0.00  0.00    +0.000 A 
ATOM      4  C   UNL     1      38.369   4.293  16.509  0.00  0.00    +0.000 A 
ATOM      5  C   UNL     1      39.094   5.169  15.732  0.00  0.00    +0.000 A 
ATOM      6  C   UNL     1      39.921   6.120  16.253  0.00  0.00    +0.000 A 
ENDROOT
BRANCH   4   7
ATOM      7  C   UNL     1      37.505   3.282  15.887  0.00  0.00    +0.000 C 
ATOM      8  O   UNL     1      36.302   3.533  15.708  0.00  0.00    +0.000 OA
ATOM      9  N   UNL     1      38.096   2.066  15.523  0.00  0.00    +0.000 NA
BRANCH   9  10
ATOM     10  N   UNL     1      37.372   1.042  14.931  0.00  0.00    +0.000 NA
BRANCH  10  11
ATOM     11  C   UNL     1      36.719   0.036  15.716  0.00  0.00    +0.000 C 
ATOM     12  C   UNL     1      35.497   0.095  16.148  0.00  0.00    +0.000 C 
ATOM     13  C   UNL     1      34.817  -0.911  16.944  0.00  0.00    +0.000 C 
ATOM     14  C   UNL     1      35.548  -2.143  17.263  0.00  0.00    +0.000 C 
ATOM     15  C   UNL     1      36.926  -2.182  16.778  0.00  0.00    +0.000 A 
ATOM     16  C   UNL     1      37.694  -3.326  17.084  0.00  0.00    +0.000 A 
ATOM     17  C   UNL     1      38.997  -3.435  16.657  0.00  0.00    +0.000 A 
ATOM     18  C   UNL     1      39.517  -2.406  15.932  0.00  0.00    +0.000 A 
ATOM     19  C   UNL     1      38.813  -1.280  15.611  0.00  0.00    +0.000 A 
ATOM     20  C   UNL     1      37.485  -1.170  16.047  0.00  0.00    +0.000 A 
ENDBRANCH  10  11
ENDBRANCH   9  10
ENDBRANCH   4   7
BRANCH   1  21
ATOM     21  C   UNL     1      40.978   7.284  18.190  0.00  0.00    +0.000 C 
BRANCH  21  22
ATOM     22  O   UNL     1      40.325   8.119  19.117  0.00  0.00    +0.000 OA
BRANCH  22  26
ATOM     23  C   UNL     1      36.599   9.824  18.096  0.00  0.00    +0.000 A 
ATOM     24  C   UNL     1      37.753  10.166  17.437  0.00  0.00    +0.000 A 
ATOM     25  C   UNL     1      38.987   9.630  17.743  0.00  0.00    +0.000 A 
ATOM     26  C   UNL     1      39.116   8.693  18.761  0.00  0.00    +0.000 A 
ATOM     27  C   UNL     1      37.941   8.354  19.420  0.00  0.00    +0.000 A 
ATOM     28  C   UNL     1      36.710   8.887  19.117  0.00  0.00    +0.000 A 
BRANCH  23  29
ATOM     29  O   UNL     1      35.353  10.374  17.777  0.00  0.00    +0.000 OA
BRANCH  29  31
ATOM     30  C   UNL     1      33.522   9.328  16.721  0.00  0.00    +0.000 C 
ATOM     31  C   UNL     1      34.760  10.175  16.510  0.00  0.00    +0.000 C 
ENDBRANCH  29  31
ENDBRANCH  23  29
ENDBRANCH  22  26
ENDBRANCH  21  22
ENDBRANCH   1  21
TORSDOF 8
ENDMDL
