MODEL 1
REMARK VINA RESULT:      -7.1      0.000      0.000
REMARK  Name = 
REMARK  1 active torsions:
REMARK  status: ('A' for Active; 'I' for Inactive)
REMARK    1  A    between atoms: C_5  and  N_6
REMARK                            x       y       z     vdW  Elec       q    Type
REMARK                         _______ _______ _______ _____ _____    ______ ____
ROOT
ATOM      1  N   UNL     1      29.440  24.556  20.798  0.00  0.00    +0.000 NA
ATOM      2  C   UNL     1      29.552  25.958  20.493  0.00  0.00    +0.000 A 
ATOM      3  N   UNL     1      30.251  26.408  19.459  0.00  0.00    +0.000 NA
ATOM      4  C   UNL     1      30.423  27.676  19.083  0.00  0.00    +0.000 A 
ATOM      5  C   UNL     1      31.224  27.829  17.939  0.00  0.00    +0.000 A 
ATOM      6  C   UNL     1      31.515  29.058  17.398  0.00  0.00    +0.000 A 
ATOM      7  C   UNL     1      31.016  30.199  17.981  0.00  0.00    +0.000 A 
ATOM      8  C   UNL     1      30.236  30.046  19.096  0.00  0.00    +0.000 A 
ATOM      9  C   UNL     1      29.927  28.795  19.664  0.00  0.00    +0.000 A 
ATOM     10  C   UNL     1      29.124  28.754  20.799  0.00  0.00    +0.000 A 
ATOM     11  O   UNL     1      28.698  29.833  21.285  0.00  0.00    +0.000 OA
ATOM     12  S   UNL     1      28.815  27.198  21.399  0.00  0.00    +0.000 S 
ENDROOT
BRANCH   1  17
ATOM     13  C   UNL     1      26.458  22.849  25.355  0.00  0.00    +0.000 C 
ATOM     14  C   UNL     1      27.197  23.299  24.154  0.00  0.00    +0.000 A 
ATOM     15  C   UNL     1      26.578  23.732  23.001  0.00  0.00    +0.000 A 
ATOM     16  C   UNL     1      27.292  24.146  21.896  0.00  0.00    +0.000 A 
ATOM     17  C   UNL     1      28.682  24.139  21.911  0.00  0.00    +0.000 A 
ATOM     18  C   UNL     1      29.291  23.710  23.056  0.00  0.00    +0.000 A 
ATOM     19  C   UNL     1      28.582  23.293  24.165  0.00  0.00    +0.000 A 
ATOM     20  C   UNL     1      29.270  22.825  25.412  0.00  0.00    +0.000 C 
ENDBRANCH   1  17
TORSDOF 1
ENDMDL
MODEL 2
REMARK VINA RESULT:      -6.9     23.527     24.696
REMARK  Name = 
REMARK  1 active torsions:
REMARK  status: ('A' for Active; 'I' for Inactive)
REMARK    1  A    between atoms: C_5  and  N_6
REMARK                            x       y       z     vdW  Elec       q    Type
REMARK                         _______ _______ _______ _____ _____    ______ ____
ROOT
ATOM      1  N   UNL     1      17.618  10.164  36.857  0.00  0.00    +0.000 NA
ATOM      2  C   UNL     1      18.802  10.855  37.298  0.00  0.00    +0.000 A 
ATOM      3  N   UNL     1      19.988  10.266  37.359  0.00  0.00    +0.000 NA
ATOM      4  C   UNL     1      21.144  10.803  37.750  0.00  0.00    +0.000 A 
ATOM      5  C   UNL     1      22.233   9.916  37.702  0.00  0.00    +0.000 A 
ATOM      6  C   UNL     1      23.505  10.284  38.065  0.00  0.00    +0.000 A 
ATOM      7  C   UNL     1      23.750  11.567  38.495  0.00  0.00    +0.000 A 
ATOM      8  C   UNL     1      22.688  12.429  38.540  0.00  0.00    +0.000 A 
ATOM      9  C   UNL     1      21.378  12.069  38.172  0.00  0.00    +0.000 A 
ATOM     10  C   UNL     1      20.371  13.025  38.256  0.00  0.00    +0.000 A 
ATOM     11  O   UNL     1      20.659  14.182  38.657  0.00  0.00    +0.000 OA
ATOM     12  S   UNL     1      18.832  12.485  37.789  0.00  0.00    +0.000 S 
ENDROOT
BRANCH   1  17
ATOM     13  C   UNL     1      12.646  12.953  36.588  0.00  0.00    +0.000 C 
ATOM     14  C   UNL     1      13.926  12.219  36.694  0.00  0.00    +0.000 A 
ATOM     15  C   UNL     1      14.302  11.510  37.816  0.00  0.00    +0.000 A 
ATOM     16  C   UNL     1      15.502  10.833  37.888  0.00  0.00    +0.000 A 
ATOM     17  C   UNL     1      16.384  10.845  36.814  0.00  0.00    +0.000 A 
ATOM     18  C   UNL     1      16.007  11.548  35.705  0.00  0.00    +0.000 A 
ATOM     19  C   UNL     1      14.808  12.228  35.627  0.00  0.00    +0.000 A 
ATOM     20  C   UNL     1      14.412  12.993  34.400  0.00  0.00    +0.000 C 
ENDBRANCH   1  17
TORSDOF 1
ENDMDL
MODEL 3
REMARK VINA RESULT:      -6.9     33.959     35.511
REMARK  Name = 
REMARK  1 active torsions:
REMARK  status: ('A' for Active; 'I' for Inactive)
REMARK    1  A    between atoms: C_5  and  N_6
REMARK                            x       y       z     vdW  Elec       q    Type
REMARK                         _______ _______ _______ _____ _____    ______ ____
ROOT
ATOM      1  N   UNL     1      22.888  -6.381  23.631  0.00  0.00    +0.000 NA
ATOM      2  C   UNL     1      21.944  -6.976  24.542  0.00  0.00    +0.000 A 
ATOM      3  N   UNL     1      20.897  -6.313  25.015  0.00  0.00    +0.000 NA
ATOM      4  C   UNL     1      19.965  -6.758  25.858  0.00  0.00    +0.000 A 
ATOM      5  C   UNL     1      18.977  -5.809  26.171  0.00  0.00    +0.000 A 
ATOM      6  C   UNL     1      17.933  -6.080  27.022  0.00  0.00    +0.000 A 
ATOM      7  C   UNL     1      17.827  -7.323  27.602  0.00  0.00    +0.000 A 
ATOM      8  C   UNL     1      18.791  -8.245  27.294  0.00  0.00    +0.000 A 
ATOM      9  C   UNL     1      19.867  -7.985  26.425  0.00  0.00    +0.000 A 
ATOM     10  C   UNL     1      20.792  -8.996  26.181  0.00  0.00    +0.000 A 
ATOM     11  O   UNL     1      20.640 -10.111  26.742  0.00  0.00    +0.000 OA
ATOM     12  S   UNL     1      22.047  -8.575  25.120  0.00  0.00    +0.000 S 
ENDROOT
BRANCH   1  17
ATOM     13  C   UNL     1      27.251  -9.503  21.683  0.00  0.00    +0.000 C 
ATOM     14  C   UNL     1      26.146  -8.672  22.210  0.00  0.00    +0.000 A 
ATOM     15  C   UNL     1      26.335  -7.629  23.093  0.00  0.00    +0.000 A 
ATOM     16  C   UNL     1      25.285  -6.871  23.568  0.00  0.00    +0.000 A 
ATOM     17  C   UNL     1      23.982  -7.138  23.164  0.00  0.00    +0.000 A 
ATOM     18  C   UNL     1      23.800  -8.171  22.289  0.00  0.00    +0.000 A 
ATOM     19  C   UNL     1      24.846  -8.935  21.810  0.00  0.00    +0.000 A 
ATOM     20  C   UNL     1      24.625 -10.065  20.850  0.00  0.00    +0.000 C 
ENDBRANCH   1  17
TORSDOF 1
ENDMDL
MODEL 4
REMARK VINA RESULT:      -6.5     23.469     26.956
REMARK  Name = 
REMARK  1 active torsions:
REMARK  status: ('A' for Active; 'I' for Inactive)
REMARK    1  A    between atoms: C_5  and  N_6
REMARK                            x       y       z     vdW  Elec       q    Type
REMARK                         _______ _______ _______ _____ _____    ______ ____
ROOT
ATOM      1  N   UNL     1      19.850  10.946  37.950  0.00  0.00    +0.000 NA
ATOM      2  C   UNL     1      19.274   9.999  38.870  0.00  0.00    +0.000 A 
ATOM      3  N   UNL     1      18.023  10.096  39.300  0.00  0.00    +0.000 NA
ATOM      4  C   UNL     1      17.388   9.284  40.145  0.00  0.00    +0.000 A 
ATOM      5  C   UNL     1      16.059   9.656  40.406  0.00  0.00    +0.000 A 
ATOM      6  C   UNL     1      15.242   8.944  41.250  0.00  0.00    +0.000 A 
ATOM      7  C   UNL     1      15.721   7.818  41.878  0.00  0.00    +0.000 A 
ATOM      8  C   UNL     1      17.017   7.458  41.621  0.00  0.00    +0.000 A 
ATOM      9  C   UNL     1      17.868   8.175  40.759  0.00  0.00    +0.000 A 
ATOM     10  C   UNL     1      19.169   7.721  40.570  0.00  0.00    +0.000 A 
ATOM     11  O   UNL     1      19.548   6.684  41.173  0.00  0.00    +0.000 OA
ATOM     12  S   UNL     1      20.106   8.659  39.512  0.00  0.00    +0.000 S 
ENDROOT
BRANCH   1  17
ATOM     13  C   UNL     1      25.289  10.393  36.310  0.00  0.00    +0.000 C 
ATOM     14  C   UNL     1      23.869  10.506  36.711  0.00  0.00    +0.000 A 
ATOM     15  C   UNL     1      22.876   9.682  36.225  0.00  0.00    +0.000 A 
ATOM     16  C   UNL     1      21.559   9.810  36.616  0.00  0.00    +0.000 A 
ATOM     17  C   UNL     1      21.187  10.790  37.530  0.00  0.00    +0.000 A 
ATOM     18  C   UNL     1      22.175  11.602  38.010  0.00  0.00    +0.000 A 
ATOM     19  C   UNL     1      23.494  11.480  37.621  0.00  0.00    +0.000 A 
ATOM     20  C   UNL     1      24.563  12.383  38.160  0.00  0.00    +0.000 C 
ENDBRANCH   1  17
TORSDOF 1
ENDMDL
MODEL 5
REMARK VINA RESULT:      -6.5      5.089      5.826
REMARK  Name = 
REMARK  1 active torsions:
REMARK  status: ('A' for Active; 'I' for Inactive)
REMARK    1  A    between atoms: C_5  and  N_6
REMARK                            x       y       z     vdW  Elec       q    Type
REMARK                         _______ _______ _______ _____ _____    ______ ____
ROOT
ATOM      1  N   UNL     1      31.366  22.734  24.410  0.00  0.00    +0.000 NA
ATOM      2  C   UNL     1      32.188  23.897  24.617  0.00  0.00    +0.000 A 
ATOM      3  N   UNL     1      33.502  23.881  24.436  0.00  0.00    +0.000 NA
ATOM      4  C   UNL     1      34.359  24.889  24.597  0.00  0.00    +0.000 A 
ATOM      5  C   UNL     1      35.696  24.554  24.325  0.00  0.00    +0.000 A 
ATOM      6  C   UNL     1      36.724  25.458  24.434  0.00  0.00    +0.000 A 
ATOM      7  C   UNL     1      36.460  26.751  24.822  0.00  0.00    +0.000 A 
ATOM      8  C   UNL     1      35.156  27.075  25.085  0.00  0.00    +0.000 A 
ATOM      9  C   UNL     1      34.090  26.162  24.979  0.00  0.00    +0.000 A 
ATOM     10  C   UNL     1      32.802  26.597  25.271  0.00  0.00    +0.000 A 
ATOM     11  O   UNL     1      32.625  27.792  25.620  0.00  0.00    +0.000 OA
ATOM     12  S   UNL     1      31.595  25.415  25.110  0.00  0.00    +0.000 S 
ENDROOT
BRANCH   1  17
ATOM     13  C   UNL     1      25.719  23.095  25.159  0.00  0.00    +0.000 C 
ATOM     14  C   UNL     1      27.187  22.989  25.002  0.00  0.00    +0.000 A 
ATOM     15  C   UNL     1      28.028  22.567  26.010  0.00  0.00    +0.000 A 
ATOM     16  C   UNL     1      29.394  22.477  25.837  0.00  0.00    +0.000 A 
ATOM     17  C   UNL     1      29.973  22.815  24.619  0.00  0.00    +0.000 A 
ATOM     18  C   UNL     1      29.136  23.232  23.623  0.00  0.00    +0.000 A 
ATOM     19  C   UNL     1      27.768  23.325  23.791  0.00  0.00    +0.000 A 
ATOM     20  C   UNL     1      26.866  23.785  22.686  0.00  0.00    +0.000 C 
ENDBRANCH   1  17
TORSDOF 1
ENDMDL
MODEL 6
REMARK VINA RESULT:      -6.4     22.555     24.527
REMARK  Name = 
REMARK  1 active torsions:
REMARK  status: ('A' for Active; 'I' for Inactive)
REMARK    1  A    between atoms: C_5  and  N_6
REMARK                            x       y       z     vdW  Elec       q    Type
REMARK                         _______ _______ _______ _____ _____    ______ ____
ROOT
ATOM      1  N   UNL     1      19.381   9.848  37.605  0.00  0.00    +0.000 NA
ATOM      2  C   UNL     1      20.395  10.837  37.865  0.00  0.00    +0.000 A 
ATOM      3  N   UNL     1      21.682  10.611  37.643  0.00  0.00    +0.000 NA
ATOM      4  C   UNL     1      22.702  11.446  37.846  0.00  0.00    +0.000 A 
ATOM      5  C   UNL     1      23.956  10.910  37.510  0.00  0.00    +0.000 A 
ATOM      6  C   UNL     1      25.126  11.617  37.649  0.00  0.00    +0.000 A 
ATOM      7  C   UNL     1      25.094  12.904  38.133  0.00  0.00    +0.000 A 
ATOM      8  C   UNL     1      23.870  13.424  38.458  0.00  0.00    +0.000 A 
ATOM      9  C   UNL     1      22.662  12.714  38.323  0.00  0.00    +0.000 A 
ATOM     10  C   UNL     1      21.473  13.338  38.684  0.00  0.00    +0.000 A 
ATOM     11  O   UNL     1      21.510  14.517  39.121  0.00  0.00    +0.000 OA
ATOM     12  S   UNL     1      20.080  12.393  38.481  0.00  0.00    +0.000 S 
ENDROOT
BRANCH   1  17
ATOM     13  C   UNL     1      13.894  11.101  38.553  0.00  0.00    +0.000 C 
ATOM     14  C   UNL     1      15.319  10.762  38.344  0.00  0.00    +0.000 A 
ATOM     15  C   UNL     1      16.103  10.157  39.304  0.00  0.00    +0.000 A 
ATOM     16  C   UNL     1      17.430   9.851  39.082  0.00  0.00    +0.000 A 
ATOM     17  C   UNL     1      18.028  10.147  37.863  0.00  0.00    +0.000 A 
ATOM     18  C   UNL     1      17.247  10.746  36.914  0.00  0.00    +0.000 A 
ATOM     19  C   UNL     1      15.919  11.056  37.131  0.00  0.00    +0.000 A 
ATOM     20  C   UNL     1      15.079  11.712  36.077  0.00  0.00    +0.000 C 
ENDBRANCH   1  17
TORSDOF 1
ENDMDL
MODEL 7
REMARK VINA RESULT:      -6.4     34.559     37.417
REMARK  Name = 
REMARK  1 active torsions:
REMARK  status: ('A' for Active; 'I' for Inactive)
REMARK    1  A    between atoms: C_5  and  N_6
REMARK                            x       y       z     vdW  Elec       q    Type
REMARK                         _______ _______ _______ _____ _____    ______ ____
ROOT
ATOM      1  N   UNL     1      16.053 -10.052  25.548  0.00  0.00    +0.000 NA
ATOM      2  C   UNL     1      17.032  -9.003  25.668  0.00  0.00    +0.000 A 
ATOM      3  N   UNL     1      18.284  -9.148  25.254  0.00  0.00    +0.000 NA
ATOM      4  C   UNL     1      19.270  -8.253  25.314  0.00  0.00    +0.000 A 
ATOM      5  C   UNL     1      20.491  -8.710  24.790  0.00  0.00    +0.000 A 
ATOM      6  C   UNL     1      21.623  -7.933  24.763  0.00  0.00    +0.000 A 
ATOM      7  C   UNL     1      21.586  -6.651  25.262  0.00  0.00    +0.000 A 
ATOM      8  C   UNL     1      20.395  -6.209  25.771  0.00  0.00    +0.000 A 
ATOM      9  C   UNL     1      19.225  -6.991  25.807  0.00  0.00    +0.000 A 
ATOM     10  C   UNL     1      18.067  -6.442  26.348  0.00  0.00    +0.000 A 
ATOM     11  O   UNL     1      18.097  -5.264  26.788  0.00  0.00    +0.000 OA
ATOM     12  S   UNL     1      16.718  -7.471  26.341  0.00  0.00    +0.000 S 
ENDROOT
BRANCH   1  17
ATOM     13  C   UNL     1      10.739  -9.258  27.474  0.00  0.00    +0.000 C 
ATOM     14  C   UNL     1      12.111  -9.435  26.948  0.00  0.00    +0.000 A 
ATOM     15  C   UNL     1      12.631  -8.679  25.918  0.00  0.00    +0.000 A 
ATOM     16  C   UNL     1      13.915  -8.865  25.447  0.00  0.00    +0.000 A 
ATOM     17  C   UNL     1      14.737  -9.837  26.007  0.00  0.00    +0.000 A 
ATOM     18  C   UNL     1      14.217 -10.582  27.026  0.00  0.00    +0.000 A 
ATOM     19  C   UNL     1      12.933 -10.402  27.501  0.00  0.00    +0.000 A 
ATOM     20  C   UNL     1      12.382 -11.230  28.622  0.00  0.00    +0.000 C 
ENDBRANCH   1  17
TORSDOF 1
ENDMDL
MODEL 8
REMARK VINA RESULT:      -6.2      1.727      7.570
REMARK  Name = 
REMARK  1 active torsions:
REMARK  status: ('A' for Active; 'I' for Inactive)
REMARK    1  A    between atoms: C_5  and  N_6
REMARK                            x       y       z     vdW  Elec       q    Type
REMARK                         _______ _______ _______ _____ _____    ______ ____
ROOT
ATOM      1  N   UNL     1      30.925  26.900  18.413  0.00  0.00    +0.000 NA
ATOM      2  C   UNL     1      29.937  26.783  19.455  0.00  0.00    +0.000 A 
ATOM      3  N   UNL     1      29.783  25.676  20.167  0.00  0.00    +0.000 NA
ATOM      4  C   UNL     1      28.908  25.454  21.148  0.00  0.00    +0.000 A 
ATOM      5  C   UNL     1      28.992  24.170  21.712  0.00  0.00    +0.000 A 
ATOM      6  C   UNL     1      28.175  23.755  22.735  0.00  0.00    +0.000 A 
ATOM      7  C   UNL     1      27.228  24.611  23.245  0.00  0.00    +0.000 A 
ATOM      8  C   UNL     1      27.148  25.862  22.694  0.00  0.00    +0.000 A 
ATOM      9  C   UNL     1      27.977  26.305  21.646  0.00  0.00    +0.000 A 
ATOM     10  C   UNL     1      27.811  27.597  21.160  0.00  0.00    +0.000 A 
ATOM     11  O   UNL     1      26.927  28.332  21.669  0.00  0.00    +0.000 OA
ATOM     12  S   UNL     1      28.861  28.026  19.899  0.00  0.00    +0.000 S 
ENDROOT
BRANCH   1  17
ATOM     13  C   UNL     1      31.337  31.736  15.410  0.00  0.00    +0.000 C 
ATOM     14  C   UNL     1      31.253  30.499  16.217  0.00  0.00    +0.000 A 
ATOM     15  C   UNL     1      31.856  30.354  17.449  0.00  0.00    +0.000 A 
ATOM     16  C   UNL     1      31.761  29.189  18.180  0.00  0.00    +0.000 A 
ATOM     17  C   UNL     1      31.041  28.105  17.690  0.00  0.00    +0.000 A 
ATOM     18  C   UNL     1      30.444  28.253  16.470  0.00  0.00    +0.000 A 
ATOM     19  C   UNL     1      30.537  29.417  15.732  0.00  0.00    +0.000 A 
ATOM     20  C   UNL     1      29.874  29.559  14.395  0.00  0.00    +0.000 C 
ENDBRANCH   1  17
TORSDOF 1
ENDMDL
MODEL 9
REMARK VINA RESULT:      -6.1     28.297     31.810
REMARK  Name = 
REMARK  1 active torsions:
REMARK  status: ('A' for Active; 'I' for Inactive)
REMARK    1  A    between atoms: C_5  and  N_6
REMARK                            x       y       z     vdW  Elec       q    Type
REMARK                         _______ _______ _______ _____ _____    ______ ____
ROOT
ATOM      1  N   UNL     1      33.592  -3.263  33.187  0.00  0.00    +0.000 NA
ATOM      2  C   UNL     1      33.564  -1.960  33.798  0.00  0.00    +0.000 A 
ATOM      3  N   UNL     1      33.732  -0.844  33.101  0.00  0.00    +0.000 NA
ATOM      4  C   UNL     1      33.726   0.409  33.558  0.00  0.00    +0.000 A 
ATOM      5  C   UNL     1      33.932   1.381  32.564  0.00  0.00    +0.000 A 
ATOM      6  C   UNL     1      33.960   2.727  32.838  0.00  0.00    +0.000 A 
ATOM      7  C   UNL     1      33.780   3.166  34.129  0.00  0.00    +0.000 A 
ATOM      8  C   UNL     1      33.579   2.217  35.094  0.00  0.00    +0.000 A 
ATOM      9  C   UNL     1      33.548   0.834  34.832  0.00  0.00    +0.000 A 
ATOM     10  C   UNL     1      33.336  -0.044  35.889  0.00  0.00    +0.000 A 
ATOM     11  O   UNL     1      33.179   0.420  37.047  0.00  0.00    +0.000 OA
ATOM     12  S   UNL     1      33.317  -1.686  35.461  0.00  0.00    +0.000 S 
ENDROOT
BRANCH   1  17
ATOM     13  C   UNL     1      32.743  -7.909  36.392  0.00  0.00    +0.000 C 
ATOM     14  C   UNL     1      33.002  -6.709  35.567  0.00  0.00    +0.000 A 
ATOM     15  C   UNL     1      34.267  -6.224  35.310  0.00  0.00    +0.000 A 
ATOM     16  C   UNL     1      34.481  -5.101  34.537  0.00  0.00    +0.000 A 
ATOM     17  C   UNL     1      33.407  -4.413  33.982  0.00  0.00    +0.000 A 
ATOM     18  C   UNL     1      32.156  -4.898  34.238  0.00  0.00    +0.000 A 
ATOM     19  C   UNL     1      31.936  -6.020  35.012  0.00  0.00    +0.000 A 
ATOM     20  C   UNL     1      30.555  -6.536  35.282  0.00  0.00    +0.000 C 
ENDBRANCH   1  17
TORSDOF 1
ENDMDL
MODEL 10
REMARK VINA RESULT:      -6.1      5.770      7.664
REMARK  Name = 
REMARK  1 active torsions:
REMARK  status: ('A' for Active; 'I' for Inactive)
REMARK    1  A    between atoms: C_5  and  N_6
REMARK                            x       y       z     vdW  Elec       q    Type
REMARK                         _______ _______ _______ _____ _____    ______ ____
ROOT
ATOM      1  N   UNL     1      25.636  26.047  26.912  0.00  0.00    +0.000 NA
ATOM      2  C   UNL     1      26.475  25.218  26.086  0.00  0.00    +0.000 A 
ATOM      3  N   UNL     1      27.705  24.873  26.442  0.00  0.00    +0.000 NA
ATOM      4  C   UNL     1      28.567  24.117  25.762  0.00  0.00    +0.000 A 
ATOM      5  C   UNL     1      29.800  23.931  26.409  0.00  0.00    +0.000 A 
ATOM      6  C   UNL     1      30.817  23.183  25.868  0.00  0.00    +0.000 A 
ATOM      7  C   UNL     1      30.645  22.579  24.644  0.00  0.00    +0.000 A 
ATOM      8  C   UNL     1      29.442  22.761  24.016  0.00  0.00    +0.000 A 
ATOM      9  C   UNL     1      28.390  23.525  24.556  0.00  0.00    +0.000 A 
ATOM     10  C   UNL     1      27.208  23.645  23.832  0.00  0.00    +0.000 A 
ATOM     11  O   UNL     1      27.113  23.069  22.718  0.00  0.00    +0.000 OA
ATOM     12  S   UNL     1      26.009  24.586  24.575  0.00  0.00    +0.000 S 
ENDROOT
BRANCH   1  17
ATOM     13  C   UNL     1      20.336  27.350  25.241  0.00  0.00    +0.000 C 
ATOM     14  C   UNL     1      21.724  27.029  25.641  0.00  0.00    +0.000 A 
ATOM     15  C   UNL     1      22.828  27.358  24.881  0.00  0.00    +0.000 A 
ATOM     16  C   UNL     1      24.111  27.047  25.279  0.00  0.00    +0.000 A 
ATOM     17  C   UNL     1      24.336  26.380  26.478  0.00  0.00    +0.000 A 
ATOM     18  C   UNL     1      23.241  26.056  27.227  0.00  0.00    +0.000 A 
ATOM     19  C   UNL     1      21.953  26.364  26.834  0.00  0.00    +0.000 A 
ATOM     20  C   UNL     1      20.763  26.001  27.671  0.00  0.00    +0.000 C 
ENDBRANCH   1  17
TORSDOF 1
ENDMDL
