MODEL 1
REMARK VINA RESULT:      -6.9      0.000      0.000
REMARK  Name = 
REMARK  2 active torsions:
REMARK  status: ('A' for Active; 'I' for Inactive)
REMARK    1  A    between atoms: C_5  and  C_6
REMARK    2  A    between atoms: C_11  and  C_12
REMARK                            x       y       z     vdW  Elec       q    Type
REMARK                         _______ _______ _______ _____ _____    ______ ____
ROOT
ATOM      1  C   UNL     1      28.150  23.641  23.598  0.00  0.00    +0.000 A 
ATOM      2  N   UNL     1      27.790  23.669  22.289  0.00  0.00    +0.000 NA
ATOM      3  C   UNL     1      26.491  23.324  22.287  0.00  0.00    +0.000 A 
ATOM      4  N   UNL     1      25.657  23.212  21.141  0.00  0.00    +0.000 NA
ATOM      5  O   UNL     1      26.083  23.100  23.512  0.00  0.00    +0.000 OA
ATOM      6  C   UNL     1      27.057  23.278  24.366  0.00  0.00    +0.000 A 
ENDROOT
BRANCH   1  11
ATOM      7  C   UNL     1      33.399  24.740  25.642  0.00  0.00    +0.000 C 
ATOM      8  C   UNL     1      32.013  24.520  25.121  0.00  0.00    +0.000 A 
ATOM      9  C   UNL     1      31.074  25.506  25.051  0.00  0.00    +0.000 A 
ATOM     10  C   UNL     1      29.830  25.205  24.557  0.00  0.00    +0.000 A 
ATOM     11  C   UNL     1      29.477  23.942  24.123  0.00  0.00    +0.000 A 
ATOM     12  C   UNL     1      30.465  22.972  24.213  0.00  0.00    +0.000 A 
ATOM     13  C   UNL     1      31.731  23.223  24.703  0.00  0.00    +0.000 A 
ENDBRANCH   1  11
BRANCH   6  14
ATOM     14  C   UNL     1      27.069  23.146  25.822  0.00  0.00    +0.000 A 
ATOM     15  C   UNL     1      27.951  22.300  26.472  0.00  0.00    +0.000 A 
ATOM     16  C   UNL     1      27.973  22.165  27.845  0.00  0.00    +0.000 A 
ATOM     17  C   UNL     1      27.107  22.878  28.643  0.00  0.00    +0.000 A 
ATOM     18  C   UNL     1      27.130  22.735  30.119  0.00  0.00    +0.000 C 
ATOM     19  C   UNL     1      26.215  23.734  27.997  0.00  0.00    +0.000 A 
ATOM     20  C   UNL     1      26.202  23.859  26.624  0.00  0.00    +0.000 A 
ENDBRANCH   6  14
TORSDOF 2
ENDMDL
MODEL 2
REMARK VINA RESULT:      -6.9      0.694      4.580
REMARK  Name = 
REMARK  2 active torsions:
REMARK  status: ('A' for Active; 'I' for Inactive)
REMARK    1  A    between atoms: C_5  and  C_6
REMARK    2  A    between atoms: C_11  and  C_12
REMARK                            x       y       z     vdW  Elec       q    Type
REMARK                         _______ _______ _______ _____ _____    ______ ____
ROOT
ATOM      1  C   UNL     1      27.027  23.278  24.402  0.00  0.00    +0.000 A 
ATOM      2  N   UNL     1      25.950  23.089  23.597  0.00  0.00    +0.000 NA
ATOM      3  C   UNL     1      26.414  23.299  22.353  0.00  0.00    +0.000 A 
ATOM      4  N   UNL     1      25.658  23.216  21.152  0.00  0.00    +0.000 NA
ATOM      5  O   UNL     1      27.689  23.597  22.394  0.00  0.00    +0.000 OA
ATOM      6  C   UNL     1      28.127  23.601  23.626  0.00  0.00    +0.000 A 
ENDROOT
BRANCH   1  11
ATOM      7  C   UNL     1      27.126  22.779  30.118  0.00  0.00    +0.000 C 
ATOM      8  C   UNL     1      27.048  22.954  28.633  0.00  0.00    +0.000 A 
ATOM      9  C   UNL     1      26.163  23.795  28.025  0.00  0.00    +0.000 A 
ATOM     10  C   UNL     1      26.169  23.886  26.656  0.00  0.00    +0.000 A 
ATOM     11  C   UNL     1      27.033  23.165  25.855  0.00  0.00    +0.000 A 
ATOM     12  C   UNL     1      27.914  22.324  26.520  0.00  0.00    +0.000 A 
ATOM     13  C   UNL     1      27.949  22.195  27.894  0.00  0.00    +0.000 A 
ENDBRANCH   1  11
BRANCH   6  14
ATOM     14  C   UNL     1      29.464  23.873  24.151  0.00  0.00    +0.000 A 
ATOM     15  C   UNL     1      30.433  22.889  24.231  0.00  0.00    +0.000 A 
ATOM     16  C   UNL     1      31.699  23.132  24.724  0.00  0.00    +0.000 A 
ATOM     17  C   UNL     1      32.061  24.386  25.164  0.00  0.00    +0.000 A 
ATOM     18  C   UNL     1      33.421  24.650  25.694  0.00  0.00    +0.000 C 
ATOM     19  C   UNL     1      31.091  25.385  25.088  0.00  0.00    +0.000 A 
ATOM     20  C   UNL     1      29.829  25.129  24.593  0.00  0.00    +0.000 A 
ENDBRANCH   6  14
TORSDOF 2
ENDMDL
MODEL 3
REMARK VINA RESULT:      -6.7      2.276      4.564
REMARK  Name = 
REMARK  2 active torsions:
REMARK  status: ('A' for Active; 'I' for Inactive)
REMARK    1  A    between atoms: C_5  and  C_6
REMARK    2  A    between atoms: C_11  and  C_12
REMARK                            x       y       z     vdW  Elec       q    Type
REMARK                         _______ _______ _______ _____ _____    ______ ____
ROOT
ATOM      1  C   UNL     1      28.492  24.521  24.095  0.00  0.00    +0.000 A 
ATOM      2  N   UNL     1      28.254  24.865  22.804  0.00  0.00    +0.000 NA
ATOM      3  C   UNL     1      29.359  24.482  22.141  0.00  0.00    +0.000 A 
ATOM      4  N   UNL     1      29.592  24.630  20.746  0.00  0.00    +0.000 NA
ATOM      5  O   UNL     1      30.216  23.939  22.971  0.00  0.00    +0.000 OA
ATOM      6  C   UNL     1      29.742  23.933  24.189  0.00  0.00    +0.000 A 
ENDROOT
BRANCH   1  11
ATOM      7  C   UNL     1      24.951  25.441  28.516  0.00  0.00    +0.000 C 
ATOM      8  C   UNL     1      25.841  25.142  27.350  0.00  0.00    +0.000 A 
ATOM      9  C   UNL     1      25.703  24.032  26.569  0.00  0.00    +0.000 A 
ATOM     10  C   UNL     1      26.570  23.847  25.522  0.00  0.00    +0.000 A 
ATOM     11  C   UNL     1      27.583  24.734  25.215  0.00  0.00    +0.000 A 
ATOM     12  C   UNL     1      27.683  25.846  26.037  0.00  0.00    +0.000 A 
ATOM     13  C   UNL     1      26.838  26.080  27.104  0.00  0.00    +0.000 A 
ENDBRANCH   1  11
BRANCH   6  14
ATOM     14  C   UNL     1      30.336  23.433  25.429  0.00  0.00    +0.000 A 
ATOM     15  C   UNL     1      29.919  22.252  26.016  0.00  0.00    +0.000 A 
ATOM     16  C   UNL     1      30.471  21.769  27.186  0.00  0.00    +0.000 A 
ATOM     17  C   UNL     1      31.478  22.452  27.830  0.00  0.00    +0.000 A 
ATOM     18  C   UNL     1      32.072  21.936  29.087  0.00  0.00    +0.000 C 
ATOM     19  C   UNL     1      31.905  23.644  27.246  0.00  0.00    +0.000 A 
ATOM     20  C   UNL     1      31.345  24.116  26.077  0.00  0.00    +0.000 A 
ENDBRANCH   6  14
TORSDOF 2
ENDMDL
MODEL 4
REMARK VINA RESULT:      -6.6     13.671     16.324
REMARK  Name = 
REMARK  2 active torsions:
REMARK  status: ('A' for Active; 'I' for Inactive)
REMARK    1  A    between atoms: C_5  and  C_6
REMARK    2  A    between atoms: C_11  and  C_12
REMARK                            x       y       z     vdW  Elec       q    Type
REMARK                         _______ _______ _______ _____ _____    ______ ____
ROOT
ATOM      1  C   UNL     1      30.448  22.036  10.747  0.00  0.00    +0.000 A 
ATOM      2  N   UNL     1      29.284  22.438  11.319  0.00  0.00    +0.000 NA
ATOM      3  C   UNL     1      29.599  22.669  12.605  0.00  0.00    +0.000 A 
ATOM      4  N   UNL     1      28.707  23.114  13.619  0.00  0.00    +0.000 NA
ATOM      5  O   UNL     1      30.871  22.425  12.807  0.00  0.00    +0.000 OA
ATOM      6  C   UNL     1      31.450  22.033  11.703  0.00  0.00    +0.000 A 
ENDROOT
BRANCH   1  11
ATOM      7  C   UNL     1      31.183  20.648   5.228  0.00  0.00    +0.000 C 
ATOM      8  C   UNL     1      30.968  20.946   6.679  0.00  0.00    +0.000 A 
ATOM      9  C   UNL     1      30.488  20.030   7.568  0.00  0.00    +0.000 A 
ATOM     10  C   UNL     1      30.325  20.400   8.879  0.00  0.00    +0.000 A 
ATOM     11  C   UNL     1      30.625  21.663   9.349  0.00  0.00    +0.000 A 
ATOM     12  C   UNL     1      31.110  22.560   8.408  0.00  0.00    +0.000 A 
ATOM     13  C   UNL     1      31.292  22.239   7.078  0.00  0.00    +0.000 A 
ENDBRANCH   1  11
BRANCH   6  14
ATOM     14  C   UNL     1      32.840  21.656  11.449  0.00  0.00    +0.000 A 
ATOM     15  C   UNL     1      33.353  20.436  11.855  0.00  0.00    +0.000 A 
ATOM     16  C   UNL     1      34.662  20.068  11.623  0.00  0.00    +0.000 A 
ATOM     17  C   UNL     1      35.531  20.910  10.965  0.00  0.00    +0.000 A 
ATOM     18  C   UNL     1      36.939  20.516  10.714  0.00  0.00    +0.000 C 
ATOM     19  C   UNL     1      35.023  22.141  10.552  0.00  0.00    +0.000 A 
ATOM     20  C   UNL     1      33.712  22.498  10.791  0.00  0.00    +0.000 A 
ENDBRANCH   6  14
TORSDOF 2
ENDMDL
MODEL 5
REMARK VINA RESULT:      -6.6     13.672     16.209
REMARK  Name = 
REMARK  2 active torsions:
REMARK  status: ('A' for Active; 'I' for Inactive)
REMARK    1  A    between atoms: C_5  and  C_6
REMARK    2  A    between atoms: C_11  and  C_12
REMARK                            x       y       z     vdW  Elec       q    Type
REMARK                         _______ _______ _______ _____ _____    ______ ____
ROOT
ATOM      1  C   UNL     1      31.287  22.035  11.654  0.00  0.00    +0.000 A 
ATOM      2  N   UNL     1      30.713  22.422  12.822  0.00  0.00    +0.000 NA
ATOM      3  C   UNL     1      29.424  22.645  12.509  0.00  0.00    +0.000 A 
ATOM      4  N   UNL     1      28.407  23.071  13.407  0.00  0.00    +0.000 NA
ATOM      5  O   UNL     1      29.224  22.411  11.236  0.00  0.00    +0.000 OA
ATOM      6  C   UNL     1      30.330  22.032  10.653  0.00  0.00    +0.000 A 
ENDROOT
BRANCH   1  11
ATOM      7  C   UNL     1      36.821  20.719  10.896  0.00  0.00    +0.000 C 
ATOM      8  C   UNL     1      35.369  21.002  11.127  0.00  0.00    +0.000 A 
ATOM      9  C   UNL     1      34.538  20.153  11.797  0.00  0.00    +0.000 A 
ATOM     10  C   UNL     1      33.221  20.502  11.958  0.00  0.00    +0.000 A 
ATOM     11  C   UNL     1      32.689  21.680  11.471  0.00  0.00    +0.000 A 
ATOM     12  C   UNL     1      33.572  22.511  10.797  0.00  0.00    +0.000 A 
ATOM     13  C   UNL     1      34.906  22.206  10.608  0.00  0.00    +0.000 A 
ENDBRANCH   1  11
BRANCH   6  14
ATOM     14  C   UNL     1      30.585  21.667   9.260  0.00  0.00    +0.000 A 
ATOM     15  C   UNL     1      30.341  20.392   8.781  0.00  0.00    +0.000 A 
ATOM     16  C   UNL     1      30.577  20.034   7.469  0.00  0.00    +0.000 A 
ATOM     17  C   UNL     1      31.072  20.944   6.563  0.00  0.00    +0.000 A 
ATOM     18  C   UNL     1      31.326  20.562   5.152  0.00  0.00    +0.000 C 
ATOM     19  C   UNL     1      31.320  22.233   7.036  0.00  0.00    +0.000 A 
ATOM     20  C   UNL     1      31.081  22.578   8.349  0.00  0.00    +0.000 A 
ENDBRANCH   6  14
TORSDOF 2
ENDMDL
MODEL 6
REMARK VINA RESULT:      -6.5     18.761     21.076
REMARK  Name = 
REMARK  2 active torsions:
REMARK  status: ('A' for Active; 'I' for Inactive)
REMARK    1  A    between atoms: C_5  and  C_6
REMARK    2  A    between atoms: C_11  and  C_12
REMARK                            x       y       z     vdW  Elec       q    Type
REMARK                         _______ _______ _______ _____ _____    ______ ____
ROOT
ATOM      1  C   UNL     1      18.740  10.092  39.395  0.00  0.00    +0.000 A 
ATOM      2  N   UNL     1      18.523   9.851  40.713  0.00  0.00    +0.000 NA
ATOM      3  C   UNL     1      17.211   9.569  40.795  0.00  0.00    +0.000 A 
ATOM      4  N   UNL     1      16.497   9.244  41.982  0.00  0.00    +0.000 NA
ATOM      5  O   UNL     1      16.662   9.633  39.607  0.00  0.00    +0.000 OA
ATOM      6  C   UNL     1      17.550   9.951  38.702  0.00  0.00    +0.000 A 
ENDROOT
BRANCH   1  11
ATOM      7  C   UNL     1      23.793  11.404  37.012  0.00  0.00    +0.000 C 
ATOM      8  C   UNL     1      22.463  11.130  37.641  0.00  0.00    +0.000 A 
ATOM      9  C   UNL     1      21.611  12.113  38.051  0.00  0.00    +0.000 A 
ATOM     10  C   UNL     1      20.412  11.760  38.616  0.00  0.00    +0.000 A 
ATOM     11  C   UNL     1      20.020  10.448  38.794  0.00  0.00    +0.000 A 
ATOM     12  C   UNL     1      20.918   9.483  38.362  0.00  0.00    +0.000 A 
ATOM     13  C   UNL     1      22.137   9.785  37.787  0.00  0.00    +0.000 A 
ENDBRANCH   1  11
BRANCH   6  14
ATOM     14  C   UNL     1      17.401  10.134  37.259  0.00  0.00    +0.000 A 
ATOM     15  C   UNL     1      17.827   9.179  36.352  0.00  0.00    +0.000 A 
ATOM     16  C   UNL     1      17.692   9.339  34.988  0.00  0.00    +0.000 A 
ATOM     17  C   UNL     1      17.117  10.473  34.459  0.00  0.00    +0.000 A 
ATOM     18  C   UNL     1      16.971  10.647  32.993  0.00  0.00    +0.000 C 
ATOM     19  C   UNL     1      16.684  11.441  35.365  0.00  0.00    +0.000 A 
ATOM     20  C   UNL     1      16.825  11.269  36.726  0.00  0.00    +0.000 A 
ENDBRANCH   6  14
TORSDOF 2
ENDMDL
MODEL 7
REMARK VINA RESULT:      -6.5      2.230      3.047
REMARK  Name = 
REMARK  2 active torsions:
REMARK  status: ('A' for Active; 'I' for Inactive)
REMARK    1  A    between atoms: C_5  and  C_6
REMARK    2  A    between atoms: C_11  and  C_12
REMARK                            x       y       z     vdW  Elec       q    Type
REMARK                         _______ _______ _______ _____ _____    ______ ____
ROOT
ATOM      1  C   UNL     1      29.632  23.969  24.218  0.00  0.00    +0.000 A 
ATOM      2  N   UNL     1      30.214  23.912  22.993  0.00  0.00    +0.000 NA
ATOM      3  C   UNL     1      29.332  24.505  22.170  0.00  0.00    +0.000 A 
ATOM      4  N   UNL     1      29.489  24.692  20.769  0.00  0.00    +0.000 NA
ATOM      5  O   UNL     1      28.280  24.898  22.846  0.00  0.00    +0.000 OA
ATOM      6  C   UNL     1      28.403  24.598  24.112  0.00  0.00    +0.000 A 
ENDROOT
BRANCH   1  11
ATOM      7  C   UNL     1      31.919  22.006  29.102  0.00  0.00    +0.000 C 
ATOM      8  C   UNL     1      31.284  22.461  27.825  0.00  0.00    +0.000 A 
ATOM      9  C   UNL     1      30.323  21.747  27.171  0.00  0.00    +0.000 A 
ATOM     10  C   UNL     1      29.801  22.249  26.006  0.00  0.00    +0.000 A 
ATOM     11  C   UNL     1      30.201  23.451  25.456  0.00  0.00    +0.000 A 
ATOM     12  C   UNL     1      31.179  24.141  26.157  0.00  0.00    +0.000 A 
ATOM     13  C   UNL     1      31.738  23.680  27.333  0.00  0.00    +0.000 A 
ENDBRANCH   1  11
BRANCH   6  14
ATOM     14  C   UNL     1      27.492  24.840  25.230  0.00  0.00    +0.000 A 
ATOM     15  C   UNL     1      26.514  23.929  25.588  0.00  0.00    +0.000 A 
ATOM     16  C   UNL     1      25.649  24.144  26.641  0.00  0.00    +0.000 A 
ATOM     17  C   UNL     1      25.721  25.293  27.396  0.00  0.00    +0.000 A 
ATOM     18  C   UNL     1      24.791  25.527  28.528  0.00  0.00    +0.000 C 
ATOM     19  C   UNL     1      26.703  26.218  27.043  0.00  0.00    +0.000 A 
ATOM     20  C   UNL     1      27.562  25.991  25.989  0.00  0.00    +0.000 A 
ENDBRANCH   6  14
TORSDOF 2
ENDMDL
MODEL 8
REMARK VINA RESULT:      -6.4     20.051     21.971
REMARK  Name = 
REMARK  2 active torsions:
REMARK  status: ('A' for Active; 'I' for Inactive)
REMARK    1  A    between atoms: C_5  and  C_6
REMARK    2  A    between atoms: C_11  and  C_12
REMARK                            x       y       z     vdW  Elec       q    Type
REMARK                         _______ _______ _______ _____ _____    ______ ____
ROOT
ATOM      1  C   UNL     1      20.048   9.981  37.658  0.00  0.00    +0.000 A 
ATOM      2  N   UNL     1      21.307  10.209  37.205  0.00  0.00    +0.000 NA
ATOM      3  C   UNL     1      22.108   9.692  38.154  0.00  0.00    +0.000 A 
ATOM      4  N   UNL     1      23.530   9.685  38.136  0.00  0.00    +0.000 NA
ATOM      5  O   UNL     1      21.387   9.183  39.122  0.00  0.00    +0.000 OA
ATOM      6  C   UNL     1      20.111   9.328  38.877  0.00  0.00    +0.000 A 
ENDROOT
BRANCH   1  11
ATOM      7  C   UNL     1      15.204  11.563  35.018  0.00  0.00    +0.000 C 
ATOM      8  C   UNL     1      16.466  11.091  35.671  0.00  0.00    +0.000 A 
ATOM      9  C   UNL     1      17.055   9.895  35.384  0.00  0.00    +0.000 A 
ATOM     10  C   UNL     1      18.212   9.552  36.037  0.00  0.00    +0.000 A 
ATOM     11  C   UNL     1      18.817  10.362  36.977  0.00  0.00    +0.000 A 
ATOM     12  C   UNL     1      18.181  11.568  37.235  0.00  0.00    +0.000 A 
ATOM     13  C   UNL     1      17.016  11.961  36.607  0.00  0.00    +0.000 A 
ENDBRANCH   1  11
BRANCH   6  14
ATOM     14  C   UNL     1      18.948   8.919  39.663  0.00  0.00    +0.000 A 
ATOM     15  C   UNL     1      18.636   7.587  39.870  0.00  0.00    +0.000 A 
ATOM     16  C   UNL     1      17.541   7.187  40.609  0.00  0.00    +0.000 A 
ATOM     17  C   UNL     1      16.698   8.110  41.186  0.00  0.00    +0.000 A 
ATOM     18  C   UNL     1      15.521   7.683  41.981  0.00  0.00    +0.000 C 
ATOM     19  C   UNL     1      17.005   9.456  40.983  0.00  0.00    +0.000 A 
ATOM     20  C   UNL     1      18.101   9.842  40.242  0.00  0.00    +0.000 A 
ENDBRANCH   6  14
TORSDOF 2
ENDMDL
MODEL 9
REMARK VINA RESULT:      -6.3     20.027     22.281
REMARK  Name = 
REMARK  2 active torsions:
REMARK  status: ('A' for Active; 'I' for Inactive)
REMARK    1  A    between atoms: C_5  and  C_6
REMARK    2  A    between atoms: C_11  and  C_12
REMARK                            x       y       z     vdW  Elec       q    Type
REMARK                         _______ _______ _______ _____ _____    ______ ____
ROOT
ATOM      1  C   UNL     1      20.135   9.333  38.933  0.00  0.00    +0.000 A 
ATOM      2  N   UNL     1      21.435   9.120  39.264  0.00  0.00    +0.000 NA
ATOM      3  C   UNL     1      22.137   9.697  38.274  0.00  0.00    +0.000 A 
ATOM      4  N   UNL     1      23.555   9.742  38.169  0.00  0.00    +0.000 NA
ATOM      5  O   UNL     1      21.322  10.227  37.395  0.00  0.00    +0.000 OA
ATOM      6  C   UNL     1      20.077  10.038  37.743  0.00  0.00    +0.000 A 
ENDROOT
BRANCH   1  11
ATOM      7  C   UNL     1      15.553   7.679  41.965  0.00  0.00    +0.000 C 
ATOM      8  C   UNL     1      16.762   8.044  41.162  0.00  0.00    +0.000 A 
ATOM      9  C   UNL     1      17.570   7.121  40.564  0.00  0.00    +0.000 A 
ATOM     10  C   UNL     1      18.656   7.556  39.848  0.00  0.00    +0.000 A 
ATOM     11  C   UNL     1      18.978   8.891  39.700  0.00  0.00    +0.000 A 
ATOM     12  C   UNL     1      18.127   9.791  40.326  0.00  0.00    +0.000 A 
ATOM     13  C   UNL     1      17.021   9.406  41.058  0.00  0.00    +0.000 A 
ENDBRANCH   1  11
BRANCH   6  14
ATOM     14  C   UNL     1      18.840  10.449  37.079  0.00  0.00    +0.000 A 
ATOM     15  C   UNL     1      18.226  11.656  37.359  0.00  0.00    +0.000 A 
ATOM     16  C   UNL     1      17.058  12.056  36.740  0.00  0.00    +0.000 A 
ATOM     17  C   UNL     1      16.444  11.259  35.800  0.00  0.00    +0.000 A 
ATOM     18  C   UNL     1      15.190  11.686  35.134  0.00  0.00    +0.000 C 
ATOM     19  C   UNL     1      17.056  10.039  35.512  0.00  0.00    +0.000 A 
ATOM     20  C   UNL     1      18.222   9.651  36.138  0.00  0.00    +0.000 A 
ENDBRANCH   6  14
TORSDOF 2
ENDMDL
MODEL 10
REMARK VINA RESULT:      -6.1     18.179     19.691
REMARK  Name = 
REMARK  2 active torsions:
REMARK  status: ('A' for Active; 'I' for Inactive)
REMARK    1  A    between atoms: C_5  and  C_6
REMARK    2  A    between atoms: C_11  and  C_12
REMARK                            x       y       z     vdW  Elec       q    Type
REMARK                         _______ _______ _______ _____ _____    ______ ____
ROOT
ATOM      1  C   UNL     1      20.104  10.840  37.679  0.00  0.00    +0.000 A 
ATOM      2  N   UNL     1      18.814  10.652  37.300  0.00  0.00    +0.000 NA
ATOM      3  C   UNL     1      18.875   9.706  36.346  0.00  0.00    +0.000 A 
ATOM      4  N   UNL     1      17.770   9.163  35.634  0.00  0.00    +0.000 NA
ATOM      5  O   UNL     1      20.119   9.340  36.155  0.00  0.00    +0.000 OA
ATOM      6  C   UNL     1      20.924  10.001  36.945  0.00  0.00    +0.000 A 
ENDROOT
BRANCH   1  11
ATOM      7  C   UNL     1      21.921  14.462  41.742  0.00  0.00    +0.000 C 
ATOM      8  C   UNL     1      21.448  13.570  40.637  0.00  0.00    +0.000 A 
ATOM      9  C   UNL     1      21.245  14.004  39.360  0.00  0.00    +0.000 A 
ATOM     10  C   UNL     1      20.809  13.108  38.417  0.00  0.00    +0.000 A 
ATOM     11  C   UNL     1      20.564  11.778  38.696  0.00  0.00    +0.000 A 
ATOM     12  C   UNL     1      20.785  11.384  40.008  0.00  0.00    +0.000 A 
ATOM     13  C   UNL     1      21.222  12.245  40.995  0.00  0.00    +0.000 A 
ENDBRANCH   1  11
BRANCH   6  14
ATOM     14  C   UNL     1      22.378   9.927  37.084  0.00  0.00    +0.000 A 
ATOM     15  C   UNL     1      23.230  10.569  36.202  0.00  0.00    +0.000 A 
ATOM     16  C   UNL     1      24.604  10.508  36.322  0.00  0.00    +0.000 A 
ATOM     17  C   UNL     1      25.198   9.796  37.340  0.00  0.00    +0.000 A 
ATOM     18  C   UNL     1      26.674   9.729  37.470  0.00  0.00    +0.000 C 
ATOM     19  C   UNL     1      24.346   9.146  38.233  0.00  0.00    +0.000 A 
ATOM     20  C   UNL     1      22.975   9.214  38.103  0.00  0.00    +0.000 A 
ENDBRANCH   6  14
TORSDOF 2
ENDMDL
