MODEL 1
REMARK VINA RESULT:      -7.5      0.000      0.000
REMARK  Name = 
REMARK  7 active torsions:
REMARK  status: ('A' for Active; 'I' for Inactive)
REMARK    1  A    between atoms: C_2  and  O_3
REMARK    2  A    between atoms: O_3  and  C_4
REMARK    3  A    between atoms: C_4  and  C_6
REMARK    4  A    between atoms: C_17  and  C_18
REMARK    5  A    between atoms: C_23  and  O_24
REMARK    6  A    between atoms: O_24  and  C_25
REMARK    7  A    between atoms: C_25  and  C_26
REMARK                            x       y       z     vdW  Elec       q    Type
REMARK                         _______ _______ _______ _____ _____    ______ ____
ROOT
ATOM      1  C   UNL     1      35.481   5.237  13.480  0.00  0.00    +0.000 A 
ATOM      2  C   UNL     1      36.637   5.150  12.778  0.00  0.00    +0.000 A 
ATOM      3  C   UNL     1      37.532   4.106  12.831  0.00  0.00    +0.000 A 
ATOM      4  C   UNL     1      37.206   3.105  13.651  0.00  0.00    +0.000 A 
ATOM      5  C   UNL     1      35.996   3.147  14.407  0.00  0.00    +0.000 A 
ATOM      6  C   UNL     1      35.187   4.144  14.329  0.00  0.00    +0.000 A 
ATOM      7  C   UNL     1      35.581   1.949  15.480  0.00  0.00    +0.000 C 
ATOM      8  C   UNL     1      36.966   2.189  16.059  0.00  0.00    +0.000 C 
ATOM      9  C   UNL     1      37.180   1.928  14.964  0.00  0.00    +0.000 C 
ATOM     10  C   UNL     1      36.396   1.511  13.574  0.00  0.00    +0.000 C 
ATOM     11  C   UNL     1      36.180   0.546  14.632  0.00  0.00    +0.000 C 
ATOM     12  C   UNL     1      37.916   0.781  14.939  0.00  0.00    +0.000 C 
ATOM     13  N   UNL     1      38.208   1.935  13.747  0.00  0.00    +0.000 NA
ENDROOT
BRANCH  12  14
ATOM     14  C   UNL     1      38.357  -0.438  14.226  0.00  0.00    +0.000 A 
ATOM     15  C   UNL     1      38.363  -0.652  12.900  0.00  0.00    +0.000 A 
ATOM     16  C   UNL     1      39.000  -1.748  12.324  0.00  0.00    +0.000 A 
ATOM     17  C   UNL     1      39.654  -2.668  13.107  0.00  0.00    +0.000 A 
ATOM     18  C   UNL     1      39.656  -2.459  14.497  0.00  0.00    +0.000 A 
ATOM     19  C   UNL     1      39.022  -1.376  15.070  0.00  0.00    +0.000 A 
BRANCH  19  20
ATOM     20  O   UNL     1      39.000  -1.214  16.428  0.00  0.00    +0.000 OA
BRANCH  20  21
ATOM     21  C   UNL     1      38.367  -2.048  17.317  0.00  0.00    +0.000 C 
BRANCH  21  22
ATOM     22  C   UNL     1      36.913  -1.865  17.395  0.00  0.00    +0.000 A 
ATOM     23  C   UNL     1      36.403  -0.844  18.140  0.00  0.00    +0.000 A 
ATOM     24  C   UNL     1      35.091  -0.517  18.204  0.00  0.00    +0.000 A 
ATOM     25  C   UNL     1      34.238  -1.305  17.439  0.00  0.00    +0.000 A 
ATOM     26  C   UNL     1      34.722  -2.360  16.663  0.00  0.00    +0.000 A 
ATOM     27  C   UNL     1      36.082  -2.660  16.632  0.00  0.00    +0.000 A 
ENDBRANCH  21  22
ENDBRANCH  20  21
ENDBRANCH  19  20
ENDBRANCH  12  14
BRANCH   1  28
ATOM     28  C   UNL     1      34.567   6.361  13.528  0.00  0.00    +0.000 C 
ATOM     29  O   UNL     1      33.716   6.440  14.480  0.00  0.00    +0.000 OA
BRANCH  28  30
ATOM     30  O   UNL     1      34.610   7.345  12.575  0.00  0.00    +0.000 OA
BRANCH  30  32
ATOM     31  C   UNL     1      34.474   7.204  10.192  0.00  0.00    +0.000 C 
ATOM     32  C   UNL     1      33.705   7.217  11.472  0.00  0.00    +0.000 C 
ENDBRANCH  30  32
ENDBRANCH  28  30
ENDBRANCH   1  28
TORSDOF 7
ENDMDL
MODEL 2
REMARK VINA RESULT:      -7.3      3.319      7.211
REMARK  Name = 
REMARK  7 active torsions:
REMARK  status: ('A' for Active; 'I' for Inactive)
REMARK    1  A    between atoms: C_2  and  O_3
REMARK    2  A    between atoms: O_3  and  C_4
REMARK    3  A    between atoms: C_4  and  C_6
REMARK    4  A    between atoms: C_17  and  C_18
REMARK    5  A    between atoms: C_23  and  O_24
REMARK    6  A    between atoms: O_24  and  C_25
REMARK    7  A    between atoms: C_25  and  C_26
REMARK                            x       y       z     vdW  Elec       q    Type
REMARK                         _______ _______ _______ _____ _____    ______ ____
ROOT
ATOM      1  C   UNL     1      41.194  -2.161  11.179  0.00  0.00    +0.000 A 
ATOM      2  C   UNL     1      40.547  -1.114  10.610  0.00  0.00    +0.000 A 
ATOM      3  C   UNL     1      39.458  -0.459  11.140  0.00  0.00    +0.000 A 
ATOM      4  C   UNL     1      39.025  -0.914  12.317  0.00  0.00    +0.000 A 
ATOM      5  C   UNL     1      39.677  -2.010  12.959  0.00  0.00    +0.000 A 
ATOM      6  C   UNL     1      40.692  -2.595  12.429  0.00  0.00    +0.000 A 
ATOM      7  C   UNL     1      39.135  -2.642  14.396  0.00  0.00    +0.000 C 
ATOM      8  C   UNL     1      37.796  -2.735  13.683  0.00  0.00    +0.000 C 
ATOM      9  C   UNL     1      38.056  -1.622  13.609  0.00  0.00    +0.000 C 
ATOM     10  C   UNL     1      39.229  -0.553  14.057  0.00  0.00    +0.000 C 
ATOM     11  C   UNL     1      38.604  -1.186  15.199  0.00  0.00    +0.000 C 
ATOM     12  C   UNL     1      37.103  -0.919  14.284  0.00  0.00    +0.000 C 
ATOM     13  N   UNL     1      37.788  -0.212  12.917  0.00  0.00    +0.000 NA
ENDROOT
BRANCH  12  14
ATOM     14  C   UNL     1      36.696   0.297  15.022  0.00  0.00    +0.000 A 
ATOM     15  C   UNL     1      37.094   1.560  14.798  0.00  0.00    +0.000 A 
ATOM     16  C   UNL     1      36.484   2.653  15.408  0.00  0.00    +0.000 A 
ATOM     17  C   UNL     1      35.437   2.475  16.279  0.00  0.00    +0.000 A 
ATOM     18  C   UNL     1      35.010   1.158  16.525  0.00  0.00    +0.000 A 
ATOM     19  C   UNL     1      35.615   0.074  15.925  0.00  0.00    +0.000 A 
BRANCH  19  20
ATOM     20  O   UNL     1      35.211  -1.201  16.210  0.00  0.00    +0.000 OA
BRANCH  20  21
ATOM     21  C   UNL     1      35.319  -1.814  17.436  0.00  0.00    +0.000 C 
BRANCH  21  22
ATOM     22  C   UNL     1      36.409  -2.792  17.533  0.00  0.00    +0.000 A 
ATOM     23  C   UNL     1      36.369  -3.920  16.770  0.00  0.00    +0.000 A 
ATOM     24  C   UNL     1      37.362  -4.839  16.700  0.00  0.00    +0.000 A 
ATOM     25  C   UNL     1      38.482  -4.573  17.480  0.00  0.00    +0.000 A 
ATOM     26  C   UNL     1      38.560  -3.428  18.276  0.00  0.00    +0.000 A 
ATOM     27  C   UNL     1      37.511  -2.512  18.316  0.00  0.00    +0.000 A 
ENDBRANCH  21  22
ENDBRANCH  20  21
ENDBRANCH  19  20
ENDBRANCH  12  14
BRANCH   1  28
ATOM     28  C   UNL     1      42.275  -2.938  10.607  0.00  0.00    +0.000 C 
ATOM     29  O   UNL     1      43.280  -3.249  11.335  0.00  0.00    +0.000 OA
BRANCH  28  30
ATOM     30  O   UNL     1      42.230  -3.353   9.302  0.00  0.00    +0.000 OA
BRANCH  30  32
ATOM     31  C   UNL     1      42.028  -5.733   9.421  0.00  0.00    +0.000 C 
ATOM     32  C   UNL     1      41.369  -4.459   9.005  0.00  0.00    +0.000 C 
ENDBRANCH  30  32
ENDBRANCH  28  30
ENDBRANCH   1  28
TORSDOF 7
ENDMDL
MODEL 3
REMARK VINA RESULT:      -7.3      1.556      3.988
REMARK  Name = 
REMARK  7 active torsions:
REMARK  status: ('A' for Active; 'I' for Inactive)
REMARK    1  A    between atoms: C_2  and  O_3
REMARK    2  A    between atoms: O_3  and  C_4
REMARK    3  A    between atoms: C_4  and  C_6
REMARK    4  A    between atoms: C_17  and  C_18
REMARK    5  A    between atoms: C_23  and  O_24
REMARK    6  A    between atoms: O_24  and  C_25
REMARK    7  A    between atoms: C_25  and  C_26
REMARK                            x       y       z     vdW  Elec       q    Type
REMARK                         _______ _______ _______ _____ _____    ______ ____
ROOT
ATOM      1  C   UNL     1      35.980   5.218  12.988  0.00  0.00    +0.000 A 
ATOM      2  C   UNL     1      34.988   5.189  13.912  0.00  0.00    +0.000 A 
ATOM      3  C   UNL     1      34.722   4.147  14.772  0.00  0.00    +0.000 A 
ATOM      4  C   UNL     1      35.529   3.089  14.665  0.00  0.00    +0.000 A 
ATOM      5  C   UNL     1      36.590   3.075  13.711  0.00  0.00    +0.000 A 
ATOM      6  C   UNL     1      36.804   4.070  12.926  0.00  0.00    +0.000 A 
ATOM      7  C   UNL     1      37.580   1.756  13.509  0.00  0.00    +0.000 C 
ATOM      8  C   UNL     1      36.278   0.986  13.358  0.00  0.00    +0.000 C 
ATOM      9  C   UNL     1      36.177   1.472  14.390  0.00  0.00    +0.000 C 
ATOM     10  C   UNL     1      37.011   2.444  15.430  0.00  0.00    +0.000 C 
ATOM     11  C   UNL     1      37.712   1.206  15.160  0.00  0.00    +0.000 C 
ATOM     12  C   UNL     1      36.098   0.479  15.320  0.00  0.00    +0.000 C 
ATOM     13  N   UNL     1      35.233   1.897  15.600  0.00  0.00    +0.000 NA
ENDROOT
BRANCH  12  14
ATOM     14  C   UNL     1      36.284   0.016  16.713  0.00  0.00    +0.000 A 
ATOM     15  C   UNL     1      36.112   0.726  17.840  0.00  0.00    +0.000 A 
ATOM     16  C   UNL     1      36.102   0.134  19.100  0.00  0.00    +0.000 A 
ATOM     17  C   UNL     1      36.274  -1.222  19.238  0.00  0.00    +0.000 A 
ATOM     18  C   UNL     1      36.457  -1.979  18.067  0.00  0.00    +0.000 A 
ATOM     19  C   UNL     1      36.470  -1.394  16.819  0.00  0.00    +0.000 A 
BRANCH  19  20
ATOM     20  O   UNL     1      36.692  -2.143  15.696  0.00  0.00    +0.000 OA
BRANCH  20  21
ATOM     21  C   UNL     1      37.826  -2.874  15.439  0.00  0.00    +0.000 C 
BRANCH  21  22
ATOM     22  C   UNL     1      38.815  -2.188  14.598  0.00  0.00    +0.000 A 
ATOM     23  C   UNL     1      38.568  -2.024  13.269  0.00  0.00    +0.000 A 
ATOM     24  C   UNL     1      39.355  -1.321  12.419  0.00  0.00    +0.000 A 
ATOM     25  C   UNL     1      40.485  -0.744  12.987  0.00  0.00    +0.000 A 
ATOM     26  C   UNL     1      40.773  -0.890  14.346  0.00  0.00    +0.000 A 
ATOM     27  C   UNL     1      39.933  -1.624  15.180  0.00  0.00    +0.000 A 
ENDBRANCH  21  22
ENDBRANCH  20  21
ENDBRANCH  19  20
ENDBRANCH  12  14
BRANCH   1  28
ATOM     28  C   UNL     1      36.226   6.250  12.001  0.00  0.00    +0.000 C 
ATOM     29  O   UNL     1      36.979   7.240  12.300  0.00  0.00    +0.000 OA
BRANCH  28  30
ATOM     30  O   UNL     1      35.673   6.174  10.749  0.00  0.00    +0.000 OA
BRANCH  30  32
ATOM     31  C   UNL     1      33.608   7.326  11.108  0.00  0.00    +0.000 C 
ATOM     32  C   UNL     1      34.880   7.289  10.324  0.00  0.00    +0.000 C 
ENDBRANCH  30  32
ENDBRANCH  28  30
ENDBRANCH   1  28
TORSDOF 7
ENDMDL
MODEL 4
REMARK VINA RESULT:      -7.2      2.945      7.416
REMARK  Name = 
REMARK  7 active torsions:
REMARK  status: ('A' for Active; 'I' for Inactive)
REMARK    1  A    between atoms: C_2  and  O_3
REMARK    2  A    between atoms: O_3  and  C_4
REMARK    3  A    between atoms: C_4  and  C_6
REMARK    4  A    between atoms: C_17  and  C_18
REMARK    5  A    between atoms: C_23  and  O_24
REMARK    6  A    between atoms: O_24  and  C_25
REMARK    7  A    between atoms: C_25  and  C_26
REMARK                            x       y       z     vdW  Elec       q    Type
REMARK                         _______ _______ _______ _____ _____    ______ ____
ROOT
ATOM      1  C   UNL     1      41.528  -2.654  12.455  0.00  0.00    +0.000 A 
ATOM      2  C   UNL     1      42.052  -1.888  13.443  0.00  0.00    +0.000 A 
ATOM      3  C   UNL     1      41.355  -1.363  14.508  0.00  0.00    +0.000 A 
ATOM      4  C   UNL     1      40.053  -1.654  14.547  0.00  0.00    +0.000 A 
ATOM      5  C   UNL     1      39.456  -2.462  13.533  0.00  0.00    +0.000 A 
ATOM      6  C   UNL     1      40.144  -2.932  12.554  0.00  0.00    +0.000 A 
ATOM      7  C   UNL     1      37.830  -2.800  13.515  0.00  0.00    +0.000 C 
ATOM      8  C   UNL     1      37.664  -1.292  13.622  0.00  0.00    +0.000 C 
ATOM      9  C   UNL     1      38.293  -1.554  14.543  0.00  0.00    +0.000 C 
ATOM     10  C   UNL     1      38.964  -2.854  15.304  0.00  0.00    +0.000 C 
ATOM     11  C   UNL     1      37.522  -2.953  15.226  0.00  0.00    +0.000 C 
ATOM     12  C   UNL     1      37.571  -1.228  15.653  0.00  0.00    +0.000 C 
ATOM     13  N   UNL     1      39.245  -1.054  15.718  0.00  0.00    +0.000 NA
ENDROOT
BRANCH  12  14
ATOM     14  C   UNL     1      37.281  -1.425  17.091  0.00  0.00    +0.000 A 
ATOM     15  C   UNL     1      38.047  -2.048  18.001  0.00  0.00    +0.000 A 
ATOM     16  C   UNL     1      37.781  -1.986  19.367  0.00  0.00    +0.000 A 
ATOM     17  C   UNL     1      36.705  -1.275  19.839  0.00  0.00    +0.000 A 
ATOM     18  C   UNL     1      35.893  -0.619  18.898  0.00  0.00    +0.000 A 
ATOM     19  C   UNL     1      36.151  -0.682  17.545  0.00  0.00    +0.000 A 
BRANCH  19  20
ATOM     20  O   UNL     1      35.324  -0.070  16.643  0.00  0.00    +0.000 OA
BRANCH  20  21
ATOM     21  C   UNL     1      34.762   1.174  16.797  0.00  0.00    +0.000 C 
BRANCH  21  22
ATOM     22  C   UNL     1      35.482   2.256  16.115  0.00  0.00    +0.000 A 
ATOM     23  C   UNL     1      36.502   2.893  16.756  0.00  0.00    +0.000 A 
ATOM     24  C   UNL     1      37.299   3.831  16.192  0.00  0.00    +0.000 A 
ATOM     25  C   UNL     1      37.023   4.135  14.864  0.00  0.00    +0.000 A 
ATOM     26  C   UNL     1      35.986   3.504  14.173  0.00  0.00    +0.000 A 
ATOM     27  C   UNL     1      35.190   2.546  14.797  0.00  0.00    +0.000 A 
ENDBRANCH  21  22
ENDBRANCH  20  21
ENDBRANCH  19  20
ENDBRANCH  12  14
BRANCH   1  28
ATOM     28  C   UNL     1      42.205  -3.137  11.268  0.00  0.00    +0.000 C 
ATOM     29  O   UNL     1      43.431  -2.828  11.073  0.00  0.00    +0.000 OA
BRANCH  28  30
ATOM     30  O   UNL     1      41.554  -3.929  10.359  0.00  0.00    +0.000 OA
BRANCH  30  32
ATOM     31  C   UNL     1      40.606  -2.302   8.885  0.00  0.00    +0.000 C 
ATOM     32  C   UNL     1      41.531  -3.470   9.002  0.00  0.00    +0.000 C 
ENDBRANCH  30  32
ENDBRANCH  28  30
ENDBRANCH   1  28
TORSDOF 7
ENDMDL
MODEL 5
REMARK VINA RESULT:      -7.1      3.271      7.902
REMARK  Name = 
REMARK  7 active torsions:
REMARK  status: ('A' for Active; 'I' for Inactive)
REMARK    1  A    between atoms: C_2  and  O_3
REMARK    2  A    between atoms: O_3  and  C_4
REMARK    3  A    between atoms: C_4  and  C_6
REMARK    4  A    between atoms: C_17  and  C_18
REMARK    5  A    between atoms: C_23  and  O_24
REMARK    6  A    between atoms: O_24  and  C_25
REMARK    7  A    between atoms: C_25  and  C_26
REMARK                            x       y       z     vdW  Elec       q    Type
REMARK                         _______ _______ _______ _____ _____    ______ ____
ROOT
ATOM      1  C   UNL     1      35.437  -1.238  16.139  0.00  0.00    +0.000 A 
ATOM      2  C   UNL     1      34.822  -0.386  16.996  0.00  0.00    +0.000 A 
ATOM      3  C   UNL     1      34.942   0.986  16.987  0.00  0.00    +0.000 A 
ATOM      4  C   UNL     1      35.735   1.492  16.041  0.00  0.00    +0.000 A 
ATOM      5  C   UNL     1      36.399   0.635  15.112  0.00  0.00    +0.000 A 
ATOM      6  C   UNL     1      36.261  -0.643  15.155  0.00  0.00    +0.000 A 
ATOM      7  C   UNL     1      37.438   1.220  13.956  0.00  0.00    +0.000 C 
ATOM      8  C   UNL     1      38.119   1.912  15.127  0.00  0.00    +0.000 C 
ATOM      9  C   UNL     1      37.043   2.302  15.180  0.00  0.00    +0.000 C 
ATOM     10  C   UNL     1      35.599   2.176  14.394  0.00  0.00    +0.000 C 
ATOM     11  C   UNL     1      36.637   2.715  13.541  0.00  0.00    +0.000 C 
ATOM     12  C   UNL     1      37.073   3.652  14.988  0.00  0.00    +0.000 C 
ATOM     13  N   UNL     1      35.906   3.026  16.029  0.00  0.00    +0.000 NA
ENDROOT
BRANCH  12  14
ATOM     14  C   UNL     1      36.394   4.897  14.566  0.00  0.00    +0.000 A 
ATOM     15  C   UNL     1      35.119   5.039  14.170  0.00  0.00    +0.000 A 
ATOM     16  C   UNL     1      34.524   6.287  14.004  0.00  0.00    +0.000 A 
ATOM     17  C   UNL     1      35.235   7.438  14.240  0.00  0.00    +0.000 A 
ATOM     18  C   UNL     1      36.572   7.306  14.653  0.00  0.00    +0.000 A 
ATOM     19  C   UNL     1      37.164   6.072  14.814  0.00  0.00    +0.000 A 
BRANCH  19  20
ATOM     20  O   UNL     1      38.480   5.966  15.176  0.00  0.00    +0.000 OA
BRANCH  20  21
ATOM     21  C   UNL     1      39.227   6.963  15.756  0.00  0.00    +0.000 C 
BRANCH  21  22
ATOM     22  C   UNL     1      39.725   6.647  17.100  0.00  0.00    +0.000 A 
ATOM     23  C   UNL     1      41.068   6.584  17.320  0.00  0.00    +0.000 A 
ATOM     24  C   UNL     1      41.642   6.402  18.533  0.00  0.00    +0.000 A 
ATOM     25  C   UNL     1      40.761   6.276  19.602  0.00  0.00    +0.000 A 
ATOM     26  C   UNL     1      39.378   6.335  19.416  0.00  0.00    +0.000 A 
ATOM     27  C   UNL     1      38.834   6.521  18.147  0.00  0.00    +0.000 A 
ENDBRANCH  21  22
ENDBRANCH  20  21
ENDBRANCH  19  20
ENDBRANCH  12  14
BRANCH   1  28
ATOM     28  C   UNL     1      35.417  -2.687  16.180  0.00  0.00    +0.000 C 
ATOM     29  O   UNL     1      34.314  -3.307  15.988  0.00  0.00    +0.000 OA
BRANCH  28  30
ATOM     30  O   UNL     1      36.563  -3.401  16.412  0.00  0.00    +0.000 OA
BRANCH  30  32
ATOM     31  C   UNL     1      38.669  -2.645  17.255  0.00  0.00    +0.000 C 
ATOM     32  C   UNL     1      37.288  -3.091  17.608  0.00  0.00    +0.000 C 
ENDBRANCH  30  32
ENDBRANCH  28  30
ENDBRANCH   1  28
TORSDOF 7
ENDMDL
MODEL 6
REMARK VINA RESULT:      -7.1      2.830      7.797
REMARK  Name = 
REMARK  7 active torsions:
REMARK  status: ('A' for Active; 'I' for Inactive)
REMARK    1  A    between atoms: C_2  and  O_3
REMARK    2  A    between atoms: O_3  and  C_4
REMARK    3  A    between atoms: C_4  and  C_6
REMARK    4  A    between atoms: C_17  and  C_18
REMARK    5  A    between atoms: C_23  and  O_24
REMARK    6  A    between atoms: O_24  and  C_25
REMARK    7  A    between atoms: C_25  and  C_26
REMARK                            x       y       z     vdW  Elec       q    Type
REMARK                         _______ _______ _______ _____ _____    ______ ____
ROOT
ATOM      1  C   UNL     1      41.634  -2.630  12.414  0.00  0.00    +0.000 A 
ATOM      2  C   UNL     1      42.141  -1.849  13.400  0.00  0.00    +0.000 A 
ATOM      3  C   UNL     1      41.436  -1.353  14.474  0.00  0.00    +0.000 A 
ATOM      4  C   UNL     1      40.146  -1.689  14.524  0.00  0.00    +0.000 A 
ATOM      5  C   UNL     1      39.568  -2.514  13.512  0.00  0.00    +0.000 A 
ATOM      6  C   UNL     1      40.262  -2.956  12.525  0.00  0.00    +0.000 A 
ATOM      7  C   UNL     1      37.954  -2.907  13.508  0.00  0.00    +0.000 C 
ATOM      8  C   UNL     1      37.737  -1.407  13.622  0.00  0.00    +0.000 C 
ATOM      9  C   UNL     1      38.383  -1.649  14.536  0.00  0.00    +0.000 C 
ATOM     10  C   UNL     1      39.106  -2.928  15.286  0.00  0.00    +0.000 C 
ATOM     11  C   UNL     1      37.667  -3.077  15.221  0.00  0.00    +0.000 C 
ATOM     12  C   UNL     1      37.661  -1.353  15.654  0.00  0.00    +0.000 C 
ATOM     13  N   UNL     1      39.329  -1.121  15.704  0.00  0.00    +0.000 NA
ENDROOT
BRANCH  12  14
ATOM     14  C   UNL     1      37.391  -1.565  17.094  0.00  0.00    +0.000 A 
ATOM     15  C   UNL     1      38.169  -2.198  17.987  0.00  0.00    +0.000 A 
ATOM     16  C   UNL     1      37.924  -2.150  19.356  0.00  0.00    +0.000 A 
ATOM     17  C   UNL     1      36.855  -1.444  19.851  0.00  0.00    +0.000 A 
ATOM     18  C   UNL     1      36.029  -0.777  18.929  0.00  0.00    +0.000 A 
ATOM     19  C   UNL     1      36.269  -0.826  17.572  0.00  0.00    +0.000 A 
BRANCH  19  20
ATOM     20  O   UNL     1      35.429  -0.204  16.689  0.00  0.00    +0.000 OA
BRANCH  20  21
ATOM     21  C   UNL     1      34.851   1.028  16.875  0.00  0.00    +0.000 C 
BRANCH  21  22
ATOM     22  C   UNL     1      35.291   2.057  15.925  0.00  0.00    +0.000 A 
ATOM     23  C   UNL     1      36.489   1.919  15.293  0.00  0.00    +0.000 A 
ATOM     24  C   UNL     1      36.951   2.748  14.326  0.00  0.00    +0.000 A 
ATOM     25  C   UNL     1      36.109   3.801  13.985  0.00  0.00    +0.000 A 
ATOM     26  C   UNL     1      34.872   3.975  14.611  0.00  0.00    +0.000 A 
ATOM     27  C   UNL     1      34.442   3.097  15.603  0.00  0.00    +0.000 A 
ENDBRANCH  21  22
ENDBRANCH  20  21
ENDBRANCH  19  20
ENDBRANCH  12  14
BRANCH   1  28
ATOM     28  C   UNL     1      42.317  -3.085  11.219  0.00  0.00    +0.000 C 
ATOM     29  O   UNL     1      41.681  -3.789  10.361  0.00  0.00    +0.000 OA
BRANCH  28  30
ATOM     30  O   UNL     1      43.629  -2.763  10.992  0.00  0.00    +0.000 OA
BRANCH  30  32
ATOM     31  C   UNL     1      45.070  -4.031  12.419  0.00  0.00    +0.000 C 
ATOM     32  C   UNL     1      44.574  -3.840  11.023  0.00  0.00    +0.000 C 
ENDBRANCH  30  32
ENDBRANCH  28  30
ENDBRANCH   1  28
TORSDOF 7
ENDMDL
MODEL 7
REMARK VINA RESULT:      -6.8      3.522      7.114
REMARK  Name = 
REMARK  7 active torsions:
REMARK  status: ('A' for Active; 'I' for Inactive)
REMARK    1  A    between atoms: C_2  and  O_3
REMARK    2  A    between atoms: O_3  and  C_4
REMARK    3  A    between atoms: C_4  and  C_6
REMARK    4  A    between atoms: C_17  and  C_18
REMARK    5  A    between atoms: C_23  and  O_24
REMARK    6  A    between atoms: O_24  and  C_25
REMARK    7  A    between atoms: C_25  and  C_26
REMARK                            x       y       z     vdW  Elec       q    Type
REMARK                         _______ _______ _______ _____ _____    ______ ____
ROOT
ATOM      1  C   UNL     1      42.111  -1.284  11.954  0.00  0.00    +0.000 A 
ATOM      2  C   UNL     1      41.498  -0.181  11.458  0.00  0.00    +0.000 A 
ATOM      3  C   UNL     1      40.298   0.333  11.891  0.00  0.00    +0.000 A 
ATOM      4  C   UNL     1      39.711  -0.329  12.890  0.00  0.00    +0.000 A 
ATOM      5  C   UNL     1      40.320  -1.492  13.450  0.00  0.00    +0.000 A 
ATOM      6  C   UNL     1      41.443  -1.941  13.014  0.00  0.00    +0.000 A 
ATOM      7  C   UNL     1      39.595  -2.377  14.654  0.00  0.00    +0.000 C 
ATOM      8  C   UNL     1      38.397  -2.399  13.717  0.00  0.00    +0.000 C 
ATOM      9  C   UNL     1      38.593  -1.281  13.867  0.00  0.00    +0.000 C 
ATOM     10  C   UNL     1      39.606  -0.259  14.674  0.00  0.00    +0.000 C 
ATOM     11  C   UNL     1      38.847  -1.098  15.577  0.00  0.00    +0.000 C 
ATOM     12  C   UNL     1      37.499  -0.738  14.474  0.00  0.00    +0.000 C 
ATOM     13  N   UNL     1      38.350   0.214  13.375  0.00  0.00    +0.000 NA
ENDROOT
BRANCH  12  14
ATOM     14  C   UNL     1      36.900   0.321  15.316  0.00  0.00    +0.000 A 
ATOM     15  C   UNL     1      37.264   1.612  15.388  0.00  0.00    +0.000 A 
ATOM     16  C   UNL     1      36.495   2.567  16.048  0.00  0.00    +0.000 A 
ATOM     17  C   UNL     1      35.318   2.216  16.662  0.00  0.00    +0.000 A 
ATOM     18  C   UNL     1      34.925   0.868  16.597  0.00  0.00    +0.000 A 
ATOM     19  C   UNL     1      35.686  -0.081  15.948  0.00  0.00    +0.000 A 
BRANCH  19  20
ATOM     20  O   UNL     1      35.306  -1.395  15.932  0.00  0.00    +0.000 OA
BRANCH  20  21
ATOM     21  C   UNL     1      35.243  -2.217  17.031  0.00  0.00    +0.000 C 
BRANCH  21  22
ATOM     22  C   UNL     1      36.506  -2.887  17.364  0.00  0.00    +0.000 A 
ATOM     23  C   UNL     1      37.270  -2.410  18.386  0.00  0.00    +0.000 A 
ATOM     24  C   UNL     1      38.397  -3.004  18.847  0.00  0.00    +0.000 A 
ATOM     25  C   UNL     1      38.763  -4.180  18.203  0.00  0.00    +0.000 A 
ATOM     26  C   UNL     1      38.005  -4.700  17.151  0.00  0.00    +0.000 A 
ATOM     27  C   UNL     1      36.854  -4.052  16.710  0.00  0.00    +0.000 A 
ENDBRANCH  21  22
ENDBRANCH  20  21
ENDBRANCH  19  20
ENDBRANCH  12  14
BRANCH   1  28
ATOM     28  C   UNL     1      43.319  -1.913  11.458  0.00  0.00    +0.000 C 
ATOM     29  O   UNL     1      43.238  -2.779  10.520  0.00  0.00    +0.000 OA
BRANCH  28  30
ATOM     30  O   UNL     1      44.546  -1.585  11.972  0.00  0.00    +0.000 OA
BRANCH  30  32
ATOM     31  C   UNL     1      45.088  -1.661  14.300  0.00  0.00    +0.000 C 
ATOM     32  C   UNL     1      45.055  -2.425  13.016  0.00  0.00    +0.000 C 
ENDBRANCH  30  32
ENDBRANCH  28  30
ENDBRANCH   1  28
TORSDOF 7
ENDMDL
MODEL 8
REMARK VINA RESULT:      -6.8     25.866     28.217
REMARK  Name = 
REMARK  7 active torsions:
REMARK  status: ('A' for Active; 'I' for Inactive)
REMARK    1  A    between atoms: C_2  and  O_3
REMARK    2  A    between atoms: O_3  and  C_4
REMARK    3  A    between atoms: C_4  and  C_6
REMARK    4  A    between atoms: C_17  and  C_18
REMARK    5  A    between atoms: C_23  and  O_24
REMARK    6  A    between atoms: O_24  and  C_25
REMARK    7  A    between atoms: C_25  and  C_26
REMARK                            x       y       z     vdW  Elec       q    Type
REMARK                         _______ _______ _______ _____ _____    ______ ____
ROOT
ATOM      1  C   UNL     1      24.469  17.615  33.085  0.00  0.00    +0.000 A 
ATOM      2  C   UNL     1      24.799  16.303  33.005  0.00  0.00    +0.000 A 
ATOM      3  C   UNL     1      25.454  15.579  33.975  0.00  0.00    +0.000 A 
ATOM      4  C   UNL     1      25.776  16.252  35.081  0.00  0.00    +0.000 A 
ATOM      5  C   UNL     1      25.444  17.634  35.216  0.00  0.00    +0.000 A 
ATOM      6  C   UNL     1      24.832  18.274  34.283  0.00  0.00    +0.000 A 
ATOM      7  C   UNL     1      25.876  18.522  36.551  0.00  0.00    +0.000 C 
ATOM      8  C   UNL     1      27.274  17.997  36.267  0.00  0.00    +0.000 C 
ATOM      9  C   UNL     1      26.655  17.041  36.391  0.00  0.00    +0.000 C 
ATOM     10  C   UNL     1      25.114  16.552  36.716  0.00  0.00    +0.000 C 
ATOM     11  C   UNL     1      25.681  17.321  37.803  0.00  0.00    +0.000 C 
ATOM     12  C   UNL     1      27.139  16.360  37.468  0.00  0.00    +0.000 C 
ATOM     13  N   UNL     1      26.535  15.468  36.173  0.00  0.00    +0.000 NA
ENDROOT
BRANCH  12  14
ATOM     14  C   UNL     1      26.929  15.389  38.564  0.00  0.00    +0.000 A 
ATOM     15  C   UNL     1      25.848  14.623  38.783  0.00  0.00    +0.000 A 
ATOM     16  C   UNL     1      25.842  13.589  39.714  0.00  0.00    +0.000 A 
ATOM     17  C   UNL     1      26.962  13.312  40.459  0.00  0.00    +0.000 A 
ATOM     18  C   UNL     1      28.102  14.106  40.244  0.00  0.00    +0.000 A 
ATOM     19  C   UNL     1      28.109  15.133  39.325  0.00  0.00    +0.000 A 
BRANCH  19  20
ATOM     20  O   UNL     1      29.216  15.920  39.160  0.00  0.00    +0.000 OA
BRANCH  20  21
ATOM     21  C   UNL     1      30.511  15.467  39.099  0.00  0.00    +0.000 C 
BRANCH  21  22
ATOM     22  C   UNL     1      30.858  14.781  37.848  0.00  0.00    +0.000 A 
ATOM     23  C   UNL     1      31.404  13.534  37.896  0.00  0.00    +0.000 A 
ATOM     24  C   UNL     1      31.669  12.767  36.811  0.00  0.00    +0.000 A 
ATOM     25  C   UNL     1      31.345  13.332  35.583  0.00  0.00    +0.000 A 
ATOM     26  C   UNL     1      30.783  14.607  35.493  0.00  0.00    +0.000 A 
ATOM     27  C   UNL     1      30.531  15.359  36.638  0.00  0.00    +0.000 A 
ENDBRANCH  21  22
ENDBRANCH  20  21
ENDBRANCH  19  20
ENDBRANCH  12  14
BRANCH   1  28
ATOM     28  C   UNL     1      23.873  18.434  32.048  0.00  0.00    +0.000 C 
ATOM     29  O   UNL     1      24.448  18.521  30.908  0.00  0.00    +0.000 OA
BRANCH  28  30
ATOM     30  O   UNL     1      22.699  19.106  32.268  0.00  0.00    +0.000 OA
BRANCH  30  32
ATOM     31  C   UNL     1      23.122  21.412  32.737  0.00  0.00    +0.000 C 
ATOM     32  C   UNL     1      22.604  20.432  31.735  0.00  0.00    +0.000 C 
ENDBRANCH  30  32
ENDBRANCH  28  30
ENDBRANCH   1  28
TORSDOF 7
ENDMDL
MODEL 9
REMARK VINA RESULT:      -6.7      2.999      7.243
REMARK  Name = 
REMARK  7 active torsions:
REMARK  status: ('A' for Active; 'I' for Inactive)
REMARK    1  A    between atoms: C_2  and  O_3
REMARK    2  A    between atoms: O_3  and  C_4
REMARK    3  A    between atoms: C_4  and  C_6
REMARK    4  A    between atoms: C_17  and  C_18
REMARK    5  A    between atoms: C_23  and  O_24
REMARK    6  A    between atoms: O_24  and  C_25
REMARK    7  A    between atoms: C_25  and  C_26
REMARK                            x       y       z     vdW  Elec       q    Type
REMARK                         _______ _______ _______ _____ _____    ______ ____
ROOT
ATOM      1  C   UNL     1      42.060  -1.324  13.037  0.00  0.00    +0.000 A 
ATOM      2  C   UNL     1      41.935  -2.288  13.982  0.00  0.00    +0.000 A 
ATOM      3  C   UNL     1      40.833  -2.489  14.783  0.00  0.00    +0.000 A 
ATOM      4  C   UNL     1      39.815  -1.649  14.587  0.00  0.00    +0.000 A 
ATOM      5  C   UNL     1      39.897  -0.622  13.599  0.00  0.00    +0.000 A 
ATOM      6  C   UNL     1      40.946  -0.468  12.872  0.00  0.00    +0.000 A 
ATOM      7  C   UNL     1      38.674   0.478  13.363  0.00  0.00    +0.000 C 
ATOM      8  C   UNL     1      38.794   0.713  14.861  0.00  0.00    +0.000 C 
ATOM      9  C   UNL     1      38.577  -0.409  14.787  0.00  0.00    +0.000 C 
ATOM     10  C   UNL     1      38.283  -1.582  13.665  0.00  0.00    +0.000 C 
ATOM     11  C   UNL     1      37.281  -0.538  13.636  0.00  0.00    +0.000 C 
ATOM     12  C   UNL     1      37.387  -0.651  15.407  0.00  0.00    +0.000 C 
ATOM     13  N   UNL     1      38.579  -1.838  15.492  0.00  0.00    +0.000 NA
ENDROOT
BRANCH  12  14
ATOM     14  C   UNL     1      36.180  -1.491  15.572  0.00  0.00    +0.000 A 
ATOM     15  C   UNL     1      35.919  -2.671  14.986  0.00  0.00    +0.000 A 
ATOM     16  C   UNL     1      34.855  -3.479  15.377  0.00  0.00    +0.000 A 
ATOM     17  C   UNL     1      34.017  -3.090  16.393  0.00  0.00    +0.000 A 
ATOM     18  C   UNL     1      34.276  -1.856  17.016  0.00  0.00    +0.000 A 
ATOM     19  C   UNL     1      35.327  -1.053  16.628  0.00  0.00    +0.000 A 
BRANCH  19  20
ATOM     20  O   UNL     1      35.536   0.163  17.219  0.00  0.00    +0.000 OA
BRANCH  20  21
ATOM     21  C   UNL     1      34.817   1.306  16.962  0.00  0.00    +0.000 C 
BRANCH  21  22
ATOM     22  C   UNL     1      35.539   2.317  16.180  0.00  0.00    +0.000 A 
ATOM     23  C   UNL     1      36.548   3.022  16.764  0.00  0.00    +0.000 A 
ATOM     24  C   UNL     1      37.348   3.903  16.116  0.00  0.00    +0.000 A 
ATOM     25  C   UNL     1      37.086   4.067  14.761  0.00  0.00    +0.000 A 
ATOM     26  C   UNL     1      36.061   3.362  14.127  0.00  0.00    +0.000 A 
ATOM     27  C   UNL     1      35.262   2.468  14.836  0.00  0.00    +0.000 A 
ENDBRANCH  21  22
ENDBRANCH  20  21
ENDBRANCH  19  20
ENDBRANCH  12  14
BRANCH   1  28
ATOM     28  C   UNL     1      43.237  -1.018  12.248  0.00  0.00    +0.000 C 
ATOM     29  O   UNL     1      43.100  -0.624  11.039  0.00  0.00    +0.000 OA
BRANCH  28  30
ATOM     30  O   UNL     1      44.493  -1.135  12.784  0.00  0.00    +0.000 OA
BRANCH  30  32
ATOM     31  C   UNL     1      46.532  -1.554  11.606  0.00  0.00    +0.000 C 
ATOM     32  C   UNL     1      45.331  -2.167  12.250  0.00  0.00    +0.000 C 
ENDBRANCH  30  32
ENDBRANCH  28  30
ENDBRANCH   1  28
TORSDOF 7
ENDMDL
MODEL 10
REMARK VINA RESULT:      -6.6      1.821      4.585
REMARK  Name = 
REMARK  7 active torsions:
REMARK  status: ('A' for Active; 'I' for Inactive)
REMARK    1  A    between atoms: C_2  and  O_3
REMARK    2  A    between atoms: O_3  and  C_4
REMARK    3  A    between atoms: C_4  and  C_6
REMARK    4  A    between atoms: C_17  and  C_18
REMARK    5  A    between atoms: C_23  and  O_24
REMARK    6  A    between atoms: O_24  and  C_25
REMARK    7  A    between atoms: C_25  and  C_26
REMARK                            x       y       z     vdW  Elec       q    Type
REMARK                         _______ _______ _______ _____ _____    ______ ____
ROOT
ATOM      1  C   UNL     1      35.296   4.651  14.086  0.00  0.00    +0.000 A 
ATOM      2  C   UNL     1      34.575   3.977  15.017  0.00  0.00    +0.000 A 
ATOM      3  C   UNL     1      34.780   2.671  15.400  0.00  0.00    +0.000 A 
ATOM      4  C   UNL     1      35.782   2.039  14.787  0.00  0.00    +0.000 A 
ATOM      5  C   UNL     1      36.573   2.707  13.804  0.00  0.00    +0.000 A 
ATOM      6  C   UNL     1      36.348   3.929  13.475  0.00  0.00    +0.000 A 
ATOM      7  C   UNL     1      37.793   1.938  12.979  0.00  0.00    +0.000 C 
ATOM      8  C   UNL     1      36.728   0.899  12.665  0.00  0.00    +0.000 C 
ATOM      9  C   UNL     1      36.740   0.926  13.810  0.00  0.00    +0.000 C 
ATOM     10  C   UNL     1      37.512   1.673  15.062  0.00  0.00    +0.000 C 
ATOM     11  C   UNL     1      38.424   0.908  14.239  0.00  0.00    +0.000 C 
ATOM     12  C   UNL     1      37.123  -0.304  14.258  0.00  0.00    +0.000 C 
ATOM     13  N   UNL     1      36.013   0.564  15.180  0.00  0.00    +0.000 NA
ENDROOT
BRANCH  12  14
ATOM     14  C   UNL     1      37.726  -1.148  15.313  0.00  0.00    +0.000 A 
ATOM     15  C   UNL     1      37.579  -1.024  16.642  0.00  0.00    +0.000 A 
ATOM     16  C   UNL     1      38.012  -2.001  17.535  0.00  0.00    +0.000 A 
ATOM     17  C   UNL     1      38.619  -3.145  17.079  0.00  0.00    +0.000 A 
ATOM     18  C   UNL     1      38.783  -3.289  15.690  0.00  0.00    +0.000 A 
ATOM     19  C   UNL     1      38.358  -2.321  14.805  0.00  0.00    +0.000 A 
BRANCH  19  20
ATOM     20  O   UNL     1      38.564  -2.462  13.459  0.00  0.00    +0.000 OA
BRANCH  20  21
ATOM     21  C   UNL     1      39.776  -2.715  12.863  0.00  0.00    +0.000 C 
BRANCH  21  22
ATOM     22  C   UNL     1      39.919  -2.157  11.514  0.00  0.00    +0.000 A 
ATOM     23  C   UNL     1      39.697  -0.828  11.309  0.00  0.00    +0.000 A 
ATOM     24  C   UNL     1      39.896  -0.186  10.134  0.00  0.00    +0.000 A 
ATOM     25  C   UNL     1      40.363  -0.975   9.089  0.00  0.00    +0.000 A 
ATOM     26  C   UNL     1      40.603  -2.341   9.260  0.00  0.00    +0.000 A 
ATOM     27  C   UNL     1      40.380  -2.958  10.488  0.00  0.00    +0.000 A 
ENDBRANCH  21  22
ENDBRANCH  20  21
ENDBRANCH  19  20
ENDBRANCH  12  14
BRANCH   1  28
ATOM     28  C   UNL     1      35.047   5.988  13.585  0.00  0.00    +0.000 C 
ATOM     29  O   UNL     1      34.863   6.166  12.332  0.00  0.00    +0.000 OA
BRANCH  28  30
ATOM     30  O   UNL     1      34.997   7.061  14.436  0.00  0.00    +0.000 OA
BRANCH  30  32
ATOM     31  C   UNL     1      33.499   8.609  15.473  0.00  0.00    +0.000 C 
ATOM     32  C   UNL     1      33.985   8.042  14.179  0.00  0.00    +0.000 C 
ENDBRANCH  30  32
ENDBRANCH  28  30
ENDBRANCH   1  28
TORSDOF 7
ENDMDL
