MODEL 1
REMARK VINA RESULT:      -8.9      0.000      0.000
REMARK  Name = 
REMARK  3 active torsions:
REMARK  status: ('A' for Active; 'I' for Inactive)
REMARK    1  A    between atoms: O_2  and  C_3
REMARK    2  A    between atoms: C_8  and  N_9
REMARK    3  A    between atoms: N_9  and  C_10
REMARK                            x       y       z     vdW  Elec       q    Type
REMARK                         _______ _______ _______ _____ _____    ______ ____
ROOT
ATOM      1  C   UNL     1      14.767  13.273  31.803  0.00  0.00    +0.000 A 
ATOM      2  C   UNL     1      13.835  14.280  31.853  0.00  0.00    +0.000 A 
ATOM      3  C   UNL     1      13.267  14.676  33.045  0.00  0.00    +0.000 A 
ATOM      4  C   UNL     1      13.674  14.020  34.188  0.00  0.00    +0.000 A 
ATOM      5  C   UNL     1      14.620  12.995  34.152  0.00  0.00    +0.000 A 
ATOM      6  C   UNL     1      15.011  12.354  35.303  0.00  0.00    +0.000 A 
ATOM      7  C   UNL     1      15.944  11.348  35.238  0.00  0.00    +0.000 A 
ATOM      8  C   UNL     1      16.469  11.005  34.012  0.00  0.00    +0.000 A 
ATOM      9  C   UNL     1      17.488   9.902  33.963  0.00  0.00    +0.000 C 
ATOM     10  N   UNL     1      16.098  11.621  32.878  0.00  0.00    +0.000 NA
ATOM     11  C   UNL     1      15.183  12.603  32.960  0.00  0.00    +0.000 A 
ENDROOT
BRANCH   1  13
ATOM     12  C   UNL     1      16.321  13.716  30.026  0.00  0.00    +0.000 C 
ATOM     13  O   UNL     1      15.303  12.917  30.585  0.00  0.00    +0.000 OA
ENDBRANCH   1  13
BRANCH   6  14
ATOM     14  N   UNL     1      14.452  12.731  36.541  0.00  0.00    +0.000 NA
BRANCH  14  15
ATOM     15  C   UNL     1      13.456  11.969  37.196  0.00  0.00    +0.000 A 
ATOM     16  C   UNL     1      12.149  12.123  36.789  0.00  0.00    +0.000 A 
ATOM     17  C   UNL     1      11.190  11.379  37.431  0.00  0.00    +0.000 A 
ATOM     18  C   UNL     1      11.532  10.520  38.437  0.00  0.00    +0.000 A 
ATOM     19  C   UNL     1      12.833  10.385  38.823  0.00  0.00    +0.000 A 
ATOM     20  C   UNL     1      13.830  11.113  38.204  0.00  0.00    +0.000 A 
ATOM     21  O   UNL     1      15.153  10.964  38.609  0.00  0.00    +0.000 OA
ENDBRANCH  14  15
ENDBRANCH   6  14
TORSDOF 3
ENDMDL
MODEL 2
REMARK VINA RESULT:      -6.7     18.326     20.388
REMARK  Name = 
REMARK  3 active torsions:
REMARK  status: ('A' for Active; 'I' for Inactive)
REMARK    1  A    between atoms: O_2  and  C_3
REMARK    2  A    between atoms: C_8  and  N_9
REMARK    3  A    between atoms: N_9  and  C_10
REMARK                            x       y       z     vdW  Elec       q    Type
REMARK                         _______ _______ _______ _____ _____    ______ ____
ROOT
ATOM      1  C   UNL     1      28.479  24.051  21.967  0.00  0.00    +0.000 A 
ATOM      2  C   UNL     1      27.147  23.994  21.636  0.00  0.00    +0.000 A 
ATOM      3  C   UNL     1      26.200  23.558  22.537  0.00  0.00    +0.000 A 
ATOM      4  C   UNL     1      26.642  23.183  23.788  0.00  0.00    +0.000 A 
ATOM      5  C   UNL     1      27.992  23.235  24.139  0.00  0.00    +0.000 A 
ATOM      6  C   UNL     1      28.412  22.856  25.391  0.00  0.00    +0.000 A 
ATOM      7  C   UNL     1      29.748  22.918  25.708  0.00  0.00    +0.000 A 
ATOM      8  C   UNL     1      30.638  23.363  24.757  0.00  0.00    +0.000 A 
ATOM      9  C   UNL     1      32.094  23.424  25.125  0.00  0.00    +0.000 C 
ATOM     10  N   UNL     1      30.245  23.737  23.529  0.00  0.00    +0.000 NA
ATOM     11  C   UNL     1      28.934  23.670  23.236  0.00  0.00    +0.000 A 
ENDROOT
BRANCH   1  13
ATOM     12  C   UNL     1      29.360  25.849  20.640  0.00  0.00    +0.000 C 
ATOM     13  O   UNL     1      29.384  24.493  21.028  0.00  0.00    +0.000 OA
ENDBRANCH   1  13
BRANCH   6  14
ATOM     14  N   UNL     1      27.472  22.406  26.340  0.00  0.00    +0.000 NA
BRANCH  14  15
ATOM     15  C   UNL     1      26.918  23.251  27.331  0.00  0.00    +0.000 A 
ATOM     16  C   UNL     1      25.875  24.075  26.971  0.00  0.00    +0.000 A 
ATOM     17  C   UNL     1      25.345  24.891  27.939  0.00  0.00    +0.000 A 
ATOM     18  C   UNL     1      25.843  24.878  29.211  0.00  0.00    +0.000 A 
ATOM     19  C   UNL     1      26.877  24.053  29.544  0.00  0.00    +0.000 A 
ATOM     20  C   UNL     1      27.440  23.216  28.602  0.00  0.00    +0.000 A 
ATOM     21  O   UNL     1      28.494  22.379  28.957  0.00  0.00    +0.000 OA
ENDBRANCH  14  15
ENDBRANCH   6  14
TORSDOF 3
ENDMDL
MODEL 3
REMARK VINA RESULT:      -6.5     17.641     20.031
REMARK  Name = 
REMARK  3 active torsions:
REMARK  status: ('A' for Active; 'I' for Inactive)
REMARK    1  A    between atoms: O_2  and  C_3
REMARK    2  A    between atoms: C_8  and  N_9
REMARK    3  A    between atoms: N_9  and  C_10
REMARK                            x       y       z     vdW  Elec       q    Type
REMARK                         _______ _______ _______ _____ _____    ______ ____
ROOT
ATOM      1  C   UNL     1      26.087  24.072  30.070  0.00  0.00    +0.000 A 
ATOM      2  C   UNL     1      27.008  23.156  30.516  0.00  0.00    +0.000 A 
ATOM      3  C   UNL     1      27.709  22.356  29.641  0.00  0.00    +0.000 A 
ATOM      4  C   UNL     1      27.452  22.513  28.295  0.00  0.00    +0.000 A 
ATOM      5  C   UNL     1      26.519  23.440  27.827  0.00  0.00    +0.000 A 
ATOM      6  C   UNL     1      26.277  23.581  26.482  0.00  0.00    +0.000 A 
ATOM      7  C   UNL     1      25.353  24.502  26.050  0.00  0.00    +0.000 A 
ATOM      8  C   UNL     1      24.689  25.267  26.982  0.00  0.00    +0.000 A 
ATOM      9  C   UNL     1      23.683  26.268  26.488  0.00  0.00    +0.000 C 
ATOM     10  N   UNL     1      24.913  25.142  28.300  0.00  0.00    +0.000 NA
ATOM     11  C   UNL     1      25.820  24.236  28.705  0.00  0.00    +0.000 A 
ENDROOT
BRANCH   1  13
ATOM     12  C   UNL     1      26.154  25.640  31.888  0.00  0.00    +0.000 C 
ATOM     13  O   UNL     1      25.413  24.846  30.989  0.00  0.00    +0.000 OA
ENDBRANCH   1  13
BRANCH   6  14
ATOM     14  N   UNL     1      26.975  22.781  25.555  0.00  0.00    +0.000 NA
BRANCH  14  15
ATOM     15  C   UNL     1      27.870  23.319  24.599  0.00  0.00    +0.000 A 
ATOM     16  C   UNL     1      29.117  23.715  25.029  0.00  0.00    +0.000 A 
ATOM     17  C   UNL     1      29.977  24.235  24.094  0.00  0.00    +0.000 A 
ATOM     18  C   UNL     1      29.598  24.352  22.786  0.00  0.00    +0.000 A 
ATOM     19  C   UNL     1      28.357  23.953  22.384  0.00  0.00    +0.000 A 
ATOM     20  C   UNL     1      27.460  23.423  23.292  0.00  0.00    +0.000 A 
ATOM     21  O   UNL     1      26.198  23.020  22.866  0.00  0.00    +0.000 OA
ENDBRANCH  14  15
ENDBRANCH   6  14
TORSDOF 3
ENDMDL
MODEL 4
REMARK VINA RESULT:      -6.1     17.039     21.147
REMARK  Name = 
REMARK  3 active torsions:
REMARK  status: ('A' for Active; 'I' for Inactive)
REMARK    1  A    between atoms: O_2  and  C_3
REMARK    2  A    between atoms: C_8  and  N_9
REMARK    3  A    between atoms: N_9  and  C_10
REMARK                            x       y       z     vdW  Elec       q    Type
REMARK                         _______ _______ _______ _____ _____    ______ ____
ROOT
ATOM      1  C   UNL     1      27.023  23.349  28.333  0.00  0.00    +0.000 A 
ATOM      2  C   UNL     1      25.866  23.735  27.702  0.00  0.00    +0.000 A 
ATOM      3  C   UNL     1      25.788  23.813  26.329  0.00  0.00    +0.000 A 
ATOM      4  C   UNL     1      26.919  23.487  25.610  0.00  0.00    +0.000 A 
ATOM      5  C   UNL     1      28.102  23.093  26.238  0.00  0.00    +0.000 A 
ATOM      6  C   UNL     1      29.218  22.773  25.504  0.00  0.00    +0.000 A 
ATOM      7  C   UNL     1      30.369  22.389  26.149  0.00  0.00    +0.000 A 
ATOM      8  C   UNL     1      30.375  22.334  27.525  0.00  0.00    +0.000 A 
ATOM      9  C   UNL     1      31.643  21.911  28.210  0.00  0.00    +0.000 C 
ATOM     10  N   UNL     1      29.293  22.643  28.257  0.00  0.00    +0.000 NA
ATOM     11  C   UNL     1      28.176  23.018  27.610  0.00  0.00    +0.000 A 
ENDROOT
BRANCH   1  13
ATOM     12  C   UNL     1      26.427  22.199  30.356  0.00  0.00    +0.000 C 
ATOM     13  O   UNL     1      27.047  23.288  29.709  0.00  0.00    +0.000 OA
ENDBRANCH   1  13
BRANCH   6  14
ATOM     14  N   UNL     1      29.176  22.841  24.097  0.00  0.00    +0.000 NA
BRANCH  14  15
ATOM     15  C   UNL     1      29.163  24.067  23.389  0.00  0.00    +0.000 A 
ATOM     16  C   UNL     1      29.961  25.091  23.849  0.00  0.00    +0.000 A 
ATOM     17  C   UNL     1      29.940  26.275  23.156  0.00  0.00    +0.000 A 
ATOM     18  C   UNL     1      29.151  26.422  22.050  0.00  0.00    +0.000 A 
ATOM     19  C   UNL     1      28.368  25.394  21.613  0.00  0.00    +0.000 A 
ATOM     20  C   UNL     1      28.359  24.184  22.281  0.00  0.00    +0.000 A 
ATOM     21  O   UNL     1      27.556  23.144  21.822  0.00  0.00    +0.000 OA
ENDBRANCH  14  15
ENDBRANCH   6  14
TORSDOF 3
ENDMDL
MODEL 5
REMARK VINA RESULT:      -6.0     20.478     23.089
REMARK  Name = 
REMARK  3 active torsions:
REMARK  status: ('A' for Active; 'I' for Inactive)
REMARK    1  A    between atoms: O_2  and  C_3
REMARK    2  A    between atoms: C_8  and  N_9
REMARK    3  A    between atoms: N_9  and  C_10
REMARK                            x       y       z     vdW  Elec       q    Type
REMARK                         _______ _______ _______ _____ _____    ______ ____
ROOT
ATOM      1  C   UNL     1      22.359  -7.582  24.477  0.00  0.00    +0.000 A 
ATOM      2  C   UNL     1      22.969  -8.800  24.297  0.00  0.00    +0.000 A 
ATOM      3  C   UNL     1      22.459  -9.949  24.860  0.00  0.00    +0.000 A 
ATOM      4  C   UNL     1      21.309  -9.830  25.612  0.00  0.00    +0.000 A 
ATOM      5  C   UNL     1      20.678  -8.600  25.803  0.00  0.00    +0.000 A 
ATOM      6  C   UNL     1      19.533  -8.502  26.555  0.00  0.00    +0.000 A 
ATOM      7  C   UNL     1      18.934  -7.277  26.727  0.00  0.00    +0.000 A 
ATOM      8  C   UNL     1      19.499  -6.171  26.134  0.00  0.00    +0.000 A 
ATOM      9  C   UNL     1      18.827  -4.841  26.334  0.00  0.00    +0.000 C 
ATOM     10  N   UNL     1      20.617  -6.248  25.396  0.00  0.00    +0.000 NA
ATOM     11  C   UNL     1      21.191  -7.454  25.239  0.00  0.00    +0.000 A 
ENDROOT
BRANCH   1  13
ATOM     12  C   UNL     1      24.272  -6.174  24.119  0.00  0.00    +0.000 C 
ATOM     13  O   UNL     1      22.911  -6.464  23.891  0.00  0.00    +0.000 OA
ENDBRANCH   1  13
BRANCH   6  14
ATOM     14  N   UNL     1      18.982  -9.656  27.147  0.00  0.00    +0.000 NA
BRANCH  14  15
ATOM     15  C   UNL     1      18.778  -9.779  28.543  0.00  0.00    +0.000 A 
ATOM     16  C   UNL     1      19.869  -9.641  29.372  0.00  0.00    +0.000 A 
ATOM     17  C   UNL     1      19.661  -9.763  30.723  0.00  0.00    +0.000 A 
ATOM     18  C   UNL     1      18.411 -10.012  31.217  0.00  0.00    +0.000 A 
ATOM     19  C   UNL     1      17.346 -10.145  30.376  0.00  0.00    +0.000 A 
ATOM     20  C   UNL     1      17.510 -10.030  29.009  0.00  0.00    +0.000 A 
ATOM     21  O   UNL     1      16.413 -10.167  28.164  0.00  0.00    +0.000 OA
ENDBRANCH  14  15
ENDBRANCH   6  14
TORSDOF 3
ENDMDL
MODEL 6
REMARK VINA RESULT:      -5.9     17.695     19.837
REMARK  Name = 
REMARK  3 active torsions:
REMARK  status: ('A' for Active; 'I' for Inactive)
REMARK    1  A    between atoms: O_2  and  C_3
REMARK    2  A    between atoms: C_8  and  N_9
REMARK    3  A    between atoms: N_9  and  C_10
REMARK                            x       y       z     vdW  Elec       q    Type
REMARK                         _______ _______ _______ _____ _____    ______ ____
ROOT
ATOM      1  C   UNL     1      24.249  26.308  27.288  0.00  0.00    +0.000 A 
ATOM      2  C   UNL     1      23.972  26.592  25.973  0.00  0.00    +0.000 A 
ATOM      3  C   UNL     1      24.501  25.838  24.949  0.00  0.00    +0.000 A 
ATOM      4  C   UNL     1      25.319  24.783  25.296  0.00  0.00    +0.000 A 
ATOM      5  C   UNL     1      25.609  24.483  26.628  0.00  0.00    +0.000 A 
ATOM      6  C   UNL     1      26.428  23.429  26.953  0.00  0.00    +0.000 A 
ATOM      7  C   UNL     1      26.696  23.157  28.272  0.00  0.00    +0.000 A 
ATOM      8  C   UNL     1      26.133  23.954  29.244  0.00  0.00    +0.000 A 
ATOM      9  C   UNL     1      26.438  23.639  30.681  0.00  0.00    +0.000 C 
ATOM     10  N   UNL     1      25.331  24.988  28.944  0.00  0.00    +0.000 NA
ATOM     11  C   UNL     1      25.080  25.240  27.647  0.00  0.00    +0.000 A 
ENDROOT
BRANCH   1  13
ATOM     12  C   UNL     1      22.503  27.798  27.998  0.00  0.00    +0.000 C 
ATOM     13  O   UNL     1      23.694  27.095  28.274  0.00  0.00    +0.000 OA
ENDBRANCH   1  13
BRANCH   6  14
ATOM     14  N   UNL     1      26.987  22.634  25.931  0.00  0.00    +0.000 NA
BRANCH  14  15
ATOM     15  C   UNL     1      28.352  22.709  25.563  0.00  0.00    +0.000 A 
ATOM     16  C   UNL     1      29.300  22.504  26.541  0.00  0.00    +0.000 A 
ATOM     17  C   UNL     1      30.620  22.579  26.173  0.00  0.00    +0.000 A 
ATOM     18  C   UNL     1      30.970  22.849  24.879  0.00  0.00    +0.000 A 
ATOM     19  C   UNL     1      30.012  23.048  23.928  0.00  0.00    +0.000 A 
ATOM     20  C   UNL     1      28.672  22.981  24.254  0.00  0.00    +0.000 A 
ATOM     21  O   UNL     1      27.707  23.186  23.273  0.00  0.00    +0.000 OA
ENDBRANCH  14  15
ENDBRANCH   6  14
TORSDOF 3
ENDMDL
MODEL 7
REMARK VINA RESULT:      -5.8     17.854     19.797
REMARK  Name = 
REMARK  3 active torsions:
REMARK  status: ('A' for Active; 'I' for Inactive)
REMARK    1  A    between atoms: O_2  and  C_3
REMARK    2  A    between atoms: C_8  and  N_9
REMARK    3  A    between atoms: N_9  and  C_10
REMARK                            x       y       z     vdW  Elec       q    Type
REMARK                         _______ _______ _______ _____ _____    ______ ____
ROOT
ATOM      1  C   UNL     1      25.316  25.189  29.474  0.00  0.00    +0.000 A 
ATOM      2  C   UNL     1      24.501  25.636  28.463  0.00  0.00    +0.000 A 
ATOM      3  C   UNL     1      24.641  25.180  27.171  0.00  0.00    +0.000 A 
ATOM      4  C   UNL     1      25.633  24.252  26.931  0.00  0.00    +0.000 A 
ATOM      5  C   UNL     1      26.468  23.788  27.948  0.00  0.00    +0.000 A 
ATOM      6  C   UNL     1      27.451  22.864  27.689  0.00  0.00    +0.000 A 
ATOM      7  C   UNL     1      28.260  22.425  28.709  0.00  0.00    +0.000 A 
ATOM      8  C   UNL     1      28.062  22.926  29.977  0.00  0.00    +0.000 A 
ATOM      9  C   UNL     1      28.957  22.432  31.079  0.00  0.00    +0.000 C 
ATOM     10  N   UNL     1      27.107  23.829  30.248  0.00  0.00    +0.000 NA
ATOM     11  C   UNL     1      26.326  24.248  29.237  0.00  0.00    +0.000 A 
ENDROOT
BRANCH   1  13
ATOM     12  C   UNL     1      23.982  26.444  31.028  0.00  0.00    +0.000 C 
ATOM     13  O   UNL     1      25.133  25.679  30.748  0.00  0.00    +0.000 OA
ENDBRANCH   1  13
BRANCH   6  14
ATOM     14  N   UNL     1      27.625  22.373  26.379  0.00  0.00    +0.000 NA
BRANCH  14  15
ATOM     15  C   UNL     1      28.709  22.758  25.553  0.00  0.00    +0.000 A 
ATOM     16  C   UNL     1      29.985  22.478  25.988  0.00  0.00    +0.000 A 
ATOM     17  C   UNL     1      31.030  22.856  25.181  0.00  0.00    +0.000 A 
ATOM     18  C   UNL     1      30.798  23.485  23.990  0.00  0.00    +0.000 A 
ATOM     19  C   UNL     1      29.524  23.751  23.581  0.00  0.00    +0.000 A 
ATOM     20  C   UNL     1      28.445  23.389  24.362  0.00  0.00    +0.000 A 
ATOM     21  O   UNL     1      27.151  23.667  23.930  0.00  0.00    +0.000 OA
ENDBRANCH  14  15
ENDBRANCH   6  14
TORSDOF 3
ENDMDL
MODEL 8
REMARK VINA RESULT:      -5.8     18.138     21.020
REMARK  Name = 
REMARK  3 active torsions:
REMARK  status: ('A' for Active; 'I' for Inactive)
REMARK    1  A    between atoms: O_2  and  C_3
REMARK    2  A    between atoms: C_8  and  N_9
REMARK    3  A    between atoms: N_9  and  C_10
REMARK                            x       y       z     vdW  Elec       q    Type
REMARK                         _______ _______ _______ _____ _____    ______ ____
ROOT
ATOM      1  C   UNL     1      30.132  22.762  29.661  0.00  0.00    +0.000 A 
ATOM      2  C   UNL     1      31.332  22.233  29.254  0.00  0.00    +0.000 A 
ATOM      3  C   UNL     1      31.569  21.921  27.934  0.00  0.00    +0.000 A 
ATOM      4  C   UNL     1      30.553  22.162  27.033  0.00  0.00    +0.000 A 
ATOM      5  C   UNL     1      29.328  22.700  27.432  0.00  0.00    +0.000 A 
ATOM      6  C   UNL     1      28.328  22.933  26.520  0.00  0.00    +0.000 A 
ATOM      7  C   UNL     1      27.132  23.462  26.941  0.00  0.00    +0.000 A 
ATOM      8  C   UNL     1      26.965  23.749  28.277  0.00  0.00    +0.000 A 
ATOM      9  C   UNL     1      25.650  24.328  28.717  0.00  0.00    +0.000 C 
ATOM     10  N   UNL     1      27.931  23.528  29.182  0.00  0.00    +0.000 NA
ATOM     11  C   UNL     1      29.095  23.009  28.752  0.00  0.00    +0.000 A 
ENDROOT
BRANCH   1  13
ATOM     12  C   UNL     1      30.221  22.062  31.958  0.00  0.00    +0.000 C 
ATOM     13  O   UNL     1      29.947  23.055  30.995  0.00  0.00    +0.000 OA
ENDBRANCH   1  13
BRANCH   6  14
ATOM     14  N   UNL     1      28.534  22.626  25.159  0.00  0.00    +0.000 NA
BRANCH  14  15
ATOM     15  C   UNL     1      28.604  23.619  24.152  0.00  0.00    +0.000 A 
ATOM     16  C   UNL     1      29.721  24.423  24.111  0.00  0.00    +0.000 A 
ATOM     17  C   UNL     1      29.779  25.383  23.131  0.00  0.00    +0.000 A 
ATOM     18  C   UNL     1      28.758  25.526  22.234  0.00  0.00    +0.000 A 
ATOM     19  C   UNL     1      27.661  24.717  22.295  0.00  0.00    +0.000 A 
ATOM     20  C   UNL     1      27.562  23.738  23.264  0.00  0.00    +0.000 A 
ATOM     21  O   UNL     1      26.437  22.921  23.313  0.00  0.00    +0.000 OA
ENDBRANCH  14  15
ENDBRANCH   6  14
TORSDOF 3
ENDMDL
MODEL 9
REMARK VINA RESULT:      -5.8     18.397     20.083
REMARK  Name = 
REMARK  3 active torsions:
REMARK  status: ('A' for Active; 'I' for Inactive)
REMARK    1  A    between atoms: O_2  and  C_3
REMARK    2  A    between atoms: C_8  and  N_9
REMARK    3  A    between atoms: N_9  and  C_10
REMARK                            x       y       z     vdW  Elec       q    Type
REMARK                         _______ _______ _______ _____ _____    ______ ____
ROOT
ATOM      1  C   UNL     1      30.627  22.691  29.332  0.00  0.00    +0.000 A 
ATOM      2  C   UNL     1      29.765  22.579  30.394  0.00  0.00    +0.000 A 
ATOM      3  C   UNL     1      28.403  22.481  30.208  0.00  0.00    +0.000 A 
ATOM      4  C   UNL     1      27.938  22.499  28.910  0.00  0.00    +0.000 A 
ATOM      5  C   UNL     1      28.803  22.613  27.820  0.00  0.00    +0.000 A 
ATOM      6  C   UNL     1      28.320  22.629  26.534  0.00  0.00    +0.000 A 
ATOM      7  C   UNL     1      29.194  22.743  25.480  0.00  0.00    +0.000 A 
ATOM      8  C   UNL     1      30.542  22.836  25.741  0.00  0.00    +0.000 A 
ATOM      9  C   UNL     1      31.481  22.959  24.574  0.00  0.00    +0.000 C 
ATOM     10  N   UNL     1      31.031  22.822  26.991  0.00  0.00    +0.000 NA
ATOM     11  C   UNL     1      30.161  22.711  28.011  0.00  0.00    +0.000 A 
ENDROOT
BRANCH   1  13
ATOM     12  C   UNL     1      32.707  21.612  29.860  0.00  0.00    +0.000 C 
ATOM     13  O   UNL     1      31.980  22.786  29.574  0.00  0.00    +0.000 OA
ENDBRANCH   1  13
BRANCH   6  14
ATOM     14  N   UNL     1      26.932  22.531  26.304  0.00  0.00    +0.000 NA
BRANCH  14  15
ATOM     15  C   UNL     1      26.098  23.665  26.156  0.00  0.00    +0.000 A 
ATOM     16  C   UNL     1      25.578  24.241  27.294  0.00  0.00    +0.000 A 
ATOM     17  C   UNL     1      24.770  25.340  27.139  0.00  0.00    +0.000 A 
ATOM     18  C   UNL     1      24.498  25.836  25.894  0.00  0.00    +0.000 A 
ATOM     19  C   UNL     1      25.025  25.248  24.782  0.00  0.00    +0.000 A 
ATOM     20  C   UNL     1      25.843  24.141  24.892  0.00  0.00    +0.000 A 
ATOM     21  O   UNL     1      26.373  23.552  23.748  0.00  0.00    +0.000 OA
ENDBRANCH  14  15
ENDBRANCH   6  14
TORSDOF 3
ENDMDL
MODEL 10
REMARK VINA RESULT:      -5.8      4.918      7.589
REMARK  Name = 
REMARK  3 active torsions:
REMARK  status: ('A' for Active; 'I' for Inactive)
REMARK    1  A    between atoms: O_2  and  C_3
REMARK    2  A    between atoms: C_8  and  N_9
REMARK    3  A    between atoms: N_9  and  C_10
REMARK                            x       y       z     vdW  Elec       q    Type
REMARK                         _______ _______ _______ _____ _____    ______ ____
ROOT
ATOM      1  C   UNL     1      20.314   9.561  40.429  0.00  0.00    +0.000 A 
ATOM      2  C   UNL     1      19.851   8.271  40.508  0.00  0.00    +0.000 A 
ATOM      3  C   UNL     1      18.864   7.808  39.666  0.00  0.00    +0.000 A 
ATOM      4  C   UNL     1      18.359   8.693  38.736  0.00  0.00    +0.000 A 
ATOM      5  C   UNL     1      18.820  10.007  38.644  0.00  0.00    +0.000 A 
ATOM      6  C   UNL     1      18.303  10.873  37.711  0.00  0.00    +0.000 A 
ATOM      7  C   UNL     1      18.775  12.161  37.643  0.00  0.00    +0.000 A 
ATOM      8  C   UNL     1      19.763  12.555  38.518  0.00  0.00    +0.000 A 
ATOM      9  C   UNL     1      20.266  13.968  38.426  0.00  0.00    +0.000 C 
ATOM     10  N   UNL     1      20.279  11.722  39.435  0.00  0.00    +0.000 NA
ATOM     11  C   UNL     1      19.805  10.465  39.488  0.00  0.00    +0.000 A 
ENDROOT
BRANCH   1  13
ATOM     12  C   UNL     1      21.094   9.837  42.684  0.00  0.00    +0.000 C 
ATOM     13  O   UNL     1      21.302   9.973  41.296  0.00  0.00    +0.000 OA
ENDBRANCH   1  13
BRANCH   6  14
ATOM     14  N   UNL     1      17.292  10.435  36.832  0.00  0.00    +0.000 NA
BRANCH  14  15
ATOM     15  C   UNL     1      16.072  11.133  36.658  0.00  0.00    +0.000 A 
ATOM     16  C   UNL     1      15.181  11.153  37.707  0.00  0.00    +0.000 A 
ATOM     17  C   UNL     1      14.001  11.832  37.528  0.00  0.00    +0.000 A 
ATOM     18  C   UNL     1      13.732  12.463  36.346  0.00  0.00    +0.000 A 
ATOM     19  C   UNL     1      14.632  12.429  35.320  0.00  0.00    +0.000 A 
ATOM     20  C   UNL     1      15.831  11.758  35.458  0.00  0.00    +0.000 A 
ATOM     21  O   UNL     1      16.738  11.733  34.403  0.00  0.00    +0.000 OA
ENDBRANCH  14  15
ENDBRANCH   6  14
TORSDOF 3
ENDMDL
