MODEL 1
REMARK VINA RESULT:      -7.2      0.000      0.000
REMARK  Name = 
REMARK  2 active torsions:
REMARK  status: ('A' for Active; 'I' for Inactive)
REMARK    1  A    between atoms: C_2  and  C_3
REMARK    2  A    between atoms: C_13  and  O_14
REMARK                            x       y       z     vdW  Elec       q    Type
REMARK                         _______ _______ _______ _____ _____    ______ ____
ROOT
ATOM      1  C   UNL     1      26.963  23.909  30.300  0.00  0.00    +0.000 C 
ATOM      2  O   UNL     1      27.655  24.235  31.428  0.00  0.00    +0.000 OA
ATOM      3  C   UNL     1      25.680  24.713  30.118  0.00  0.00    +0.000 C 
ATOM      4  C   UNL     1      25.397  24.690  28.607  0.00  0.00    +0.000 C 
ATOM      5  C   UNL     1      26.388  23.495  28.155  0.00  0.00    +0.000 C 
ATOM      6  C   UNL     1      26.901  24.241  26.745  0.00  0.00    +0.000 C 
ATOM      7  C   UNL     1      25.733  23.637  25.841  0.00  0.00    +0.000 C 
ATOM      8  C   UNL     1      26.029  24.443  24.562  0.00  0.00    +0.000 C 
ATOM      9  C   UNL     1      27.409  24.035  24.190  0.00  0.00    +0.000 A 
ATOM     10  C   UNL     1      27.779  24.398  22.879  0.00  0.00    +0.000 A 
ATOM     11  C   UNL     1      29.012  24.097  22.385  0.00  0.00    +0.000 A 
ATOM     12  C   UNL     1      29.899  23.425  23.195  0.00  0.00    +0.000 A 
ATOM     13  C   UNL     1      29.522  23.065  24.510  0.00  0.00    +0.000 A 
ATOM     14  C   UNL     1      28.281  23.377  24.985  0.00  0.00    +0.000 A 
ATOM     15  C   UNL     1      27.966  22.938  26.435  0.00  0.00    +0.000 C 
ATOM     16  C   UNL     1      29.188  23.704  27.180  0.00  0.00    +0.000 C 
ATOM     17  C   UNL     1      28.821  23.435  28.650  0.00  0.00    +0.000 C 
ATOM     18  C   UNL     1      27.621  24.155  29.015  0.00  0.00    +0.000 C 
ATOM     19  C   UNL     1      27.605  25.630  28.720  0.00  0.00    +0.000 C 
ENDROOT
BRANCH   1  21
ATOM     20  C   UNL     1      26.165  21.359  30.551  0.00  0.00    +0.000 C 
ATOM     21  C   UNL     1      26.515  22.511  30.431  0.00  0.00    +0.000 C 
ENDBRANCH   1  21
BRANCH  11  22
ATOM     22  O   UNL     1      29.405  24.448  21.080  0.00  0.00    +0.000 OA
ATOM     23  C   UNL     1      29.408  25.817  20.707  0.00  0.00    +0.000 C 
ENDBRANCH  11  22
TORSDOF 2
ENDMDL
MODEL 2
REMARK VINA RESULT:      -6.8     12.436     18.114
REMARK  Name = 
REMARK  2 active torsions:
REMARK  status: ('A' for Active; 'I' for Inactive)
REMARK    1  A    between atoms: C_2  and  C_3
REMARK    2  A    between atoms: C_13  and  O_14
REMARK                            x       y       z     vdW  Elec       q    Type
REMARK                         _______ _______ _______ _____ _____    ______ ____
ROOT
ATOM      1  C   UNL     1      33.903  20.849   7.383  0.00  0.00    +0.000 C 
ATOM      2  O   UNL     1      34.299  21.437   6.220  0.00  0.00    +0.000 OA
ATOM      3  C   UNL     1      35.058  20.519   8.323  0.00  0.00    +0.000 C 
ATOM      4  C   UNL     1      34.437  20.475   9.729  0.00  0.00    +0.000 C 
ATOM      5  C   UNL     1      32.869  20.399   9.341  0.00  0.00    +0.000 C 
ATOM      6  C   UNL     1      32.357  21.443  10.547  0.00  0.00    +0.000 C 
ATOM      7  C   UNL     1      32.160  20.298  11.641  0.00  0.00    +0.000 C 
ATOM      8  C   UNL     1      31.876  21.216  12.845  0.00  0.00    +0.000 C 
ATOM      9  C   UNL     1      30.646  21.953  12.455  0.00  0.00    +0.000 A 
ATOM     10  C   UNL     1      30.013  22.617  13.524  0.00  0.00    +0.000 A 
ATOM     11  C   UNL     1      28.874  23.340  13.331  0.00  0.00    +0.000 A 
ATOM     12  C   UNL     1      28.346  23.408  12.063  0.00  0.00    +0.000 A 
ATOM     13  C   UNL     1      28.987  22.740  10.994  0.00  0.00    +0.000 A 
ATOM     14  C   UNL     1      30.127  22.022  11.209  0.00  0.00    +0.000 A 
ATOM     15  C   UNL     1      30.750  21.327   9.974  0.00  0.00    +0.000 C 
ATOM     16  C   UNL     1      30.943  22.641   9.041  0.00  0.00    +0.000 C 
ATOM     17  C   UNL     1      31.715  22.026   7.861  0.00  0.00    +0.000 C 
ATOM     18  C   UNL     1      33.045  21.634   8.274  0.00  0.00    +0.000 C 
ATOM     19  C   UNL     1      33.872  22.683   8.967  0.00  0.00    +0.000 C 
ENDROOT
BRANCH   1  21
ATOM     20  C   UNL     1      32.804  18.482   6.760  0.00  0.00    +0.000 C 
ATOM     21  C   UNL     1      33.304  19.544   7.051  0.00  0.00    +0.000 C 
ENDBRANCH   1  21
BRANCH  11  22
ATOM     22  O   UNL     1      28.224  24.012  14.383  0.00  0.00    +0.000 OA
ATOM     23  C   UNL     1      28.710  25.281  14.794  0.00  0.00    +0.000 C 
ENDBRANCH  11  22
TORSDOF 2
ENDMDL
MODEL 3
REMARK VINA RESULT:      -6.8     20.956     22.638
REMARK  Name = 
REMARK  2 active torsions:
REMARK  status: ('A' for Active; 'I' for Inactive)
REMARK    1  A    between atoms: C_2  and  C_3
REMARK    2  A    between atoms: C_13  and  O_14
REMARK                            x       y       z     vdW  Elec       q    Type
REMARK                         _______ _______ _______ _____ _____    ______ ____
ROOT
ATOM      1  C   UNL     1      28.397   6.360  16.909  0.00  0.00    +0.000 C 
ATOM      2  O   UNL     1      28.975   7.320  16.133  0.00  0.00    +0.000 OA
ATOM      3  C   UNL     1      28.161   6.801  18.349  0.00  0.00    +0.000 C 
ATOM      4  C   UNL     1      27.010   5.921  18.860  0.00  0.00    +0.000 C 
ATOM      5  C   UNL     1      27.003   4.777  17.717  0.00  0.00    +0.000 C 
ATOM      6  C   UNL     1      25.334   4.666  17.615  0.00  0.00    +0.000 C 
ATOM      7  C   UNL     1      25.204   3.554  18.752  0.00  0.00    +0.000 C 
ATOM      8  C   UNL     1      23.666   3.545  18.851  0.00  0.00    +0.000 C 
ATOM      9  C   UNL     1      23.220   3.134  17.494  0.00  0.00    +0.000 A 
ATOM     10  C   UNL     1      21.867   2.747  17.430  0.00  0.00    +0.000 A 
ATOM     11  C   UNL     1      21.303   2.344  16.256  0.00  0.00    +0.000 A 
ATOM     12  C   UNL     1      22.086   2.320  15.125  0.00  0.00    +0.000 A 
ATOM     13  C   UNL     1      23.443   2.712  15.197  0.00  0.00    +0.000 A 
ATOM     14  C   UNL     1      23.988   3.112  16.382  0.00  0.00    +0.000 A 
ATOM     15  C   UNL     1      25.481   3.519  16.355  0.00  0.00    +0.000 C 
ATOM     16  C   UNL     1      25.384   4.682  15.227  0.00  0.00    +0.000 C 
ATOM     17  C   UNL     1      26.818   5.236  15.283  0.00  0.00    +0.000 C 
ATOM     18  C   UNL     1      27.052   5.918  16.537  0.00  0.00    +0.000 C 
ATOM     19  C   UNL     1      26.054   6.975  16.925  0.00  0.00    +0.000 C 
ENDROOT
BRANCH   1  21
ATOM     20  C   UNL     1      30.118   4.308  17.074  0.00  0.00    +0.000 C 
ATOM     21  C   UNL     1      29.339   5.231  17.011  0.00  0.00    +0.000 C 
ENDBRANCH   1  21
BRANCH  11  22
ATOM     22  O   UNL     1      19.955   1.952  16.166  0.00  0.00    +0.000 OA
ATOM     23  C   UNL     1      19.234   1.687  17.360  0.00  0.00    +0.000 C 
ENDBRANCH  11  22
TORSDOF 2
ENDMDL
MODEL 4
REMARK VINA RESULT:      -6.6      2.344      6.705
REMARK  Name = 
REMARK  2 active torsions:
REMARK  status: ('A' for Active; 'I' for Inactive)
REMARK    1  A    between atoms: C_2  and  C_3
REMARK    2  A    between atoms: C_13  and  O_14
REMARK                            x       y       z     vdW  Elec       q    Type
REMARK                         _______ _______ _______ _____ _____    ______ ____
ROOT
ATOM      1  C   UNL     1      27.882  24.073  23.608  0.00  0.00    +0.000 C 
ATOM      2  O   UNL     1      27.609  23.356  22.483  0.00  0.00    +0.000 OA
ATOM      3  C   UNL     1      26.649  24.711  24.239  0.00  0.00    +0.000 C 
ATOM      4  C   UNL     1      27.006  24.907  25.721  0.00  0.00    +0.000 C 
ATOM      5  C   UNL     1      28.609  24.703  25.653  0.00  0.00    +0.000 C 
ATOM      6  C   UNL     1      28.715  23.818  27.072  0.00  0.00    +0.000 C 
ATOM      7  C   UNL     1      28.902  25.093  28.012  0.00  0.00    +0.000 C 
ATOM      8  C   UNL     1      28.808  24.362  29.365  0.00  0.00    +0.000 C 
ATOM      9  C   UNL     1      29.948  23.409  29.339  0.00  0.00    +0.000 A 
ATOM     10  C   UNL     1      30.259  22.855  30.597  0.00  0.00    +0.000 A 
ATOM     11  C   UNL     1      31.279  21.962  30.742  0.00  0.00    +0.000 A 
ATOM     12  C   UNL     1      32.006  21.609  29.630  0.00  0.00    +0.000 A 
ATOM     13  C   UNL     1      31.688  22.168  28.370  0.00  0.00    +0.000 A 
ATOM     14  C   UNL     1      30.663  23.060  28.247  0.00  0.00    +0.000 A 
ATOM     15  C   UNL     1      30.396  23.615  26.826  0.00  0.00    +0.000 C 
ATOM     16  C   UNL     1      30.157  22.200  26.066  0.00  0.00    +0.000 C 
ATOM     17  C   UNL     1      29.722  22.707  24.681  0.00  0.00    +0.000 C 
ATOM     18  C   UNL     1      28.424  23.341  24.755  0.00  0.00    +0.000 C 
ATOM     19  C   UNL     1      27.323  22.547  25.406  0.00  0.00    +0.000 C 
ENDROOT
BRANCH   1  21
ATOM     20  C   UNL     1      29.436  26.140  22.891  0.00  0.00    +0.000 C 
ATOM     21  C   UNL     1      28.740  25.209  23.226  0.00  0.00    +0.000 C 
ENDBRANCH   1  21
BRANCH  11  22
ATOM     22  O   UNL     1      31.609  21.395  31.987  0.00  0.00    +0.000 OA
ATOM     23  C   UNL     1      30.643  21.407  33.027  0.00  0.00    +0.000 C 
ENDBRANCH  11  22
TORSDOF 2
ENDMDL
MODEL 5
REMARK VINA RESULT:      -6.4      1.660      6.830
REMARK  Name = 
REMARK  2 active torsions:
REMARK  status: ('A' for Active; 'I' for Inactive)
REMARK    1  A    between atoms: C_2  and  C_3
REMARK    2  A    between atoms: C_13  and  O_14
REMARK                            x       y       z     vdW  Elec       q    Type
REMARK                         _______ _______ _______ _____ _____    ______ ____
ROOT
ATOM      1  C   UNL     1      29.002  24.835  22.042  0.00  0.00    +0.000 C 
ATOM      2  O   UNL     1      29.689  24.382  20.957  0.00  0.00    +0.000 OA
ATOM      3  C   UNL     1      27.493  24.650  21.929  0.00  0.00    +0.000 C 
ATOM      4  C   UNL     1      26.979  24.609  23.377  0.00  0.00    +0.000 C 
ATOM      5  C   UNL     1      28.274  25.192  24.151  0.00  0.00    +0.000 C 
ATOM      6  C   UNL     1      28.175  24.132  25.445  0.00  0.00    +0.000 C 
ATOM      7  C   UNL     1      27.215  25.066  26.312  0.00  0.00    +0.000 C 
ATOM      8  C   UNL     1      26.921  24.062  27.442  0.00  0.00    +0.000 C 
ATOM      9  C   UNL     1      28.256  23.784  28.033  0.00  0.00    +0.000 A 
ATOM     10  C   UNL     1      28.204  23.140  29.286  0.00  0.00    +0.000 A 
ATOM     11  C   UNL     1      29.342  22.814  29.960  0.00  0.00    +0.000 A 
ATOM     12  C   UNL     1      30.555  23.129  29.392  0.00  0.00    +0.000 A 
ATOM     13  C   UNL     1      30.600  23.774  28.134  0.00  0.00    +0.000 A 
ATOM     14  C   UNL     1      29.448  24.091  27.476  0.00  0.00    +0.000 A 
ATOM     15  C   UNL     1      29.605  24.797  26.107  0.00  0.00    +0.000 C 
ATOM     16  C   UNL     1      30.518  23.674  25.371  0.00  0.00    +0.000 C 
ATOM     17  C   UNL     1      30.563  24.252  23.946  0.00  0.00    +0.000 C 
ATOM     18  C   UNL     1      29.260  24.174  23.324  0.00  0.00    +0.000 C 
ATOM     19  C   UNL     1      28.589  22.827  23.334  0.00  0.00    +0.000 C 
ENDROOT
BRANCH   1  21
ATOM     20  C   UNL     1      29.345  27.491  22.213  0.00  0.00    +0.000 C 
ATOM     21  C   UNL     1      29.197  26.293  22.127  0.00  0.00    +0.000 C 
ENDBRANCH   1  21
BRANCH  11  22
ATOM     22  O   UNL     1      29.317  22.171  31.211  0.00  0.00    +0.000 OA
ATOM     23  C   UNL     1      30.541  21.934  31.889  0.00  0.00    +0.000 C 
ENDBRANCH  11  22
TORSDOF 2
ENDMDL
MODEL 6
REMARK VINA RESULT:      -6.3      2.509      3.364
REMARK  Name = 
REMARK  2 active torsions:
REMARK  status: ('A' for Active; 'I' for Inactive)
REMARK    1  A    between atoms: C_2  and  C_3
REMARK    2  A    between atoms: C_13  and  O_14
REMARK                            x       y       z     vdW  Elec       q    Type
REMARK                         _______ _______ _______ _____ _____    ______ ____
ROOT
ATOM      1  C   UNL     1      31.089  23.756  31.661  0.00  0.00    +0.000 C 
ATOM      2  O   UNL     1      32.123  24.437  32.229  0.00  0.00    +0.000 OA
ATOM      3  C   UNL     1      29.720  24.186  32.175  0.00  0.00    +0.000 C 
ATOM      4  C   UNL     1      28.732  23.819  31.056  0.00  0.00    +0.000 C 
ATOM      5  C   UNL     1      29.661  22.830  30.175  0.00  0.00    +0.000 C 
ATOM      6  C   UNL     1      29.139  23.404  28.690  0.00  0.00    +0.000 C 
ATOM      7  C   UNL     1      27.916  22.386  28.575  0.00  0.00    +0.000 C 
ATOM      8  C   UNL     1      27.267  22.991  27.315  0.00  0.00    +0.000 C 
ATOM      9  C   UNL     1      28.315  22.859  26.271  0.00  0.00    +0.000 A 
ATOM     10  C   UNL     1      27.842  23.052  24.957  0.00  0.00    +0.000 A 
ATOM     11  C   UNL     1      28.680  22.966  23.886  0.00  0.00    +0.000 A 
ATOM     12  C   UNL     1      30.007  22.683  24.110  0.00  0.00    +0.000 A 
ATOM     13  C   UNL     1      30.476  22.492  25.431  0.00  0.00    +0.000 A 
ATOM     14  C   UNL     1      29.620  22.583  26.490  0.00  0.00    +0.000 A 
ATOM     15  C   UNL     1      30.231  22.356  27.894  0.00  0.00    +0.000 C 
ATOM     16  C   UNL     1      31.369  23.512  27.841  0.00  0.00    +0.000 C 
ATOM     17  C   UNL     1      31.897  23.439  29.284  0.00  0.00    +0.000 C 
ATOM     18  C   UNL     1      30.897  23.909  30.217  0.00  0.00    +0.000 C 
ATOM     19  C   UNL     1      30.295  25.259  29.935  0.00  0.00    +0.000 C 
ENDROOT
BRANCH   1  21
ATOM     20  C   UNL     1      31.305  21.183  32.394  0.00  0.00    +0.000 C 
ATOM     21  C   UNL     1      31.210  22.340  32.052  0.00  0.00    +0.000 C 
ENDBRANCH   1  21
BRANCH  11  22
ATOM     22  O   UNL     1      28.231  23.154  22.565  0.00  0.00    +0.000 OA
ATOM     23  C   UNL     1      28.760  24.230  21.806  0.00  0.00    +0.000 C 
ENDBRANCH  11  22
TORSDOF 2
ENDMDL
MODEL 7
REMARK VINA RESULT:      -6.3      1.394      6.905
REMARK  Name = 
REMARK  2 active torsions:
REMARK  status: ('A' for Active; 'I' for Inactive)
REMARK    1  A    between atoms: C_2  and  C_3
REMARK    2  A    between atoms: C_13  and  O_14
REMARK                            x       y       z     vdW  Elec       q    Type
REMARK                         _______ _______ _______ _____ _____    ______ ____
ROOT
ATOM      1  C   UNL     1      28.084  24.856  22.568  0.00  0.00    +0.000 C 
ATOM      2  O   UNL     1      28.372  25.904  21.746  0.00  0.00    +0.000 OA
ATOM      3  C   UNL     1      29.226  23.854  22.699  0.00  0.00    +0.000 C 
ATOM      4  C   UNL     1      28.999  23.156  24.050  0.00  0.00    +0.000 C 
ATOM      5  C   UNL     1      27.472  23.600  24.343  0.00  0.00    +0.000 C 
ATOM      6  C   UNL     1      27.698  23.875  25.980  0.00  0.00    +0.000 C 
ATOM      7  C   UNL     1      27.364  22.377  26.416  0.00  0.00    +0.000 C 
ATOM      8  C   UNL     1      27.747  22.509  27.902  0.00  0.00    +0.000 C 
ATOM      9  C   UNL     1      26.825  23.552  28.421  0.00  0.00    +0.000 A 
ATOM     10  C   UNL     1      26.769  23.617  29.828  0.00  0.00    +0.000 A 
ATOM     11  C   UNL     1      25.970  24.522  30.461  0.00  0.00    +0.000 A 
ATOM     12  C   UNL     1      25.212  25.378  29.696  0.00  0.00    +0.000 A 
ATOM     13  C   UNL     1      25.274  25.308  28.285  0.00  0.00    +0.000 A 
ATOM     14  C   UNL     1      26.080  24.394  27.671  0.00  0.00    +0.000 A 
ATOM     15  C   UNL     1      26.076  24.397  26.123  0.00  0.00    +0.000 C 
ATOM     16  C   UNL     1      26.509  25.944  25.893  0.00  0.00    +0.000 C 
ATOM     17  C   UNL     1      26.681  25.954  24.365  0.00  0.00    +0.000 C 
ATOM     18  C   UNL     1      27.827  25.160  23.977  0.00  0.00    +0.000 C 
ATOM     19  C   UNL     1      29.128  25.475  24.665  0.00  0.00    +0.000 C 
ENDROOT
BRANCH   1  21
ATOM     20  C   UNL     1      26.088  23.447  21.457  0.00  0.00    +0.000 C 
ATOM     21  C   UNL     1      26.981  24.092  21.959  0.00  0.00    +0.000 C 
ENDBRANCH   1  21
BRANCH  11  22
ATOM     22  O   UNL     1      25.897  24.607  31.864  0.00  0.00    +0.000 OA
ATOM     23  C   UNL     1      26.510  25.707  32.520  0.00  0.00    +0.000 C 
ENDBRANCH  11  22
TORSDOF 2
ENDMDL
MODEL 8
REMARK VINA RESULT:      -6.3      2.742      3.668
REMARK  Name = 
REMARK  2 active torsions:
REMARK  status: ('A' for Active; 'I' for Inactive)
REMARK    1  A    between atoms: C_2  and  C_3
REMARK    2  A    between atoms: C_13  and  O_14
REMARK                            x       y       z     vdW  Elec       q    Type
REMARK                         _______ _______ _______ _____ _____    ______ ____
ROOT
ATOM      1  C   UNL     1      26.510  24.111  28.975  0.00  0.00    +0.000 C 
ATOM      2  O   UNL     1      25.923  24.994  29.831  0.00  0.00    +0.000 OA
ATOM      3  C   UNL     1      25.679  23.825  27.730  0.00  0.00    +0.000 C 
ATOM      4  C   UNL     1      26.688  23.370  26.663  0.00  0.00    +0.000 C 
ATOM      5  C   UNL     1      27.972  23.072  27.601  0.00  0.00    +0.000 C 
ATOM      6  C   UNL     1      29.095  23.723  26.542  0.00  0.00    +0.000 C 
ATOM      7  C   UNL     1      29.338  22.360  25.748  0.00  0.00    +0.000 C 
ATOM      8  C   UNL     1      30.220  22.934  24.624  0.00  0.00    +0.000 C 
ATOM      9  C   UNL     1      31.402  23.483  25.339  0.00  0.00    +0.000 A 
ATOM     10  C   UNL     1      32.495  23.775  24.498  0.00  0.00    +0.000 A 
ATOM     11  C   UNL     1      33.655  24.285  24.999  0.00  0.00    +0.000 A 
ATOM     12  C   UNL     1      33.742  24.512  26.353  0.00  0.00    +0.000 A 
ATOM     13  C   UNL     1      32.642  24.217  27.191  0.00  0.00    +0.000 A 
ATOM     14  C   UNL     1      31.489  23.707  26.669  0.00  0.00    +0.000 A 
ATOM     15  C   UNL     1      30.344  23.418  27.670  0.00  0.00    +0.000 C 
ATOM     16  C   UNL     1      30.202  24.909  28.295  0.00  0.00    +0.000 C 
ATOM     17  C   UNL     1      28.959  24.715  29.180  0.00  0.00    +0.000 C 
ATOM     18  C   UNL     1      27.781  24.512  28.366  0.00  0.00    +0.000 C 
ATOM     19  C   UNL     1      27.520  25.534  27.294  0.00  0.00    +0.000 C 
ENDROOT
BRANCH   1  21
ATOM     20  C   UNL     1      26.694  21.737  30.212  0.00  0.00    +0.000 C 
ATOM     21  C   UNL     1      26.616  22.813  29.664  0.00  0.00    +0.000 C 
ENDBRANCH   1  21
BRANCH  11  22
ATOM     22  O   UNL     1      34.759  24.585  24.180  0.00  0.00    +0.000 OA
ATOM     23  C   UNL     1      36.015  23.991  24.473  0.00  0.00    +0.000 C 
ENDBRANCH  11  22
TORSDOF 2
ENDMDL
MODEL 9
REMARK VINA RESULT:      -6.2     32.282     34.647
REMARK  Name = 
REMARK  2 active torsions:
REMARK  status: ('A' for Active; 'I' for Inactive)
REMARK    1  A    between atoms: C_2  and  C_3
REMARK    2  A    between atoms: C_13  and  O_14
REMARK                            x       y       z     vdW  Elec       q    Type
REMARK                         _______ _______ _______ _____ _____    ______ ____
ROOT
ATOM      1  C   UNL     1      18.548 -11.872  31.413  0.00  0.00    +0.000 C 
ATOM      2  O   UNL     1      19.240 -12.479  32.418  0.00  0.00    +0.000 OA
ATOM      3  C   UNL     1      17.454 -10.932  31.908  0.00  0.00    +0.000 C 
ATOM      4  C   UNL     1      17.238  -9.925  30.767  0.00  0.00    +0.000 C 
ATOM      5  C   UNL     1      17.998 -10.696  29.565  0.00  0.00    +0.000 C 
ATOM      6  C   UNL     1      18.706  -9.321  28.919  0.00  0.00    +0.000 C 
ATOM      7  C   UNL     1      17.484  -8.982  27.951  0.00  0.00    +0.000 C 
ATOM      8  C   UNL     1      17.986  -7.609  27.465  0.00  0.00    +0.000 C 
ATOM      9  C   UNL     1      19.275  -7.914  26.792  0.00  0.00    +0.000 A 
ATOM     10  C   UNL     1      19.765  -6.864  25.990  0.00  0.00    +0.000 A 
ATOM     11  C   UNL     1      20.937  -6.986  25.307  0.00  0.00    +0.000 A 
ATOM     12  C   UNL     1      21.641  -8.163  25.412  0.00  0.00    +0.000 A 
ATOM     13  C   UNL     1      21.144  -9.213  26.220  0.00  0.00    +0.000 A 
ATOM     14  C   UNL     1      19.968  -9.070  26.896  0.00  0.00    +0.000 A 
ATOM     15  C   UNL     1      19.511 -10.277  27.751  0.00  0.00    +0.000 C 
ATOM     16  C   UNL     1      20.825 -10.402  28.696  0.00  0.00    +0.000 C 
ATOM     17  C   UNL     1      20.350 -11.486  29.679  0.00  0.00    +0.000 C 
ATOM     18  C   UNL     1      19.297 -10.976  30.529  0.00  0.00    +0.000 C 
ATOM     19  C   UNL     1      19.579  -9.686  31.250  0.00  0.00    +0.000 C 
ENDROOT
BRANCH   1  21
ATOM     20  C   UNL     1      17.248 -13.789  30.058  0.00  0.00    +0.000 C 
ATOM     21  C   UNL     1      17.833 -12.918  30.660  0.00  0.00    +0.000 C 
ENDBRANCH   1  21
BRANCH  11  22
ATOM     22  O   UNL     1      21.447  -5.951  24.500  0.00  0.00    +0.000 OA
ATOM     23  C   UNL     1      22.607  -6.196  23.718  0.00  0.00    +0.000 C 
ENDBRANCH  11  22
TORSDOF 2
ENDMDL
MODEL 10
REMARK VINA RESULT:      -6.1      1.978      6.741
REMARK  Name = 
REMARK  2 active torsions:
REMARK  status: ('A' for Active; 'I' for Inactive)
REMARK    1  A    between atoms: C_2  and  C_3
REMARK    2  A    between atoms: C_13  and  O_14
REMARK                            x       y       z     vdW  Elec       q    Type
REMARK                         _______ _______ _______ _____ _____    ______ ____
ROOT
ATOM      1  C   UNL     1      27.929  25.444  23.096  0.00  0.00    +0.000 C 
ATOM      2  O   UNL     1      27.366  26.611  22.676  0.00  0.00    +0.000 OA
ATOM      3  C   UNL     1      29.329  25.209  22.540  0.00  0.00    +0.000 C 
ATOM      4  C   UNL     1      30.012  24.266  23.544  0.00  0.00    +0.000 C 
ATOM      5  C   UNL     1      28.719  23.756  24.373  0.00  0.00    +0.000 C 
ATOM      6  C   UNL     1      29.464  23.805  25.873  0.00  0.00    +0.000 C 
ATOM      7  C   UNL     1      30.023  22.313  25.794  0.00  0.00    +0.000 C 
ATOM      8  C   UNL     1      30.893  22.355  27.065  0.00  0.00    +0.000 C 
ATOM      9  C   UNL     1      29.922  22.623  28.157  0.00  0.00    +0.000 A 
ATOM     10  C   UNL     1      30.435  22.389  29.449  0.00  0.00    +0.000 A 
ATOM     11  C   UNL     1      29.669  22.589  30.559  0.00  0.00    +0.000 A 
ATOM     12  C   UNL     1      28.375  23.025  30.395  0.00  0.00    +0.000 A 
ATOM     13  C   UNL     1      27.867  23.258  29.096  0.00  0.00    +0.000 A 
ATOM     14  C   UNL     1      28.650  23.052  27.998  0.00  0.00    +0.000 A 
ATOM     15  C   UNL     1      28.000  23.336  26.622  0.00  0.00    +0.000 C 
ATOM     16  C   UNL     1      27.585  24.884  26.876  0.00  0.00    +0.000 C 
ATOM     17  C   UNL     1      27.082  25.264  25.473  0.00  0.00    +0.000 C 
ATOM     18  C   UNL     1      28.179  25.298  24.532  0.00  0.00    +0.000 C 
ATOM     19  C   UNL     1      29.372  26.131  24.917  0.00  0.00    +0.000 C 
ENDROOT
BRANCH   1  21
ATOM     20  C   UNL     1      26.452  23.433  22.108  0.00  0.00    +0.000 C 
ATOM     21  C   UNL     1      27.121  24.333  22.562  0.00  0.00    +0.000 C 
ENDBRANCH   1  21
BRANCH  11  22
ATOM     22  O   UNL     1      30.159  22.362  31.859  0.00  0.00    +0.000 OA
ATOM     23  C   UNL     1      31.318  21.560  32.029  0.00  0.00    +0.000 C 
ENDBRANCH  11  22
TORSDOF 2
ENDMDL
