MODEL 1
REMARK VINA RESULT:      -7.0      0.000      0.000
REMARK  Name = 
REMARK  4 active torsions:
REMARK  status: ('A' for Active; 'I' for Inactive)
REMARK    1  A    between atoms: C_2  and  C_14
REMARK    2  A    between atoms: N_3  and  C_4
REMARK    3  A    between atoms: C_4  and  N_6
REMARK    4  A    between atoms: N_6  and  C_7
REMARK                            x       y       z     vdW  Elec       q    Type
REMARK                         _______ _______ _______ _____ _____    ______ ____
ROOT
ATOM      1  C   UNL     1      17.030  11.239  35.097  0.00  0.00    +0.000 C 
ATOM      2  S   UNL     1      17.848   9.812  35.218  0.00  0.00    +0.000 S 
ENDROOT
BRANCH   1   5
ATOM      3  O   UNL     1      15.096  10.389  33.419  0.00  0.00    +0.000 OA
ATOM      4  C   UNL     1      15.842  11.295  32.972  0.00  0.00    +0.000 C 
ATOM      5  N   UNL     1      16.878  11.788  33.800  0.00  0.00    +0.000 NA
BRANCH   4   6
ATOM      6  C   UNL     1      15.577  11.782  31.597  0.00  0.00    +0.000 C 
ATOM      7  C   UNL     1      16.587  12.796  31.134  0.00  0.00    +0.000 C 
ATOM      8  C   UNL     1      15.858  13.714  30.202  0.00  0.00    +0.000 C 
ATOM      9  C   UNL     1      14.374  13.523  30.462  0.00  0.00    +0.000 C 
ATOM     10  C   UNL     1      14.280  12.549  31.614  0.00  0.00    +0.000 C 
ENDBRANCH   4   6
ENDBRANCH   1   5
BRANCH   1  11
ATOM     11  N   UNL     1      16.506  11.884  36.231  0.00  0.00    +0.000 NA
BRANCH  11  12
ATOM     12  C   UNL     1      15.156  11.810  36.623  0.00  0.00    +0.000 A 
ATOM     13  C   UNL     1      14.685  11.004  37.639  0.00  0.00    +0.000 A 
ATOM     14  C   UNL     1      13.348  10.973  37.981  0.00  0.00    +0.000 A 
ATOM     15  C   UNL     1      12.422  11.751  37.319  0.00  0.00    +0.000 A 
ATOM     16  O   UNL     1      11.076  11.704  37.680  0.00  0.00    +0.000 OA
ATOM     17  C   UNL     1      12.888  12.559  36.302  0.00  0.00    +0.000 A 
ATOM     18  C   UNL     1      14.234  12.592  35.957  0.00  0.00    +0.000 A 
ENDBRANCH  11  12
ENDBRANCH   1  11
TORSDOF 4
ENDMDL
MODEL 2
REMARK VINA RESULT:      -6.3      2.929      3.701
REMARK  Name = 
REMARK  4 active torsions:
REMARK  status: ('A' for Active; 'I' for Inactive)
REMARK    1  A    between atoms: C_2  and  C_14
REMARK    2  A    between atoms: N_3  and  C_4
REMARK    3  A    between atoms: C_4  and  N_6
REMARK    4  A    between atoms: N_6  and  C_7
REMARK                            x       y       z     vdW  Elec       q    Type
REMARK                         _______ _______ _______ _____ _____    ______ ____
ROOT
ATOM      1  C   UNL     1      17.269  10.824  34.901  0.00  0.00    +0.000 C 
ATOM      2  S   UNL     1      17.707   9.235  34.882  0.00  0.00    +0.000 S 
ENDROOT
BRANCH   1   5
ATOM      3  O   UNL     1      14.696  11.062  34.122  0.00  0.00    +0.000 OA
ATOM      4  C   UNL     1      15.550  11.504  33.315  0.00  0.00    +0.000 C 
ATOM      5  N   UNL     1      16.919  11.412  33.660  0.00  0.00    +0.000 NA
BRANCH   4   6
ATOM      6  C   UNL     1      15.052  12.096  32.050  0.00  0.00    +0.000 C 
ATOM      7  C   UNL     1      16.159  12.621  31.178  0.00  0.00    +0.000 C 
ATOM      8  C   UNL     1      15.583  13.782  30.427  0.00  0.00    +0.000 C 
ATOM      9  C   UNL     1      14.325  14.207  31.165  0.00  0.00    +0.000 C 
ATOM     10  C   UNL     1      14.250  13.324  32.390  0.00  0.00    +0.000 C 
ENDBRANCH   4   6
ENDBRANCH   1   5
BRANCH   1  11
ATOM     11  N   UNL     1      17.242  11.565  36.095  0.00  0.00    +0.000 NA
BRANCH  11  12
ATOM     12  C   UNL     1      17.710  11.080  37.331  0.00  0.00    +0.000 A 
ATOM     13  C   UNL     1      18.993  11.264  37.803  0.00  0.00    +0.000 A 
ATOM     14  C   UNL     1      19.397  10.766  39.026  0.00  0.00    +0.000 A 
ATOM     15  C   UNL     1      18.529  10.059  39.831  0.00  0.00    +0.000 A 
ATOM     16  O   UNL     1      18.957   9.562  41.062  0.00  0.00    +0.000 OA
ATOM     17  C   UNL     1      17.245   9.871  39.363  0.00  0.00    +0.000 A 
ATOM     18  C   UNL     1      16.836  10.373  38.133  0.00  0.00    +0.000 A 
ENDBRANCH  11  12
ENDBRANCH   1  11
TORSDOF 4
ENDMDL
MODEL 3
REMARK VINA RESULT:      -5.7      3.735      7.299
REMARK  Name = 
REMARK  4 active torsions:
REMARK  status: ('A' for Active; 'I' for Inactive)
REMARK    1  A    between atoms: C_2  and  C_14
REMARK    2  A    between atoms: N_3  and  C_4
REMARK    3  A    between atoms: C_4  and  N_6
REMARK    4  A    between atoms: N_6  and  C_7
REMARK                            x       y       z     vdW  Elec       q    Type
REMARK                         _______ _______ _______ _____ _____    ______ ____
ROOT
ATOM      1  C   UNL     1      17.939  10.854  37.482  0.00  0.00    +0.000 C 
ATOM      2  S   UNL     1      18.730  12.292  37.637  0.00  0.00    +0.000 S 
ENDROOT
BRANCH   1   5
ATOM      3  O   UNL     1      19.343   9.149  39.031  0.00  0.00    +0.000 OA
ATOM      4  C   UNL     1      18.178   9.405  39.424  0.00  0.00    +0.000 C 
ATOM      5  N   UNL     1      17.385  10.292  38.659  0.00  0.00    +0.000 NA
BRANCH   4   6
ATOM      6  C   UNL     1      17.718   8.750  40.673  0.00  0.00    +0.000 C 
ATOM      7  C   UNL     1      17.781   7.249  40.600  0.00  0.00    +0.000 C 
ATOM      8  C   UNL     1      16.668   6.744  41.466  0.00  0.00    +0.000 C 
ATOM      9  C   UNL     1      15.707   7.901  41.674  0.00  0.00    +0.000 C 
ATOM     10  C   UNL     1      16.250   9.040  40.841  0.00  0.00    +0.000 C 
ENDBRANCH   4   6
ENDBRANCH   1   5
BRANCH   1  11
ATOM     11  N   UNL     1      17.818  10.212  36.237  0.00  0.00    +0.000 NA
BRANCH  11  12
ATOM     12  C   UNL     1      17.002  10.678  35.188  0.00  0.00    +0.000 A 
ATOM     13  C   UNL     1      15.908  11.500  35.362  0.00  0.00    +0.000 A 
ATOM     14  C   UNL     1      15.143  11.928  34.295  0.00  0.00    +0.000 A 
ATOM     15  C   UNL     1      15.443  11.548  33.003  0.00  0.00    +0.000 A 
ATOM     16  O   UNL     1      14.656  11.989  31.940  0.00  0.00    +0.000 OA
ATOM     17  C   UNL     1      16.536  10.725  32.825  0.00  0.00    +0.000 A 
ATOM     18  C   UNL     1      17.307  10.295  33.898  0.00  0.00    +0.000 A 
ENDBRANCH  11  12
ENDBRANCH   1  11
TORSDOF 4
ENDMDL
MODEL 4
REMARK VINA RESULT:      -5.6     18.283     20.287
REMARK  Name = 
REMARK  4 active torsions:
REMARK  status: ('A' for Active; 'I' for Inactive)
REMARK    1  A    between atoms: C_2  and  C_14
REMARK    2  A    between atoms: N_3  and  C_4
REMARK    3  A    between atoms: C_4  and  N_6
REMARK    4  A    between atoms: N_6  and  C_7
REMARK                            x       y       z     vdW  Elec       q    Type
REMARK                         _______ _______ _______ _____ _____    ______ ____
ROOT
ATOM      1  C   UNL     1      26.261  23.757  26.471  0.00  0.00    +0.000 C 
ATOM      2  S   UNL     1      27.459  23.930  27.590  0.00  0.00    +0.000 S 
ENDROOT
BRANCH   1   5
ATOM      3  O   UNL     1      25.888  26.273  25.569  0.00  0.00    +0.000 OA
ATOM      4  C   UNL     1      24.925  25.776  26.204  0.00  0.00    +0.000 C 
ATOM      5  N   UNL     1      25.052  24.459  26.705  0.00  0.00    +0.000 NA
BRANCH   4   6
ATOM      6  C   UNL     1      23.716  26.616  26.380  0.00  0.00    +0.000 C 
ATOM      7  C   UNL     1      22.722  26.014  27.335  0.00  0.00    +0.000 C 
ATOM      8  C   UNL     1      21.371  26.457  26.864  0.00  0.00    +0.000 C 
ATOM      9  C   UNL     1      21.532  26.923  25.428  0.00  0.00    +0.000 C 
ATOM     10  C   UNL     1      22.976  26.654  25.068  0.00  0.00    +0.000 C 
ENDBRANCH   4   6
ENDBRANCH   1   5
BRANCH   1  11
ATOM     11  N   UNL     1      26.429  22.949  25.333  0.00  0.00    +0.000 NA
BRANCH  11  12
ATOM     12  C   UNL     1      27.191  23.321  24.210  0.00  0.00    +0.000 A 
ATOM     13  C   UNL     1      26.657  23.824  23.042  0.00  0.00    +0.000 A 
ATOM     14  C   UNL     1      27.455  24.174  21.970  0.00  0.00    +0.000 A 
ATOM     15  C   UNL     1      28.826  24.034  22.023  0.00  0.00    +0.000 A 
ATOM     16  O   UNL     1      29.613  24.392  20.929  0.00  0.00    +0.000 OA
ATOM     17  C   UNL     1      29.364  23.531  23.189  0.00  0.00    +0.000 A 
ATOM     18  C   UNL     1      28.563  23.179  24.269  0.00  0.00    +0.000 A 
ENDBRANCH  11  12
ENDBRANCH   1  11
TORSDOF 4
ENDMDL
MODEL 5
REMARK VINA RESULT:      -5.5     17.898     20.243
REMARK  Name = 
REMARK  4 active torsions:
REMARK  status: ('A' for Active; 'I' for Inactive)
REMARK    1  A    between atoms: C_2  and  C_14
REMARK    2  A    between atoms: N_3  and  C_4
REMARK    3  A    between atoms: C_4  and  N_6
REMARK    4  A    between atoms: N_6  and  C_7
REMARK                            x       y       z     vdW  Elec       q    Type
REMARK                         _______ _______ _______ _____ _____    ______ ____
ROOT
ATOM      1  C   UNL     1      28.738  23.176  24.934  0.00  0.00    +0.000 C 
ATOM      2  S   UNL     1      30.232  22.522  25.174  0.00  0.00    +0.000 S 
ENDROOT
BRANCH   1   5
ATOM      3  O   UNL     1      27.987  22.982  22.349  0.00  0.00    +0.000 OA
ATOM      4  C   UNL     1      28.258  24.140  22.750  0.00  0.00    +0.000 C 
ATOM      5  N   UNL     1      28.659  24.315  24.095  0.00  0.00    +0.000 NA
BRANCH   4   6
ATOM      6  C   UNL     1      28.136  25.248  21.771  0.00  0.00    +0.000 C 
ATOM      7  C   UNL     1      29.336  25.363  20.870  0.00  0.00    +0.000 C 
ATOM      8  C   UNL     1      29.465  26.817  20.534  0.00  0.00    +0.000 C 
ATOM      9  C   UNL     1      28.650  27.584  21.561  0.00  0.00    +0.000 C 
ATOM     10  C   UNL     1      28.132  26.548  22.531  0.00  0.00    +0.000 C 
ENDBRANCH   4   6
ENDBRANCH   1   5
BRANCH   1  11
ATOM     11  N   UNL     1      27.590  22.628  25.534  0.00  0.00    +0.000 NA
BRANCH  11  12
ATOM     12  C   UNL     1      27.163  22.936  26.839  0.00  0.00    +0.000 A 
ATOM     13  C   UNL     1      26.128  23.799  27.134  0.00  0.00    +0.000 A 
ATOM     14  C   UNL     1      25.750  24.063  28.436  0.00  0.00    +0.000 A 
ATOM     15  C   UNL     1      26.397  23.474  29.501  0.00  0.00    +0.000 A 
ATOM     16  O   UNL     1      26.001  23.756  30.808  0.00  0.00    +0.000 OA
ATOM     17  C   UNL     1      27.434  22.611  29.211  0.00  0.00    +0.000 A 
ATOM     18  C   UNL     1      27.814  22.342  27.902  0.00  0.00    +0.000 A 
ENDBRANCH  11  12
ENDBRANCH   1  11
TORSDOF 4
ENDMDL
MODEL 6
REMARK VINA RESULT:      -5.4      5.622      7.955
REMARK  Name = 
REMARK  4 active torsions:
REMARK  status: ('A' for Active; 'I' for Inactive)
REMARK    1  A    between atoms: C_2  and  C_14
REMARK    2  A    between atoms: N_3  and  C_4
REMARK    3  A    between atoms: C_4  and  N_6
REMARK    4  A    between atoms: N_6  and  C_7
REMARK                            x       y       z     vdW  Elec       q    Type
REMARK                         _______ _______ _______ _____ _____    ______ ____
ROOT
ATOM      1  C   UNL     1      20.241  10.254  38.216  0.00  0.00    +0.000 C 
ATOM      2  S   UNL     1      20.094  11.856  38.577  0.00  0.00    +0.000 S 
ENDROOT
BRANCH   1   5
ATOM      3  O   UNL     1      21.939  10.160  36.121  0.00  0.00    +0.000 OA
ATOM      4  C   UNL     1      22.371   9.667  37.192  0.00  0.00    +0.000 C 
ATOM      5  N   UNL     1      21.533   9.682  38.332  0.00  0.00    +0.000 NA
BRANCH   4   6
ATOM      6  C   UNL     1      23.741   9.099  37.179  0.00  0.00    +0.000 C 
ATOM      7  C   UNL     1      24.259   8.799  38.559  0.00  0.00    +0.000 C 
ATOM      8  C   UNL     1      25.743   8.994  38.498  0.00  0.00    +0.000 C 
ATOM      9  C   UNL     1      26.032   9.817  37.254  0.00  0.00    +0.000 C 
ATOM     10  C   UNL     1      24.682  10.157  36.665  0.00  0.00    +0.000 C 
ENDBRANCH   4   6
ENDBRANCH   1   5
BRANCH   1  11
ATOM     11  N   UNL     1      19.134   9.487  37.812  0.00  0.00    +0.000 NA
BRANCH  11  12
ATOM     12  C   UNL     1      18.250   9.864  36.784  0.00  0.00    +0.000 A 
ATOM     13  C   UNL     1      17.098  10.598  36.980  0.00  0.00    +0.000 A 
ATOM     14  C   UNL     1      16.267  10.940  35.932  0.00  0.00    +0.000 A 
ATOM     15  C   UNL     1      16.555  10.561  34.638  0.00  0.00    +0.000 A 
ATOM     16  O   UNL     1      15.702  10.916  33.594  0.00  0.00    +0.000 OA
ATOM     17  C   UNL     1      17.706   9.827  34.437  0.00  0.00    +0.000 A 
ATOM     18  C   UNL     1      18.544   9.482  35.491  0.00  0.00    +0.000 A 
ENDBRANCH  11  12
ENDBRANCH   1  11
TORSDOF 4
ENDMDL
MODEL 7
REMARK VINA RESULT:      -5.4     22.891     24.673
REMARK  Name = 
REMARK  4 active torsions:
REMARK  status: ('A' for Active; 'I' for Inactive)
REMARK    1  A    between atoms: C_2  and  C_14
REMARK    2  A    between atoms: N_3  and  C_4
REMARK    3  A    between atoms: C_4  and  N_6
REMARK    4  A    between atoms: N_6  and  C_7
REMARK                            x       y       z     vdW  Elec       q    Type
REMARK                         _______ _______ _______ _____ _____    ______ ____
ROOT
ATOM      1  C   UNL     1      33.525  -4.744  33.791  0.00  0.00    +0.000 C 
ATOM      2  S   UNL     1      33.812  -5.835  34.993  0.00  0.00    +0.000 S 
ENDROOT
BRANCH   1   5
ATOM      3  O   UNL     1      32.508  -6.074  31.674  0.00  0.00    +0.000 OA
ATOM      4  C   UNL     1      33.664  -5.609  31.519  0.00  0.00    +0.000 C 
ATOM      5  N   UNL     1      34.259  -4.900  32.589  0.00  0.00    +0.000 NA
BRANCH   4   6
ATOM      6  C   UNL     1      34.324  -5.843  30.211  0.00  0.00    +0.000 C 
ATOM      7  C   UNL     1      33.404  -5.606  29.045  0.00  0.00    +0.000 C 
ATOM      8  C   UNL     1      33.849  -6.545  27.966  0.00  0.00    +0.000 C 
ATOM      9  C   UNL     1      34.704  -7.611  28.631  0.00  0.00    +0.000 C 
ATOM     10  C   UNL     1      34.661  -7.307  30.111  0.00  0.00    +0.000 C 
ENDBRANCH   4   6
ENDBRANCH   1   5
BRANCH   1  11
ATOM     11  N   UNL     1      32.593  -3.703  33.950  0.00  0.00    +0.000 NA
BRANCH  11  12
ATOM     12  C   UNL     1      32.929  -2.407  34.383  0.00  0.00    +0.000 A 
ATOM     13  C   UNL     1      33.661  -1.505  33.639  0.00  0.00    +0.000 A 
ATOM     14  C   UNL     1      33.961  -0.244  34.116  0.00  0.00    +0.000 A 
ATOM     15  C   UNL     1      33.539   0.168  35.362  0.00  0.00    +0.000 A 
ATOM     16  O   UNL     1      33.854   1.446  35.825  0.00  0.00    +0.000 OA
ATOM     17  C   UNL     1      32.807  -0.730  36.110  0.00  0.00    +0.000 A 
ATOM     18  C   UNL     1      32.503  -2.000  35.632  0.00  0.00    +0.000 A 
ENDBRANCH  11  12
ENDBRANCH   1  11
TORSDOF 4
ENDMDL
MODEL 8
REMARK VINA RESULT:      -5.3     21.135     22.519
REMARK  Name = 
REMARK  4 active torsions:
REMARK  status: ('A' for Active; 'I' for Inactive)
REMARK    1  A    between atoms: C_2  and  C_14
REMARK    2  A    between atoms: N_3  and  C_4
REMARK    3  A    between atoms: C_4  and  N_6
REMARK    4  A    between atoms: N_6  and  C_7
REMARK                            x       y       z     vdW  Elec       q    Type
REMARK                         _______ _______ _______ _____ _____    ______ ____
ROOT
ATOM      1  C   UNL     1      15.895 -10.165  26.477  0.00  0.00    +0.000 C 
ATOM      2  S   UNL     1      16.261 -11.244  25.285  0.00  0.00    +0.000 S 
ENDROOT
BRANCH   1   5
ATOM      3  O   UNL     1      14.643  -8.231  25.071  0.00  0.00    +0.000 OA
ATOM      4  C   UNL     1      13.932  -8.841  25.907  0.00  0.00    +0.000 C 
ATOM      5  N   UNL     1      14.524  -9.868  26.679  0.00  0.00    +0.000 NA
BRANCH   4   6
ATOM      6  C   UNL     1      12.511  -8.433  26.021  0.00  0.00    +0.000 C 
ATOM      7  C   UNL     1      11.825  -9.042  27.213  0.00  0.00    +0.000 C 
ATOM      8  C   UNL     1      10.389  -9.217  26.822  0.00  0.00    +0.000 C 
ATOM      9  C   UNL     1      10.330  -9.138  25.306  0.00  0.00    +0.000 C 
ATOM     10  C   UNL     1      11.763  -9.004  24.845  0.00  0.00    +0.000 C 
ENDBRANCH   4   6
ENDBRANCH   1   5
BRANCH   1  11
ATOM     11  N   UNL     1      16.897  -9.566  27.259  0.00  0.00    +0.000 NA
BRANCH  11  12
ATOM     12  C   UNL     1      17.605  -8.410  26.878  0.00  0.00    +0.000 A 
ATOM     13  C   UNL     1      17.232  -7.125  27.215  0.00  0.00    +0.000 A 
ATOM     14  C   UNL     1      17.966  -6.026  26.814  0.00  0.00    +0.000 A 
ATOM     15  C   UNL     1      19.108  -6.168  26.055  0.00  0.00    +0.000 A 
ATOM     16  O   UNL     1      19.835  -5.046  25.659  0.00  0.00    +0.000 OA
ATOM     17  C   UNL     1      19.485  -7.451  25.715  0.00  0.00    +0.000 A 
ATOM     18  C   UNL     1      18.748  -8.558  26.119  0.00  0.00    +0.000 A 
ENDBRANCH  11  12
ENDBRANCH   1  11
TORSDOF 4
ENDMDL
MODEL 9
REMARK VINA RESULT:      -5.2     19.798     20.763
REMARK  Name = 
REMARK  4 active torsions:
REMARK  status: ('A' for Active; 'I' for Inactive)
REMARK    1  A    between atoms: C_2  and  C_14
REMARK    2  A    between atoms: N_3  and  C_4
REMARK    3  A    between atoms: C_4  and  N_6
REMARK    4  A    between atoms: N_6  and  C_7
REMARK                            x       y       z     vdW  Elec       q    Type
REMARK                         _______ _______ _______ _____ _____    ______ ____
ROOT
ATOM      1  C   UNL     1      34.562   6.682  37.642  0.00  0.00    +0.000 C 
ATOM      2  S   UNL     1      35.721   6.228  38.723  0.00  0.00    +0.000 S 
ENDROOT
BRANCH   1   5
ATOM      3  O   UNL     1      36.219   7.315  35.608  0.00  0.00    +0.000 OA
ATOM      4  C   UNL     1      35.530   8.262  36.061  0.00  0.00    +0.000 C 
ATOM      5  N   UNL     1      34.639   8.001  37.129  0.00  0.00    +0.000 NA
BRANCH   4   6
ATOM      6  C   UNL     1      35.705   9.594  35.435  0.00  0.00    +0.000 C 
ATOM      7  C   UNL     1      36.799  10.400  36.079  0.00  0.00    +0.000 C 
ATOM      8  C   UNL     1      36.391  11.836  35.948  0.00  0.00    +0.000 C 
ATOM      9  C   UNL     1      34.902  11.848  35.647  0.00  0.00    +0.000 C 
ATOM     10  C   UNL     1      34.461  10.403  35.697  0.00  0.00    +0.000 C 
ENDBRANCH   4   6
ENDBRANCH   1   5
BRANCH   1  11
ATOM     11  N   UNL     1      33.541   5.800  37.246  0.00  0.00    +0.000 NA
BRANCH  11  12
ATOM     12  C   UNL     1      33.581   5.031  36.068  0.00  0.00    +0.000 A 
ATOM     13  C   UNL     1      34.107   3.758  35.990  0.00  0.00    +0.000 A 
ATOM     14  C   UNL     1      34.119   3.047  34.805  0.00  0.00    +0.000 A 
ATOM     15  C   UNL     1      33.603   3.584  33.645  0.00  0.00    +0.000 A 
ATOM     16  O   UNL     1      33.626   2.851  32.459  0.00  0.00    +0.000 OA
ATOM     17  C   UNL     1      33.077   4.858  33.718  0.00  0.00    +0.000 A 
ATOM     18  C   UNL     1      33.063   5.573  34.909  0.00  0.00    +0.000 A 
ENDBRANCH  11  12
ENDBRANCH   1  11
TORSDOF 4
ENDMDL
MODEL 10
REMARK VINA RESULT:      -5.2     17.462     19.808
REMARK  Name = 
REMARK  4 active torsions:
REMARK  status: ('A' for Active; 'I' for Inactive)
REMARK    1  A    between atoms: C_2  and  C_14
REMARK    2  A    between atoms: N_3  and  C_4
REMARK    3  A    between atoms: C_4  and  N_6
REMARK    4  A    between atoms: N_6  and  C_7
REMARK                            x       y       z     vdW  Elec       q    Type
REMARK                         _______ _______ _______ _____ _____    ______ ____
ROOT
ATOM      1  C   UNL     1      29.864  23.102  30.196  0.00  0.00    +0.000 C 
ATOM      2  S   UNL     1      30.184  23.218  31.809  0.00  0.00    +0.000 S 
ENDROOT
BRANCH   1   5
ATOM      3  O   UNL     1      27.507  21.789  30.259  0.00  0.00    +0.000 OA
ATOM      4  C   UNL     1      27.466  22.955  29.794  0.00  0.00    +0.000 C 
ATOM      5  N   UNL     1      28.666  23.701  29.731  0.00  0.00    +0.000 NA
BRANCH   4   6
ATOM      6  C   UNL     1      26.149  23.464  29.341  0.00  0.00    +0.000 C 
ATOM      7  C   UNL     1      26.103  23.723  27.860  0.00  0.00    +0.000 C 
ATOM      8  C   UNL     1      25.150  24.862  27.666  0.00  0.00    +0.000 C 
ATOM      9  C   UNL     1      24.993  25.544  29.014  0.00  0.00    +0.000 C 
ATOM     10  C   UNL     1      25.938  24.826  29.950  0.00  0.00    +0.000 C 
ENDBRANCH   4   6
ENDBRANCH   1   5
BRANCH   1  11
ATOM     11  N   UNL     1      30.739  22.439  29.318  0.00  0.00    +0.000 NA
BRANCH  11  12
ATOM     12  C   UNL     1      30.796  22.681  27.933  0.00  0.00    +0.000 A 
ATOM     13  C   UNL     1      29.991  22.057  27.002  0.00  0.00    +0.000 A 
ATOM     14  C   UNL     1      30.090  22.334  25.653  0.00  0.00    +0.000 A 
ATOM     15  C   UNL     1      31.003  23.251  25.177  0.00  0.00    +0.000 A 
ATOM     16  O   UNL     1      31.088  23.516  23.810  0.00  0.00    +0.000 OA
ATOM     17  C   UNL     1      31.811  23.878  26.104  0.00  0.00    +0.000 A 
ATOM     18  C   UNL     1      31.711  23.600  27.462  0.00  0.00    +0.000 A 
ENDBRANCH  11  12
ENDBRANCH   1  11
TORSDOF 4
ENDMDL
