MODEL 1
REMARK VINA RESULT:      -8.9      0.000      0.000
REMARK  Name = 
REMARK  7 active torsions:
REMARK  status: ('A' for Active; 'I' for Inactive)
REMARK    1  A    between atoms: N_11  and  C_12
REMARK    2  A    between atoms: C_12  and  C_13
REMARK    3  A    between atoms: C_16  and  O_17
REMARK    4  A    between atoms: O_17  and  C_18
REMARK    5  A    between atoms: C_18  and  C_19
REMARK    6  A    between atoms: C_19  and  N_20
REMARK    7  A    between atoms: C_29  and  C_30
REMARK                            x       y       z     vdW  Elec       q    Type
REMARK                         _______ _______ _______ _____ _____    ______ ____
ROOT
ATOM      1  C   UNL     1      37.711  -0.686  18.951  0.00  0.00    +0.000 C 
ATOM      2  C   UNL     1      37.435  -1.867  18.054  0.00  0.00    +0.000 C 
ATOM      3  C   UNL     1      37.788  -3.157  18.675  0.00  0.00    +0.000 C 
ATOM      4  C   UNL     1      37.961  -1.725  16.709  0.00  0.00    +0.000 A 
ATOM      5  C   UNL     1      39.165  -2.147  16.198  0.00  0.00    +0.000 A 
ATOM      6  C   UNL     1      39.543  -1.930  14.885  0.00  0.00    +0.000 A 
ATOM      7  O   UNL     1      40.764  -2.361  14.373  0.00  0.00    +0.000 OA
ATOM      8  C   UNL     1      38.642  -1.258  14.089  0.00  0.00    +0.000 A 
ATOM      9  C   UNL     1      37.416  -0.827  14.605  0.00  0.00    +0.000 A 
ATOM     10  C   UNL     1      37.065  -1.054  15.910  0.00  0.00    +0.000 A 
ATOM     11  N   UNL     1      35.943  -0.736  16.643  0.00  0.00    +0.000 N 
ATOM     12  C   UNL     1      35.821  -1.852  17.787  0.00  0.00    +0.000 C 
ENDROOT
BRANCH  12  13
ATOM     13  C   UNL     1      35.736  -3.059  16.816  0.00  0.00    +0.000 A 
ATOM     14  C   UNL     1      34.804  -2.959  15.865  0.00  0.00    +0.000 A 
ATOM     15  C   UNL     1      34.595  -3.947  14.906  0.00  0.00    +0.000 A 
ATOM     16  C   UNL     1      35.378  -5.064  14.947  0.00  0.00    +0.000 A 
ATOM     17  C   UNL     1      36.354  -5.161  15.951  0.00  0.00    +0.000 A 
ATOM     18  C   UNL     1      36.521  -4.149  16.878  0.00  0.00    +0.000 A 
ENDBRANCH  12  13
BRANCH  11  19
ATOM     19  C   UNL     1      34.960   0.322  16.555  0.00  0.00    +0.000 C 
BRANCH  19  20
ATOM     20  C   UNL     1      35.598   1.596  16.197  0.00  0.00    +0.000 A 
ATOM     21  C   UNL     1      36.392   2.230  17.112  0.00  0.00    +0.000 A 
ATOM     22  C   UNL     1      37.022   3.449  16.835  0.00  0.00    +0.000 A 
ATOM     23  C   UNL     1      36.815   4.001  15.590  0.00  0.00    +0.000 A 
ATOM     24  C   UNL     1      36.025   3.392  14.645  0.00  0.00    +0.000 A 
ATOM     25  C   UNL     1      35.410   2.167  14.964  0.00  0.00    +0.000 A 
BRANCH  23  26
ATOM     26  O   UNL     1      37.408   5.205  15.250  0.00  0.00    +0.000 OA
BRANCH  26  27
ATOM     27  C   UNL     1      38.090   5.969  16.228  0.00  0.00    +0.000 C 
BRANCH  27  28
ATOM     28  C   UNL     1      39.569   5.647  16.169  0.00  0.00    +0.000 C 
BRANCH  28  29
ATOM     29  N   UNL     1      40.105   6.040  17.481  0.00  0.00    +0.000 NA
ATOM     30  C   UNL     1      40.474   7.449  17.301  0.00  0.00    +0.000 C 
ATOM     31  C   UNL     1      41.554   7.845  18.265  0.00  0.00    +0.000 C 
ATOM     32  C   UNL     1      42.030   6.680  19.104  0.00  0.00    +0.000 C 
ATOM     33  C   UNL     1      40.979   6.199  20.074  0.00  0.00    +0.000 C 
ATOM     34  C   UNL     1      39.597   6.698  19.721  0.00  0.00    +0.000 C 
ATOM     35  C   UNL     1      39.046   6.012  18.466  0.00  0.00    +0.000 C 
ENDBRANCH  28  29
ENDBRANCH  27  28
ENDBRANCH  26  27
ENDBRANCH  23  26
ENDBRANCH  19  20
ENDBRANCH  11  19
TORSDOF 7
ENDMDL
MODEL 2
REMARK VINA RESULT:      -8.9      1.396      3.190
REMARK  Name = 
REMARK  7 active torsions:
REMARK  status: ('A' for Active; 'I' for Inactive)
REMARK    1  A    between atoms: N_11  and  C_12
REMARK    2  A    between atoms: C_12  and  C_13
REMARK    3  A    between atoms: C_16  and  O_17
REMARK    4  A    between atoms: O_17  and  C_18
REMARK    5  A    between atoms: C_18  and  C_19
REMARK    6  A    between atoms: C_19  and  N_20
REMARK    7  A    between atoms: C_29  and  C_30
REMARK                            x       y       z     vdW  Elec       q    Type
REMARK                         _______ _______ _______ _____ _____    ______ ____
ROOT
ATOM      1  C   UNL     1      34.637  -3.833  15.767  0.00  0.00    +0.000 C 
ATOM      2  C   UNL     1      36.046  -3.392  15.455  0.00  0.00    +0.000 C 
ATOM      3  C   UNL     1      36.685  -4.206  14.404  0.00  0.00    +0.000 C 
ATOM      4  C   UNL     1      36.885  -3.221  16.626  0.00  0.00    +0.000 A 
ATOM      5  C   UNL     1      37.741  -4.117  17.220  0.00  0.00    +0.000 A 
ATOM      6  C   UNL     1      38.478  -3.818  18.352  0.00  0.00    +0.000 A 
ATOM      7  O   UNL     1      39.344  -4.731  18.949  0.00  0.00    +0.000 OA
ATOM      8  C   UNL     1      38.317  -2.553  18.873  0.00  0.00    +0.000 A 
ATOM      9  C   UNL     1      37.448  -1.638  18.271  0.00  0.00    +0.000 A 
ATOM     10  C   UNL     1      36.729  -1.959  17.150  0.00  0.00    +0.000 A 
ATOM     11  N   UNL     1      35.824  -1.253  16.388  0.00  0.00    +0.000 N 
ATOM     12  C   UNL     1      35.916  -1.856  14.905  0.00  0.00    +0.000 C 
ENDROOT
BRANCH  12  13
ATOM     13  C   UNL     1      37.426  -1.554  14.709  0.00  0.00    +0.000 A 
ATOM     14  C   UNL     1      38.043  -2.312  13.798  0.00  0.00    +0.000 A 
ATOM     15  C   UNL     1      39.394  -2.173  13.490  0.00  0.00    +0.000 A 
ATOM     16  C   UNL     1      40.112  -1.219  14.153  0.00  0.00    +0.000 A 
ATOM     17  C   UNL     1      39.456  -0.429  15.108  0.00  0.00    +0.000 A 
ATOM     18  C   UNL     1      38.111  -0.608  15.375  0.00  0.00    +0.000 A 
ENDBRANCH  12  13
BRANCH  11  19
ATOM     19  C   UNL     1      34.910  -0.169  16.673  0.00  0.00    +0.000 C 
BRANCH  19  20
ATOM     20  C   UNL     1      35.509   1.124  16.314  0.00  0.00    +0.000 A 
ATOM     21  C   UNL     1      35.352   1.609  15.045  0.00  0.00    +0.000 A 
ATOM     22  C   UNL     1      35.903   2.829  14.641  0.00  0.00    +0.000 A 
ATOM     23  C   UNL     1      36.620   3.543  15.575  0.00  0.00    +0.000 A 
ATOM     24  C   UNL     1      36.797   3.088  16.860  0.00  0.00    +0.000 A 
ATOM     25  C   UNL     1      36.227   1.855  17.226  0.00  0.00    +0.000 A 
BRANCH  23  26
ATOM     26  O   UNL     1      37.192   4.759  15.241  0.00  0.00    +0.000 OA
BRANCH  26  27
ATOM     27  C   UNL     1      38.404   5.172  15.846  0.00  0.00    +0.000 C 
BRANCH  27  28
ATOM     28  C   UNL     1      38.363   6.669  16.071  0.00  0.00    +0.000 C 
BRANCH  28  29
ATOM     29  N   UNL     1      38.910   6.874  17.421  0.00  0.00    +0.000 NA
ATOM     30  C   UNL     1      40.359   6.947  17.205  0.00  0.00    +0.000 C 
ATOM     31  C   UNL     1      41.104   6.548  18.445  0.00  0.00    +0.000 C 
ATOM     32  C   UNL     1      40.177   6.102  19.554  0.00  0.00    +0.000 C 
ATOM     33  C   UNL     1      39.347   7.236  20.102  0.00  0.00    +0.000 C 
ATOM     34  C   UNL     1      39.326   8.434  19.182  0.00  0.00    +0.000 C 
ATOM     35  C   UNL     1      38.500   8.169  17.919  0.00  0.00    +0.000 C 
ENDBRANCH  28  29
ENDBRANCH  27  28
ENDBRANCH  26  27
ENDBRANCH  23  26
ENDBRANCH  19  20
ENDBRANCH  11  19
TORSDOF 7
ENDMDL
MODEL 3
REMARK VINA RESULT:      -8.9      1.510      3.155
REMARK  Name = 
REMARK  7 active torsions:
REMARK  status: ('A' for Active; 'I' for Inactive)
REMARK    1  A    between atoms: N_11  and  C_12
REMARK    2  A    between atoms: C_12  and  C_13
REMARK    3  A    between atoms: C_16  and  O_17
REMARK    4  A    between atoms: O_17  and  C_18
REMARK    5  A    between atoms: C_18  and  C_19
REMARK    6  A    between atoms: C_19  and  N_20
REMARK    7  A    between atoms: C_29  and  C_30
REMARK                            x       y       z     vdW  Elec       q    Type
REMARK                         _______ _______ _______ _____ _____    ______ ____
ROOT
ATOM      1  C   UNL     1      36.769  -0.191  13.551  0.00  0.00    +0.000 C 
ATOM      2  C   UNL     1      37.241  -1.118  14.643  0.00  0.00    +0.000 C 
ATOM      3  C   UNL     1      38.575  -1.689  14.376  0.00  0.00    +0.000 C 
ATOM      4  C   UNL     1      36.266  -2.120  15.031  0.00  0.00    +0.000 A 
ATOM      5  C   UNL     1      36.113  -3.407  14.576  0.00  0.00    +0.000 A 
ATOM      6  C   UNL     1      35.120  -4.255  15.033  0.00  0.00    +0.000 A 
ATOM      7  O   UNL     1      34.971  -5.559  14.567  0.00  0.00    +0.000 OA
ATOM      8  C   UNL     1      34.269  -3.745  15.988  0.00  0.00    +0.000 A 
ATOM      9  C   UNL     1      34.421  -2.436  16.455  0.00  0.00    +0.000 A 
ATOM     10  C   UNL     1      35.413  -1.616  15.986  0.00  0.00    +0.000 A 
ATOM     11  N   UNL     1      35.764  -0.316  16.276  0.00  0.00    +0.000 N 
ATOM     12  C   UNL     1      37.337  -0.199  15.992  0.00  0.00    +0.000 C 
ENDROOT
BRANCH  12  13
ATOM     13  C   UNL     1      37.757  -1.306  16.995  0.00  0.00    +0.000 A 
ATOM     14  C   UNL     1      37.206  -1.213  18.208  0.00  0.00    +0.000 A 
ATOM     15  C   UNL     1      37.466  -2.124  19.229  0.00  0.00    +0.000 A 
ATOM     16  C   UNL     1      38.323  -3.155  18.971  0.00  0.00    +0.000 A 
ATOM     17  C   UNL     1      38.898  -3.245  17.694  0.00  0.00    +0.000 A 
ATOM     18  C   UNL     1      38.604  -2.312  16.716  0.00  0.00    +0.000 A 
ENDBRANCH  12  13
BRANCH  11  19
ATOM     19  C   UNL     1      35.026   0.835  16.750  0.00  0.00    +0.000 C 
BRANCH  19  20
ATOM     20  C   UNL     1      35.607   2.078  16.225  0.00  0.00    +0.000 A 
ATOM     21  C   UNL     1      35.105   2.622  15.075  0.00  0.00    +0.000 A 
ATOM     22  C   UNL     1      35.619   3.799  14.522  0.00  0.00    +0.000 A 
ATOM     23  C   UNL     1      36.666   4.407  15.181  0.00  0.00    +0.000 A 
ATOM     24  C   UNL     1      37.195   3.889  16.339  0.00  0.00    +0.000 A 
ATOM     25  C   UNL     1      36.649   2.703  16.862  0.00  0.00    +0.000 A 
BRANCH  23  26
ATOM     26  O   UNL     1      37.221   5.575  14.688  0.00  0.00    +0.000 OA
BRANCH  26  27
ATOM     27  C   UNL     1      38.375   6.130  15.291  0.00  0.00    +0.000 C 
BRANCH  27  28
ATOM     28  C   UNL     1      37.955   7.190  16.288  0.00  0.00    +0.000 C 
BRANCH  28  29
ATOM     29  N   UNL     1      38.856   7.021  17.439  0.00  0.00    +0.000 NA
ATOM     30  C   UNL     1      39.889   8.041  17.228  0.00  0.00    +0.000 C 
ATOM     31  C   UNL     1      41.170   7.650  17.906  0.00  0.00    +0.000 C 
ATOM     32  C   UNL     1      41.084   6.285  18.553  0.00  0.00    +0.000 C 
ATOM     33  C   UNL     1      40.147   6.265  19.735  0.00  0.00    +0.000 C 
ATOM     34  C   UNL     1      39.222   7.459  19.759  0.00  0.00    +0.000 C 
ATOM     35  C   UNL     1      38.161   7.381  18.656  0.00  0.00    +0.000 C 
ENDBRANCH  28  29
ENDBRANCH  27  28
ENDBRANCH  26  27
ENDBRANCH  23  26
ENDBRANCH  19  20
ENDBRANCH  11  19
TORSDOF 7
ENDMDL
MODEL 4
REMARK VINA RESULT:      -8.7      2.754      4.818
REMARK  Name = 
REMARK  7 active torsions:
REMARK  status: ('A' for Active; 'I' for Inactive)
REMARK    1  A    between atoms: N_11  and  C_12
REMARK    2  A    between atoms: C_12  and  C_13
REMARK    3  A    between atoms: C_16  and  O_17
REMARK    4  A    between atoms: O_17  and  C_18
REMARK    5  A    between atoms: C_18  and  C_19
REMARK    6  A    between atoms: C_19  and  N_20
REMARK    7  A    between atoms: C_29  and  C_30
REMARK                            x       y       z     vdW  Elec       q    Type
REMARK                         _______ _______ _______ _____ _____    ______ ____
ROOT
ATOM      1  C   UNL     1      36.734  -0.098  13.631  0.00  0.00    +0.000 C 
ATOM      2  C   UNL     1      37.212  -1.086  14.666  0.00  0.00    +0.000 C 
ATOM      3  C   UNL     1      38.503  -1.707  14.315  0.00  0.00    +0.000 C 
ATOM      4  C   UNL     1      36.210  -2.056  15.066  0.00  0.00    +0.000 A 
ATOM      5  C   UNL     1      35.975  -3.317  14.573  0.00  0.00    +0.000 A 
ATOM      6  C   UNL     1      34.965  -4.135  15.048  0.00  0.00    +0.000 A 
ATOM      7  O   UNL     1      34.733  -5.412  14.544  0.00  0.00    +0.000 OA
ATOM      8  C   UNL     1      34.185  -3.623  16.061  0.00  0.00    +0.000 A 
ATOM      9  C   UNL     1      34.421  -2.340  16.566  0.00  0.00    +0.000 A 
ATOM     10  C   UNL     1      35.427  -1.550  16.078  0.00  0.00    +0.000 A 
ATOM     11  N   UNL     1      35.853  -0.279  16.396  0.00  0.00    +0.000 N 
ATOM     12  C   UNL     1      37.415  -0.224  16.041  0.00  0.00    +0.000 C 
ENDROOT
BRANCH  12  13
ATOM     13  C   UNL     1      37.828  -1.386  16.983  0.00  0.00    +0.000 A 
ATOM     14  C   UNL     1      37.352  -1.305  18.228  0.00  0.00    +0.000 A 
ATOM     15  C   UNL     1      37.617  -2.263  19.203  0.00  0.00    +0.000 A 
ATOM     16  C   UNL     1      38.400  -3.329  18.863  0.00  0.00    +0.000 A 
ATOM     17  C   UNL     1      38.897  -3.406  17.553  0.00  0.00    +0.000 A 
ATOM     18  C   UNL     1      38.601  -2.426  16.624  0.00  0.00    +0.000 A 
ENDBRANCH  12  13
BRANCH  11  19
ATOM     19  C   UNL     1      35.194   0.886  16.945  0.00  0.00    +0.000 C 
BRANCH  19  20
ATOM     20  C   UNL     1      35.612   2.103  16.237  0.00  0.00    +0.000 A 
ATOM     21  C   UNL     1      36.662   2.834  16.719  0.00  0.00    +0.000 A 
ATOM     22  C   UNL     1      37.104   4.005  16.094  0.00  0.00    +0.000 A 
ATOM     23  C   UNL     1      36.438   4.408  14.957  0.00  0.00    +0.000 A 
ATOM     24  C   UNL     1      35.380   3.698  14.443  0.00  0.00    +0.000 A 
ATOM     25  C   UNL     1      34.967   2.526  15.102  0.00  0.00    +0.000 A 
BRANCH  23  26
ATOM     26  O   UNL     1      36.824   5.558  14.290  0.00  0.00    +0.000 OA
BRANCH  26  27
ATOM     27  C   UNL     1      37.803   6.415  14.847  0.00  0.00    +0.000 C 
BRANCH  27  28
ATOM     28  C   UNL     1      37.318   7.848  14.759  0.00  0.00    +0.000 C 
BRANCH  28  29
ATOM     29  N   UNL     1      36.034   7.781  14.045  0.00  0.00    +0.000 NA
ATOM     30  C   UNL     1      35.108   8.509  14.919  0.00  0.00    +0.000 C 
ATOM     31  C   UNL     1      33.696   8.050  14.701  0.00  0.00    +0.000 C 
ATOM     32  C   UNL     1      33.609   6.913  13.707  0.00  0.00    +0.000 C 
ATOM     33  C   UNL     1      33.962   7.344  12.305  0.00  0.00    +0.000 C 
ATOM     34  C   UNL     1      34.695   8.664  12.275  0.00  0.00    +0.000 C 
ATOM     35  C   UNL     1      36.123   8.537  12.815  0.00  0.00    +0.000 C 
ENDBRANCH  28  29
ENDBRANCH  27  28
ENDBRANCH  26  27
ENDBRANCH  23  26
ENDBRANCH  19  20
ENDBRANCH  11  19
TORSDOF 7
ENDMDL
MODEL 5
REMARK VINA RESULT:      -8.4      1.924      3.617
REMARK  Name = 
REMARK  7 active torsions:
REMARK  status: ('A' for Active; 'I' for Inactive)
REMARK    1  A    between atoms: N_11  and  C_12
REMARK    2  A    between atoms: C_12  and  C_13
REMARK    3  A    between atoms: C_16  and  O_17
REMARK    4  A    between atoms: O_17  and  C_18
REMARK    5  A    between atoms: C_18  and  C_19
REMARK    6  A    between atoms: C_19  and  N_20
REMARK    7  A    between atoms: C_29  and  C_30
REMARK                            x       y       z     vdW  Elec       q    Type
REMARK                         _______ _______ _______ _____ _____    ______ ____
ROOT
ATOM      1  C   UNL     1      39.001  -2.529  13.780  0.00  0.00    +0.000 C 
ATOM      2  C   UNL     1      38.577  -2.605  15.226  0.00  0.00    +0.000 C 
ATOM      3  C   UNL     1      39.619  -3.171  16.102  0.00  0.00    +0.000 C 
ATOM      4  C   UNL     1      37.276  -3.214  15.430  0.00  0.00    +0.000 A 
ATOM      5  C   UNL     1      36.961  -4.523  15.701  0.00  0.00    +0.000 A 
ATOM      6  C   UNL     1      35.662  -4.968  15.862  0.00  0.00    +0.000 A 
ATOM      7  O   UNL     1      35.350  -6.298  16.137  0.00  0.00    +0.000 OA
ATOM      8  C   UNL     1      34.669  -4.022  15.736  0.00  0.00    +0.000 A 
ATOM      9  C   UNL     1      34.984  -2.688  15.461  0.00  0.00    +0.000 A 
ATOM     10  C   UNL     1      36.280  -2.273  15.306  0.00  0.00    +0.000 A 
ATOM     11  N   UNL     1      36.839  -1.043  15.034  0.00  0.00    +0.000 N 
ATOM     12  C   UNL     1      38.303  -1.059  15.687  0.00  0.00    +0.000 C 
ENDROOT
BRANCH  12  13
ATOM     13  C   UNL     1      37.822  -1.334  17.137  0.00  0.00    +0.000 A 
ATOM     14  C   UNL     1      38.606  -2.146  17.851  0.00  0.00    +0.000 A 
ATOM     15  C   UNL     1      38.329  -2.495  19.171  0.00  0.00    +0.000 A 
ATOM     16  C   UNL     1      37.205  -1.982  19.752  0.00  0.00    +0.000 A 
ATOM     17  C   UNL     1      36.387  -1.131  18.993  0.00  0.00    +0.000 A 
ATOM     18  C   UNL     1      36.709  -0.816  17.687  0.00  0.00    +0.000 A 
ENDBRANCH  12  13
BRANCH  11  19
ATOM     19  C   UNL     1      36.370   0.134  14.336  0.00  0.00    +0.000 C 
BRANCH  19  20
ATOM     20  C   UNL     1      36.783   1.355  15.042  0.00  0.00    +0.000 A 
ATOM     21  C   UNL     1      37.918   2.007  14.648  0.00  0.00    +0.000 A 
ATOM     22  C   UNL     1      38.367   3.170  15.283  0.00  0.00    +0.000 A 
ATOM     23  C   UNL     1      37.618   3.649  16.335  0.00  0.00    +0.000 A 
ATOM     24  C   UNL     1      36.471   3.020  16.758  0.00  0.00    +0.000 A 
ATOM     25  C   UNL     1      36.054   1.853  16.092  0.00  0.00    +0.000 A 
BRANCH  23  26
ATOM     26  O   UNL     1      38.005   4.795  17.007  0.00  0.00    +0.000 OA
BRANCH  26  27
ATOM     27  C   UNL     1      38.650   4.706  18.265  0.00  0.00    +0.000 C 
BRANCH  27  28
ATOM     28  C   UNL     1      39.815   5.673  18.297  0.00  0.00    +0.000 C 
BRANCH  28  29
ATOM     29  N   UNL     1      39.221   6.989  18.577  0.00  0.00    +0.000 NA
ATOM     30  C   UNL     1      39.577   7.244  19.977  0.00  0.00    +0.000 C 
ATOM     31  C   UNL     1      38.597   8.185  20.614  0.00  0.00    +0.000 C 
ATOM     32  C   UNL     1      37.466   8.556  19.680  0.00  0.00    +0.000 C 
ATOM     33  C   UNL     1      37.929   9.405  18.523  0.00  0.00    +0.000 C 
ATOM     34  C   UNL     1      39.427   9.356  18.333  0.00  0.00    +0.000 C 
ATOM     35  C   UNL     1      39.889   8.001  17.789  0.00  0.00    +0.000 C 
ENDBRANCH  28  29
ENDBRANCH  27  28
ENDBRANCH  26  27
ENDBRANCH  23  26
ENDBRANCH  19  20
ENDBRANCH  11  19
TORSDOF 7
ENDMDL
MODEL 6
REMARK VINA RESULT:      -8.3      3.387      5.897
REMARK  Name = 
REMARK  7 active torsions:
REMARK  status: ('A' for Active; 'I' for Inactive)
REMARK    1  A    between atoms: N_11  and  C_12
REMARK    2  A    between atoms: C_12  and  C_13
REMARK    3  A    between atoms: C_16  and  O_17
REMARK    4  A    between atoms: O_17  and  C_18
REMARK    5  A    between atoms: C_18  and  C_19
REMARK    6  A    between atoms: C_19  and  N_20
REMARK    7  A    between atoms: C_29  and  C_30
REMARK                            x       y       z     vdW  Elec       q    Type
REMARK                         _______ _______ _______ _____ _____    ______ ____
ROOT
ATOM      1  C   UNL     1      36.816  -0.089  13.718  0.00  0.00    +0.000 C 
ATOM      2  C   UNL     1      37.223  -1.210  14.643  0.00  0.00    +0.000 C 
ATOM      3  C   UNL     1      38.213  -2.122  14.040  0.00  0.00    +0.000 C 
ATOM      4  C   UNL     1      36.107  -1.910  15.250  0.00  0.00    +0.000 A 
ATOM      5  C   UNL     1      35.461  -3.048  14.830  0.00  0.00    +0.000 A 
ATOM      6  C   UNL     1      34.393  -3.604  15.511  0.00  0.00    +0.000 A 
ATOM      7  O   UNL     1      33.744  -4.757  15.079  0.00  0.00    +0.000 OA
ATOM      8  C   UNL     1      33.991  -2.954  16.657  0.00  0.00    +0.000 A 
ATOM      9  C   UNL     1      34.645  -1.796  17.089  0.00  0.00    +0.000 A 
ATOM     10  C   UNL     1      35.701  -1.266  16.396  0.00  0.00    +0.000 A 
ATOM     11  N   UNL     1      36.493  -0.159  16.607  0.00  0.00    +0.000 N 
ATOM     12  C   UNL     1      37.913  -0.487  15.937  0.00  0.00    +0.000 C 
ENDROOT
BRANCH  12  13
ATOM     13  C   UNL     1      38.195  -1.755  16.786  0.00  0.00    +0.000 A 
ATOM     14  C   UNL     1      37.982  -1.619  18.098  0.00  0.00    +0.000 A 
ATOM     15  C   UNL     1      38.179  -2.656  19.006  0.00  0.00    +0.000 A 
ATOM     16  C   UNL     1      38.608  -3.861  18.528  0.00  0.00    +0.000 A 
ATOM     17  C   UNL     1      38.829  -3.994  17.148  0.00  0.00    +0.000 A 
ATOM     18  C   UNL     1      38.617  -2.931  16.290  0.00  0.00    +0.000 A 
ENDBRANCH  12  13
BRANCH  11  19
ATOM     19  C   UNL     1      36.280   1.110  17.267  0.00  0.00    +0.000 C 
BRANCH  19  20
ATOM     20  C   UNL     1      36.047   2.176  16.284  0.00  0.00    +0.000 A 
ATOM     21  C   UNL     1      37.097   2.950  15.872  0.00  0.00    +0.000 A 
ATOM     22  C   UNL     1      36.939   3.985  14.943  0.00  0.00    +0.000 A 
ATOM     23  C   UNL     1      35.673   4.205  14.446  0.00  0.00    +0.000 A 
ATOM     24  C   UNL     1      34.596   3.446  14.836  0.00  0.00    +0.000 A 
ATOM     25  C   UNL     1      34.797   2.415  15.773  0.00  0.00    +0.000 A 
BRANCH  23  26
ATOM     26  O   UNL     1      35.447   5.212  13.524  0.00  0.00    +0.000 OA
BRANCH  26  27
ATOM     27  C   UNL     1      36.443   5.554  12.577  0.00  0.00    +0.000 C 
BRANCH  27  28
ATOM     28  C   UNL     1      35.778   6.072  11.320  0.00  0.00    +0.000 C 
BRANCH  28  29
ATOM     29  N   UNL     1      36.099   5.088  10.275  0.00  0.00    +0.000 NA
ATOM     30  C   UNL     1      36.451   5.911   9.113  0.00  0.00    +0.000 C 
ATOM     31  C   UNL     1      36.218   5.159   7.836  0.00  0.00    +0.000 C 
ATOM     32  C   UNL     1      35.610   3.794   8.076  0.00  0.00    +0.000 C 
ATOM     33  C   UNL     1      36.565   2.851   8.763  0.00  0.00    +0.000 C 
ATOM     34  C   UNL     1      37.727   3.571   9.405  0.00  0.00    +0.000 C 
ATOM     35  C   UNL     1      37.294   4.360  10.645  0.00  0.00    +0.000 C 
ENDBRANCH  28  29
ENDBRANCH  27  28
ENDBRANCH  26  27
ENDBRANCH  23  26
ENDBRANCH  19  20
ENDBRANCH  11  19
TORSDOF 7
ENDMDL
MODEL 7
REMARK VINA RESULT:      -8.3      2.266      8.098
REMARK  Name = 
REMARK  7 active torsions:
REMARK  status: ('A' for Active; 'I' for Inactive)
REMARK    1  A    between atoms: N_11  and  C_12
REMARK    2  A    between atoms: C_12  and  C_13
REMARK    3  A    between atoms: C_16  and  O_17
REMARK    4  A    between atoms: O_17  and  C_18
REMARK    5  A    between atoms: C_18  and  C_19
REMARK    6  A    between atoms: C_19  and  N_20
REMARK    7  A    between atoms: C_29  and  C_30
REMARK                            x       y       z     vdW  Elec       q    Type
REMARK                         _______ _______ _______ _____ _____    ______ ____
ROOT
ATOM      1  C   UNL     1      35.199   1.831  14.295  0.00  0.00    +0.000 C 
ATOM      2  C   UNL     1      36.007   2.961  14.884  0.00  0.00    +0.000 C 
ATOM      3  C   UNL     1      35.539   3.367  16.222  0.00  0.00    +0.000 C 
ATOM      4  C   UNL     1      36.193   4.085  13.986  0.00  0.00    +0.000 A 
ATOM      5  C   UNL     1      35.448   5.234  13.864  0.00  0.00    +0.000 A 
ATOM      6  C   UNL     1      35.739   6.227  12.947  0.00  0.00    +0.000 A 
ATOM      7  O   UNL     1      34.979   7.388  12.829  0.00  0.00    +0.000 OA
ATOM      8  C   UNL     1      36.834   6.014  12.138  0.00  0.00    +0.000 A 
ATOM      9  C   UNL     1      37.595   4.848  12.258  0.00  0.00    +0.000 A 
ATOM     10  C   UNL     1      37.286   3.879  13.176  0.00  0.00    +0.000 A 
ATOM     11  N   UNL     1      37.863   2.666  13.482  0.00  0.00    +0.000 N 
ATOM     12  C   UNL     1      37.532   2.387  15.026  0.00  0.00    +0.000 C 
ENDROOT
BRANCH  12  13
ATOM     13  C   UNL     1      38.213   3.673  15.565  0.00  0.00    +0.000 A 
ATOM     14  C   UNL     1      39.329   4.035  14.927  0.00  0.00    +0.000 A 
ATOM     15  C   UNL     1      40.065   5.165  15.274  0.00  0.00    +0.000 A 
ATOM     16  C   UNL     1      39.620   5.932  16.312  0.00  0.00    +0.000 A 
ATOM     17  C   UNL     1      38.446   5.544  16.976  0.00  0.00    +0.000 A 
ATOM     18  C   UNL     1      37.754   4.412  16.590  0.00  0.00    +0.000 A 
ENDBRANCH  12  13
BRANCH  11  19
ATOM     19  C   UNL     1      38.640   1.711  12.724  0.00  0.00    +0.000 C 
BRANCH  19  20
ATOM     20  C   UNL     1      38.680   0.412  13.409  0.00  0.00    +0.000 A 
ATOM     21  C   UNL     1      39.642   0.180  14.353  0.00  0.00    +0.000 A 
ATOM     22  C   UNL     1      39.737  -1.038  15.035  0.00  0.00    +0.000 A 
ATOM     23  C   UNL     1      38.817  -2.015  14.723  0.00  0.00    +0.000 A 
ATOM     24  C   UNL     1      37.836  -1.817  13.780  0.00  0.00    +0.000 A 
ATOM     25  C   UNL     1      37.776  -0.577  13.117  0.00  0.00    +0.000 A 
BRANCH  23  26
ATOM     26  O   UNL     1      38.854  -3.243  15.360  0.00  0.00    +0.000 OA
BRANCH  26  27
ATOM     27  C   UNL     1      39.245  -3.334  16.718  0.00  0.00    +0.000 C 
BRANCH  27  28
ATOM     28  C   UNL     1      38.037  -3.687  17.561  0.00  0.00    +0.000 C 
BRANCH  28  29
ATOM     29  N   UNL     1      37.247  -2.450  17.647  0.00  0.00    +0.000 NA
ATOM     30  C   UNL     1      35.893  -2.871  17.271  0.00  0.00    +0.000 C 
ATOM     31  C   UNL     1      35.110  -1.717  16.718  0.00  0.00    +0.000 C 
ATOM     32  C   UNL     1      35.939  -0.455  16.618  0.00  0.00    +0.000 C 
ATOM     33  C   UNL     1      36.304   0.103  17.972  0.00  0.00    +0.000 C 
ATOM     34  C   UNL     1      36.121  -0.906  19.081  0.00  0.00    +0.000 C 
ATOM     35  C   UNL     1      37.177  -2.014  19.025  0.00  0.00    +0.000 C 
ENDBRANCH  28  29
ENDBRANCH  27  28
ENDBRANCH  26  27
ENDBRANCH  23  26
ENDBRANCH  19  20
ENDBRANCH  11  19
TORSDOF 7
ENDMDL
MODEL 8
REMARK VINA RESULT:      -8.3      2.551      3.980
REMARK  Name = 
REMARK  7 active torsions:
REMARK  status: ('A' for Active; 'I' for Inactive)
REMARK    1  A    between atoms: N_11  and  C_12
REMARK    2  A    between atoms: C_12  and  C_13
REMARK    3  A    between atoms: C_16  and  O_17
REMARK    4  A    between atoms: O_17  and  C_18
REMARK    5  A    between atoms: C_18  and  C_19
REMARK    6  A    between atoms: C_19  and  N_20
REMARK    7  A    between atoms: C_29  and  C_30
REMARK                            x       y       z     vdW  Elec       q    Type
REMARK                         _______ _______ _______ _____ _____    ______ ____
ROOT
ATOM      1  C   UNL     1      37.691  -0.641  18.927  0.00  0.00    +0.000 C 
ATOM      2  C   UNL     1      37.426  -1.825  18.031  0.00  0.00    +0.000 C 
ATOM      3  C   UNL     1      37.794  -3.111  18.653  0.00  0.00    +0.000 C 
ATOM      4  C   UNL     1      37.951  -1.679  16.686  0.00  0.00    +0.000 A 
ATOM      5  C   UNL     1      39.158  -2.089  16.174  0.00  0.00    +0.000 A 
ATOM      6  C   UNL     1      39.534  -1.869  14.861  0.00  0.00    +0.000 A 
ATOM      7  O   UNL     1      40.759  -2.287  14.349  0.00  0.00    +0.000 OA
ATOM      8  C   UNL     1      38.625  -1.207  14.065  0.00  0.00    +0.000 A 
ATOM      9  C   UNL     1      37.395  -0.789  14.581  0.00  0.00    +0.000 A 
ATOM     10  C   UNL     1      37.047  -1.018  15.886  0.00  0.00    +0.000 A 
ATOM     11  N   UNL     1      35.922  -0.711  16.620  0.00  0.00    +0.000 N 
ATOM     12  C   UNL     1      35.812  -1.827  17.765  0.00  0.00    +0.000 C 
ENDROOT
BRANCH  12  13
ATOM     13  C   UNL     1      35.740  -3.037  16.796  0.00  0.00    +0.000 A 
ATOM     14  C   UNL     1      34.826  -2.934  15.827  0.00  0.00    +0.000 A 
ATOM     15  C   UNL     1      34.629  -3.923  14.867  0.00  0.00    +0.000 A 
ATOM     16  C   UNL     1      35.407  -5.043  14.925  0.00  0.00    +0.000 A 
ATOM     17  C   UNL     1      36.365  -5.142  15.946  0.00  0.00    +0.000 A 
ATOM     18  C   UNL     1      36.519  -4.130  16.874  0.00  0.00    +0.000 A 
ENDBRANCH  12  13
BRANCH  11  19
ATOM     19  C   UNL     1      34.928   0.336  16.531  0.00  0.00    +0.000 C 
BRANCH  19  20
ATOM     20  C   UNL     1      35.556   1.622  16.196  0.00  0.00    +0.000 A 
ATOM     21  C   UNL     1      35.319   2.186  14.973  0.00  0.00    +0.000 A 
ATOM     22  C   UNL     1      35.892   3.404  14.592  0.00  0.00    +0.000 A 
ATOM     23  C   UNL     1      36.716   4.031  15.501  0.00  0.00    +0.000 A 
ATOM     24  C   UNL     1      36.975   3.494  16.739  0.00  0.00    +0.000 A 
ATOM     25  C   UNL     1      36.380   2.267  17.083  0.00  0.00    +0.000 A 
BRANCH  23  26
ATOM     26  O   UNL     1      37.315   5.239  15.187  0.00  0.00    +0.000 OA
BRANCH  26  27
ATOM     27  C   UNL     1      37.662   5.540  13.848  0.00  0.00    +0.000 C 
BRANCH  27  28
ATOM     28  C   UNL     1      37.496   7.027  13.613  0.00  0.00    +0.000 C 
BRANCH  28  29
ATOM     29  N   UNL     1      36.094   7.202  13.206  0.00  0.00    +0.000 NA
ATOM     30  C   UNL     1      35.580   8.208  14.143  0.00  0.00    +0.000 C 
ATOM     31  C   UNL     1      34.092   8.080  14.300  0.00  0.00    +0.000 C 
ATOM     32  C   UNL     1      33.531   6.909  13.522  0.00  0.00    +0.000 C 
ATOM     33  C   UNL     1      33.620   7.113  12.030  0.00  0.00    +0.000 C 
ATOM     34  C   UNL     1      34.585   8.212  11.653  0.00  0.00    +0.000 C 
ATOM     35  C   UNL     1      36.041   7.799  11.889  0.00  0.00    +0.000 C 
ENDBRANCH  28  29
ENDBRANCH  27  28
ENDBRANCH  26  27
ENDBRANCH  23  26
ENDBRANCH  19  20
ENDBRANCH  11  19
TORSDOF 7
ENDMDL
MODEL 9
REMARK VINA RESULT:      -8.0      4.061      7.189
REMARK  Name = 
REMARK  7 active torsions:
REMARK  status: ('A' for Active; 'I' for Inactive)
REMARK    1  A    between atoms: N_11  and  C_12
REMARK    2  A    between atoms: C_12  and  C_13
REMARK    3  A    between atoms: C_16  and  O_17
REMARK    4  A    between atoms: O_17  and  C_18
REMARK    5  A    between atoms: C_18  and  C_19
REMARK    6  A    between atoms: C_19  and  N_20
REMARK    7  A    between atoms: C_29  and  C_30
REMARK                            x       y       z     vdW  Elec       q    Type
REMARK                         _______ _______ _______ _____ _____    ______ ____
ROOT
ATOM      1  C   UNL     1      37.428  -3.483  13.452  0.00  0.00    +0.000 C 
ATOM      2  C   UNL     1      36.933  -2.765  14.683  0.00  0.00    +0.000 C 
ATOM      3  C   UNL     1      35.520  -3.057  14.990  0.00  0.00    +0.000 C 
ATOM      4  C   UNL     1      37.233  -1.346  14.701  0.00  0.00    +0.000 A 
ATOM      5  C   UNL     1      36.462  -0.289  14.283  0.00  0.00    +0.000 A 
ATOM      6  C   UNL     1      36.886   1.026  14.350  0.00  0.00    +0.000 A 
ATOM      7  O   UNL     1      36.099   2.093  13.924  0.00  0.00    +0.000 OA
ATOM      8  C   UNL     1      38.144   1.240  14.869  0.00  0.00    +0.000 A 
ATOM      9  C   UNL     1      38.932   0.167  15.297  0.00  0.00    +0.000 A 
ATOM     10  C   UNL     1      38.489  -1.126  15.219  0.00  0.00    +0.000 A 
ATOM     11  N   UNL     1      39.062  -2.331  15.563  0.00  0.00    +0.000 N 
ATOM     12  C   UNL     1      37.852  -3.321  15.918  0.00  0.00    +0.000 C 
ENDROOT
BRANCH  12  13
ATOM     13  C   UNL     1      37.263  -2.444  17.055  0.00  0.00    +0.000 A 
ATOM     14  C   UNL     1      38.125  -2.110  18.019  0.00  0.00    +0.000 A 
ATOM     15  C   UNL     1      37.769  -1.323  19.111  0.00  0.00    +0.000 A 
ATOM     16  C   UNL     1      36.482  -0.878  19.194  0.00  0.00    +0.000 A 
ATOM     17  C   UNL     1      35.583  -1.234  18.177  0.00  0.00    +0.000 A 
ATOM     18  C   UNL     1      35.989  -2.017  17.113  0.00  0.00    +0.000 A 
ENDBRANCH  12  13
BRANCH  11  19
ATOM     19  C   UNL     1      40.428  -2.796  15.654  0.00  0.00    +0.000 C 
BRANCH  19  20
ATOM     20  C   UNL     1      41.164  -2.494  14.418  0.00  0.00    +0.000 A 
ATOM     21  C   UNL     1      42.118  -1.515  14.426  0.00  0.00    +0.000 A 
ATOM     22  C   UNL     1      42.847  -1.176  13.281  0.00  0.00    +0.000 A 
ATOM     23  C   UNL     1      42.572  -1.872  12.124  0.00  0.00    +0.000 A 
ATOM     24  C   UNL     1      41.621  -2.863  12.080  0.00  0.00    +0.000 A 
ATOM     25  C   UNL     1      40.910  -3.172  13.253  0.00  0.00    +0.000 A 
BRANCH  23  26
ATOM     26  O   UNL     1      43.257  -1.587  10.956  0.00  0.00    +0.000 OA
BRANCH  26  27
ATOM     27  C   UNL     1      42.679  -1.878   9.697  0.00  0.00    +0.000 C 
BRANCH  27  28
ATOM     28  C   UNL     1      42.303  -0.582   9.010  0.00  0.00    +0.000 C 
BRANCH  28  29
ATOM     29  N   UNL     1      41.130  -0.080   9.741  0.00  0.00    +0.000 NA
ATOM     30  C   UNL     1      41.549   1.247  10.207  0.00  0.00    +0.000 C 
ATOM     31  C   UNL     1      40.779   1.649  11.431  0.00  0.00    +0.000 C 
ATOM     32  C   UNL     1      39.843   0.559  11.905  0.00  0.00    +0.000 C 
ATOM     33  C   UNL     1      38.702   0.322  10.947  0.00  0.00    +0.000 C 
ATOM     34  C   UNL     1      38.963   0.913   9.582  0.00  0.00    +0.000 C 
ATOM     35  C   UNL     1      40.037   0.132   8.817  0.00  0.00    +0.000 C 
ENDBRANCH  28  29
ENDBRANCH  27  28
ENDBRANCH  26  27
ENDBRANCH  23  26
ENDBRANCH  19  20
ENDBRANCH  11  19
TORSDOF 7
ENDMDL
MODEL 10
REMARK VINA RESULT:      -7.9      2.846      5.045
REMARK  Name = 
REMARK  7 active torsions:
REMARK  status: ('A' for Active; 'I' for Inactive)
REMARK    1  A    between atoms: N_11  and  C_12
REMARK    2  A    between atoms: C_12  and  C_13
REMARK    3  A    between atoms: C_16  and  O_17
REMARK    4  A    between atoms: O_17  and  C_18
REMARK    5  A    between atoms: C_18  and  C_19
REMARK    6  A    between atoms: C_19  and  N_20
REMARK    7  A    between atoms: C_29  and  C_30
REMARK                            x       y       z     vdW  Elec       q    Type
REMARK                         _______ _______ _______ _____ _____    ______ ____
ROOT
ATOM      1  C   UNL     1      34.782  -3.484  15.450  0.00  0.00    +0.000 C 
ATOM      2  C   UNL     1      36.230  -3.104  15.268  0.00  0.00    +0.000 C 
ATOM      3  C   UNL     1      36.930  -3.958  14.290  0.00  0.00    +0.000 C 
ATOM      4  C   UNL     1      36.963  -2.953  16.512  0.00  0.00    +0.000 A 
ATOM      5  C   UNL     1      37.721  -3.876  17.192  0.00  0.00    +0.000 A 
ATOM      6  C   UNL     1      38.360  -3.592  18.385  0.00  0.00    +0.000 A 
ATOM      7  O   UNL     1      39.127  -4.532  19.069  0.00  0.00    +0.000 OA
ATOM      8  C   UNL     1      38.204  -2.315  18.877  0.00  0.00    +0.000 A 
ATOM      9  C   UNL     1      37.434  -1.373  18.188  0.00  0.00    +0.000 A 
ATOM     10  C   UNL     1      36.811  -1.679  17.008  0.00  0.00    +0.000 A 
ATOM     11  N   UNL     1      36.012  -0.946  16.157  0.00  0.00    +0.000 N 
ATOM     12  C   UNL     1      36.217  -1.572  14.695  0.00  0.00    +0.000 C 
ENDROOT
BRANCH  12  13
ATOM     13  C   UNL     1      37.750  -1.334  14.640  0.00  0.00    +0.000 A 
ATOM     14  C   UNL     1      38.131  -0.058  14.734  0.00  0.00    +0.000 A 
ATOM     15  C   UNL     1      39.466   0.336  14.708  0.00  0.00    +0.000 A 
ATOM     16  C   UNL     1      40.422  -0.630  14.579  0.00  0.00    +0.000 A 
ATOM     17  C   UNL     1      40.013  -1.969  14.481  0.00  0.00    +0.000 A 
ATOM     18  C   UNL     1      38.672  -2.305  14.513  0.00  0.00    +0.000 A 
ENDBRANCH  12  13
BRANCH  11  19
ATOM     19  C   UNL     1      35.122   0.178  16.345  0.00  0.00    +0.000 C 
BRANCH  19  20
ATOM     20  C   UNL     1      35.788   1.436  15.983  0.00  0.00    +0.000 A 
ATOM     21  C   UNL     1      35.671   1.915  14.708  0.00  0.00    +0.000 A 
ATOM     22  C   UNL     1      36.288   3.103  14.300  0.00  0.00    +0.000 A 
ATOM     23  C   UNL     1      37.029   3.790  15.237  0.00  0.00    +0.000 A 
ATOM     24  C   UNL     1      37.167   3.338  16.528  0.00  0.00    +0.000 A 
ATOM     25  C   UNL     1      36.532   2.139  16.897  0.00  0.00    +0.000 A 
BRANCH  23  26
ATOM     26  O   UNL     1      37.664   4.972  14.899  0.00  0.00    +0.000 OA
BRANCH  26  27
ATOM     27  C   UNL     1      37.053   5.884  14.005  0.00  0.00    +0.000 C 
BRANCH  27  28
ATOM     28  C   UNL     1      36.631   7.122  14.769  0.00  0.00    +0.000 C 
BRANCH  28  29
ATOM     29  N   UNL     1      35.686   7.822  13.884  0.00  0.00    +0.000 NA
ATOM     30  C   UNL     1      34.441   7.059  14.027  0.00  0.00    +0.000 C 
ATOM     31  C   UNL     1      33.579   7.213  12.809  0.00  0.00    +0.000 C 
ATOM     32  C   UNL     1      34.248   8.038  11.732  0.00  0.00    +0.000 C 
ATOM     33  C   UNL     1      34.402   9.486  12.126  0.00  0.00    +0.000 C 
ATOM     34  C   UNL     1      34.236   9.700  13.612  0.00  0.00    +0.000 C 
ATOM     35  C   UNL     1      35.424   9.146  14.405  0.00  0.00    +0.000 C 
ENDBRANCH  28  29
ENDBRANCH  27  28
ENDBRANCH  26  27
ENDBRANCH  23  26
ENDBRANCH  19  20
ENDBRANCH  11  19
TORSDOF 7
ENDMDL
