MODEL 1
REMARK VINA RESULT:      -8.0      0.000      0.000
REMARK  Name = 
REMARK  5 active torsions:
REMARK  status: ('A' for Active; 'I' for Inactive)
REMARK    1  A    between atoms: C_2  and  C_3
REMARK    2  A    between atoms: N_5  and  C_6
REMARK    3  A    between atoms: C_6  and  C_7
REMARK    4  A    between atoms: C_18  and  C_19
REMARK    5  A    between atoms: C_21  and  C_22
REMARK                            x       y       z     vdW  Elec       q    Type
REMARK                         _______ _______ _______ _____ _____    ______ ____
ROOT
ATOM      1  O   UNL     1      17.585  13.161  37.778  0.00  0.00    +0.000 OA
ATOM      2  C   UNL     1      18.596  12.383  37.868  0.00  0.00    +0.000 C 
ATOM      3  N   UNL     1      18.598  11.031  37.633  0.00  0.00    +0.000 N 
ATOM      4  C   UNL     1      19.771  10.192  37.747  0.00  0.00    +0.000 C 
ATOM      5  C   UNL     1      19.837   9.605  36.348  0.00  0.00    +0.000 C 
ATOM      6  C   UNL     1      18.432   9.629  35.802  0.00  0.00    +0.000 C 
ATOM      7  C   UNL     1      17.645   9.950  37.231  0.00  0.00    +0.000 C 
ENDROOT
BRANCH   2   8
ATOM      8  C   UNL     1      19.818  13.113  38.267  0.00  0.00    +0.000 A 
ATOM      9  C   UNL     1      21.106  12.669  38.248  0.00  0.00    +0.000 A 
ATOM     10  N   UNL     1      21.933  13.660  38.696  0.00  0.00    +0.000 N 
ATOM     11  N   UNL     1      21.151  14.690  38.982  0.00  0.00    +0.000 NA
ATOM     12  N   UNL     1      19.876  14.374  38.727  0.00  0.00    +0.000 NA
BRANCH  10  13
ATOM     13  C   UNL     1      23.352  13.645  38.846  0.00  0.00    +0.000 C 
BRANCH  13  14
ATOM     14  C   UNL     1      23.864  12.313  38.011  0.00  0.00    +0.000 C 
ATOM     15  C   UNL     1      25.007  13.173  37.167  0.00  0.00    +0.000 C 
ATOM     16  C   UNL     1      25.757  13.781  38.285  0.00  0.00    +0.000 C 
ATOM     17  O   UNL     1      25.563  13.064  39.421  0.00  0.00    +0.000 OA
ATOM     18  C   UNL     1      24.960  11.881  39.156  0.00  0.00    +0.000 C 
ENDBRANCH  13  14
ENDBRANCH  10  13
ENDBRANCH   2   8
BRANCH   7  19
ATOM     19  C   UNL     1      16.373  10.718  36.724  0.00  0.00    +0.000 A 
ATOM     20  N   UNL     1      16.384  11.099  35.437  0.00  0.00    +0.000 NA
ATOM     21  C   UNL     1      15.227  11.744  35.145  0.00  0.00    +0.000 A 
ATOM     22  N   UNL     1      14.571  11.709  36.310  0.00  0.00    +0.000 NA
ATOM     23  O   UNL     1      15.292  11.095  37.199  0.00  0.00    +0.000 OA
BRANCH  21  24
ATOM     24  C   UNL     1      14.818  12.325  33.860  0.00  0.00    +0.000 A 
ATOM     25  C   UNL     1      15.194  11.769  32.658  0.00  0.00    +0.000 A 
ATOM     26  C   UNL     1      14.844  12.267  31.438  0.00  0.00    +0.000 A 
ATOM     27  C   UNL     1      14.071  13.391  31.370  0.00  0.00    +0.000 A 
ATOM     28  F   UNL     1      13.710  13.905  30.151  0.00  0.00    +0.000 F 
ATOM     29  C   UNL     1      13.668  13.988  32.546  0.00  0.00    +0.000 A 
ATOM     30  C   UNL     1      14.038  13.461  33.789  0.00  0.00    +0.000 A 
ENDBRANCH  21  24
ENDBRANCH   7  19
TORSDOF 5
ENDMDL
MODEL 2
REMARK VINA RESULT:      -8.0      3.125      3.958
REMARK  Name = 
REMARK  5 active torsions:
REMARK  status: ('A' for Active; 'I' for Inactive)
REMARK    1  A    between atoms: C_2  and  C_3
REMARK    2  A    between atoms: N_5  and  C_6
REMARK    3  A    between atoms: C_6  and  C_7
REMARK    4  A    between atoms: C_18  and  C_19
REMARK    5  A    between atoms: C_21  and  C_22
REMARK                            x       y       z     vdW  Elec       q    Type
REMARK                         _______ _______ _______ _____ _____    ______ ____
ROOT
ATOM      1  O   UNL     1      20.926   9.903  36.096  0.00  0.00    +0.000 OA
ATOM      2  C   UNL     1      21.198  10.272  37.290  0.00  0.00    +0.000 C 
ATOM      3  N   UNL     1      20.295  10.710  38.226  0.00  0.00    +0.000 N 
ATOM      4  C   UNL     1      20.654  11.117  39.567  0.00  0.00    +0.000 C 
ATOM      5  C   UNL     1      19.800  10.166  40.389  0.00  0.00    +0.000 C 
ATOM      6  C   UNL     1      18.622   9.789  39.527  0.00  0.00    +0.000 C 
ATOM      7  C   UNL     1      18.824  10.949  38.354  0.00  0.00    +0.000 C 
ENDROOT
BRANCH   2   8
ATOM      8  C   UNL     1      22.645  10.175  37.578  0.00  0.00    +0.000 A 
ATOM      9  C   UNL     1      23.338   9.102  38.052  0.00  0.00    +0.000 A 
ATOM     10  N   UNL     1      24.657   9.434  38.176  0.00  0.00    +0.000 N 
ATOM     11  N   UNL     1      24.758  10.695  37.783  0.00  0.00    +0.000 NA
ATOM     12  N   UNL     1      23.554  11.152  37.420  0.00  0.00    +0.000 NA
BRANCH  10  13
ATOM     13  C   UNL     1      25.745   8.631  38.632  0.00  0.00    +0.000 C 
BRANCH  13  14
ATOM     14  C   UNL     1      25.098   7.631  39.779  0.00  0.00    +0.000 C 
ATOM     15  C   UNL     1      26.227   6.443  39.508  0.00  0.00    +0.000 C 
ATOM     16  C   UNL     1      27.472   7.216  39.698  0.00  0.00    +0.000 C 
ATOM     17  O   UNL     1      27.224   8.324  40.442  0.00  0.00    +0.000 OA
ATOM     18  C   UNL     1      25.991   8.273  40.999  0.00  0.00    +0.000 C 
ENDBRANCH  13  14
ENDBRANCH  10  13
ENDBRANCH   2   8
BRANCH   7  19
ATOM     19  C   UNL     1      18.201  10.241  37.100  0.00  0.00    +0.000 A 
ATOM     20  N   UNL     1      17.656  11.044  36.173  0.00  0.00    +0.000 NA
ATOM     21  C   UNL     1      17.165  10.295  35.155  0.00  0.00    +0.000 A 
ATOM     22  N   UNL     1      17.452   9.048  35.544  0.00  0.00    +0.000 NA
ATOM     23  O   UNL     1      18.059   9.078  36.692  0.00  0.00    +0.000 OA
BRANCH  21  24
ATOM     24  C   UNL     1      16.490  10.761  33.937  0.00  0.00    +0.000 A 
ATOM     25  C   UNL     1      16.798  10.253  32.695  0.00  0.00    +0.000 A 
ATOM     26  C   UNL     1      16.204  10.650  31.534  0.00  0.00    +0.000 A 
ATOM     27  C   UNL     1      15.235  11.611  31.571  0.00  0.00    +0.000 A 
ATOM     28  F   UNL     1      14.628  12.021  30.412  0.00  0.00    +0.000 F 
ATOM     29  C   UNL     1      14.889  12.154  32.791  0.00  0.00    +0.000 A 
ATOM     30  C   UNL     1      15.511  11.733  33.973  0.00  0.00    +0.000 A 
ENDBRANCH  21  24
ENDBRANCH   7  19
TORSDOF 5
ENDMDL
MODEL 3
REMARK VINA RESULT:      -7.8     18.587     21.409
REMARK  Name = 
REMARK  5 active torsions:
REMARK  status: ('A' for Active; 'I' for Inactive)
REMARK    1  A    between atoms: C_2  and  C_3
REMARK    2  A    between atoms: N_5  and  C_6
REMARK    3  A    between atoms: C_6  and  C_7
REMARK    4  A    between atoms: C_18  and  C_19
REMARK    5  A    between atoms: C_21  and  C_22
REMARK                            x       y       z     vdW  Elec       q    Type
REMARK                         _______ _______ _______ _____ _____    ______ ____
ROOT
ATOM      1  O   UNL     1      29.873  24.415  24.990  0.00  0.00    +0.000 OA
ATOM      2  C   UNL     1      28.889  24.182  24.208  0.00  0.00    +0.000 C 
ATOM      3  N   UNL     1      27.714  23.562  24.551  0.00  0.00    +0.000 N 
ATOM      4  C   UNL     1      26.627  23.320  23.628  0.00  0.00    +0.000 C 
ATOM      5  C   UNL     1      25.492  24.047  24.329  0.00  0.00    +0.000 C 
ATOM      6  C   UNL     1      25.833  24.064  25.797  0.00  0.00    +0.000 C 
ATOM      7  C   UNL     1      27.065  22.949  25.753  0.00  0.00    +0.000 C 
ENDROOT
BRANCH   2   8
ATOM      8  C   UNL     1      29.150  24.667  22.837  0.00  0.00    +0.000 A 
ATOM      9  C   UNL     1      29.130  25.951  22.381  0.00  0.00    +0.000 A 
ATOM     10  N   UNL     1      29.429  25.963  21.048  0.00  0.00    +0.000 N 
ATOM     11  N   UNL     1      29.626  24.699  20.704  0.00  0.00    +0.000 NA
ATOM     12  N   UNL     1      29.462  23.910  21.771  0.00  0.00    +0.000 NA
BRANCH  10  13
ATOM     13  C   UNL     1      29.521  27.076  20.159  0.00  0.00    +0.000 C 
BRANCH  13  14
ATOM     14  C   UNL     1      29.005  28.378  21.038  0.00  0.00    +0.000 C 
ATOM     15  C   UNL     1      29.918  29.448  20.154  0.00  0.00    +0.000 C 
ATOM     16  C   UNL     1      29.443  29.135  18.790  0.00  0.00    +0.000 C 
ATOM     17  O   UNL     1      28.223  28.541  18.847  0.00  0.00    +0.000 OA
ATOM     18  C   UNL     1      27.690  28.636  20.088  0.00  0.00    +0.000 C 
ENDBRANCH  13  14
ENDBRANCH  10  13
ENDBRANCH   2   8
BRANCH   7  19
ATOM     19  C   UNL     1      27.955  23.416  26.959  0.00  0.00    +0.000 A 
ATOM     20  N   UNL     1      28.882  22.544  27.386  0.00  0.00    +0.000 NA
ATOM     21  C   UNL     1      29.570  23.084  28.422  0.00  0.00    +0.000 A 
ATOM     22  N   UNL     1      28.997  24.285  28.560  0.00  0.00    +0.000 NA
ATOM     23  O   UNL     1      28.057  24.424  27.675  0.00  0.00    +0.000 OA
BRANCH  21  24
ATOM     24  C   UNL     1      30.668  22.480  29.187  0.00  0.00    +0.000 A 
ATOM     25  C   UNL     1      30.611  22.342  30.556  0.00  0.00    +0.000 A 
ATOM     26  C   UNL     1      31.601  21.791  31.314  0.00  0.00    +0.000 A 
ATOM     27  C   UNL     1      32.736  21.335  30.707  0.00  0.00    +0.000 A 
ATOM     28  F   UNL     1      33.741  20.778  31.456  0.00  0.00    +0.000 F 
ATOM     29  C   UNL     1      32.844  21.451  29.337  0.00  0.00    +0.000 A 
ATOM     30  C   UNL     1      31.816  22.021  28.575  0.00  0.00    +0.000 A 
ENDBRANCH  21  24
ENDBRANCH   7  19
TORSDOF 5
ENDMDL
MODEL 4
REMARK VINA RESULT:      -7.8     19.680     21.553
REMARK  Name = 
REMARK  5 active torsions:
REMARK  status: ('A' for Active; 'I' for Inactive)
REMARK    1  A    between atoms: C_2  and  C_3
REMARK    2  A    between atoms: N_5  and  C_6
REMARK    3  A    between atoms: C_6  and  C_7
REMARK    4  A    between atoms: C_18  and  C_19
REMARK    5  A    between atoms: C_21  and  C_22
REMARK                            x       y       z     vdW  Elec       q    Type
REMARK                         _______ _______ _______ _____ _____    ______ ____
ROOT
ATOM      1  O   UNL     1      27.339  25.328  23.531  0.00  0.00    +0.000 OA
ATOM      2  C   UNL     1      28.597  25.140  23.403  0.00  0.00    +0.000 C 
ATOM      3  N   UNL     1      29.439  24.629  24.358  0.00  0.00    +0.000 N 
ATOM      4  C   UNL     1      30.859  24.434  24.165  0.00  0.00    +0.000 C 
ATOM      5  C   UNL     1      30.980  22.944  24.437  0.00  0.00    +0.000 C 
ATOM      6  C   UNL     1      29.835  22.577  25.346  0.00  0.00    +0.000 C 
ATOM      7  C   UNL     1      29.380  24.120  25.764  0.00  0.00    +0.000 C 
ENDROOT
BRANCH   2   8
ATOM      8  C   UNL     1      29.080  25.542  22.065  0.00  0.00    +0.000 A 
ATOM      9  C   UNL     1      29.262  26.803  21.581  0.00  0.00    +0.000 A 
ATOM     10  N   UNL     1      29.724  26.733  20.297  0.00  0.00    +0.000 N 
ATOM     11  N   UNL     1      29.818  25.443  20.010  0.00  0.00    +0.000 NA
ATOM     12  N   UNL     1      29.434  24.716  21.066  0.00  0.00    +0.000 NA
BRANCH  10  13
ATOM     13  C   UNL     1      30.053  27.795  19.402  0.00  0.00    +0.000 C 
BRANCH  13  14
ATOM     14  C   UNL     1      30.195  27.084  17.916  0.00  0.00    +0.000 C 
ATOM     15  C   UNL     1      29.300  28.266  17.167  0.00  0.00    +0.000 C 
ATOM     16  C   UNL     1      30.054  29.468  17.580  0.00  0.00    +0.000 C 
ATOM     17  O   UNL     1      31.321  29.127  17.928  0.00  0.00    +0.000 OA
ATOM     18  C   UNL     1      31.602  27.854  17.562  0.00  0.00    +0.000 C 
ENDBRANCH  13  14
ENDBRANCH  10  13
ENDBRANCH   2   8
BRANCH   7  19
ATOM     19  C   UNL     1      27.848  23.930  26.048  0.00  0.00    +0.000 A 
ATOM     20  N   UNL     1      27.269  24.856  26.828  0.00  0.00    +0.000 NA
ATOM     21  C   UNL     1      25.953  24.563  26.980  0.00  0.00    +0.000 A 
ATOM     22  N   UNL     1      25.817  23.444  26.260  0.00  0.00    +0.000 NA
ATOM     23  O   UNL     1      26.961  23.120  25.737  0.00  0.00    +0.000 OA
BRANCH  21  24
ATOM     24  C   UNL     1      24.947  25.306  27.749  0.00  0.00    +0.000 A 
ATOM     25  C   UNL     1      23.781  25.760  27.173  0.00  0.00    +0.000 A 
ATOM     26  C   UNL     1      22.816  26.455  27.839  0.00  0.00    +0.000 A 
ATOM     27  C   UNL     1      22.984  26.734  29.165  0.00  0.00    +0.000 A 
ATOM     28  F   UNL     1      22.022  27.431  29.849  0.00  0.00    +0.000 F 
ATOM     29  C   UNL     1      24.136  26.302  29.790  0.00  0.00    +0.000 A 
ATOM     30  C   UNL     1      25.117  25.590  29.088  0.00  0.00    +0.000 A 
ENDBRANCH  21  24
ENDBRANCH   7  19
TORSDOF 5
ENDMDL
MODEL 5
REMARK VINA RESULT:      -7.8     19.321     22.611
REMARK  Name = 
REMARK  5 active torsions:
REMARK  status: ('A' for Active; 'I' for Inactive)
REMARK    1  A    between atoms: C_2  and  C_3
REMARK    2  A    between atoms: N_5  and  C_6
REMARK    3  A    between atoms: C_6  and  C_7
REMARK    4  A    between atoms: C_18  and  C_19
REMARK    5  A    between atoms: C_21  and  C_22
REMARK                            x       y       z     vdW  Elec       q    Type
REMARK                         _______ _______ _______ _____ _____    ______ ____
ROOT
ATOM      1  O   UNL     1      32.757  -2.583  34.043  0.00  0.00    +0.000 OA
ATOM      2  C   UNL     1      33.480  -3.631  34.159  0.00  0.00    +0.000 C 
ATOM      3  N   UNL     1      34.553  -3.785  35.000  0.00  0.00    +0.000 N 
ATOM      4  C   UNL     1      35.341  -4.994  35.095  0.00  0.00    +0.000 C 
ATOM      5  C   UNL     1      35.184  -5.319  36.570  0.00  0.00    +0.000 C 
ATOM      6  C   UNL     1      34.906  -4.015  37.273  0.00  0.00    +0.000 C 
ATOM      7  C   UNL     1      35.312  -2.998  36.022  0.00  0.00    +0.000 C 
ENDROOT
BRANCH   2   8
ATOM      8  C   UNL     1      33.027  -4.713  33.259  0.00  0.00    +0.000 A 
ATOM      9  C   UNL     1      33.393  -4.939  31.965  0.00  0.00    +0.000 A 
ATOM     10  N   UNL     1      32.742  -6.046  31.498  0.00  0.00    +0.000 N 
ATOM     11  N   UNL     1      31.992  -6.482  32.499  0.00  0.00    +0.000 NA
ATOM     12  N   UNL     1      32.155  -5.688  33.564  0.00  0.00    +0.000 NA
BRANCH  10  13
ATOM     13  C   UNL     1      32.816  -6.652  30.208  0.00  0.00    +0.000 C 
BRANCH  13  14
ATOM     14  C   UNL     1      34.308  -6.247  29.621  0.00  0.00    +0.000 C 
ATOM     15  C   UNL     1      34.762  -7.833  29.433  0.00  0.00    +0.000 C 
ATOM     16  C   UNL     1      33.652  -8.325  28.590  0.00  0.00    +0.000 C 
ATOM     17  O   UNL     1      33.056  -7.287  27.951  0.00  0.00    +0.000 OA
ATOM     18  C   UNL     1      33.792  -6.156  28.065  0.00  0.00    +0.000 C 
ENDBRANCH  13  14
ENDBRANCH  10  13
ENDBRANCH   2   8
BRANCH   7  19
ATOM     19  C   UNL     1      34.399  -1.756  36.317  0.00  0.00    +0.000 A 
ATOM     20  N   UNL     1      34.726  -0.615  35.690  0.00  0.00    +0.000 NA
ATOM     21  C   UNL     1      33.852   0.361  36.038  0.00  0.00    +0.000 A 
ATOM     22  N   UNL     1      33.027  -0.271  36.881  0.00  0.00    +0.000 NA
ATOM     23  O   UNL     1      33.397  -1.509  37.006  0.00  0.00    +0.000 OA
BRANCH  21  24
ATOM     24  C   UNL     1      33.835   1.759  35.588  0.00  0.00    +0.000 A 
ATOM     25  C   UNL     1      33.583   2.098  34.277  0.00  0.00    +0.000 A 
ATOM     26  C   UNL     1      33.556   3.376  33.806  0.00  0.00    +0.000 A 
ATOM     27  C   UNL     1      33.790   4.412  34.665  0.00  0.00    +0.000 A 
ATOM     28  F   UNL     1      33.767   5.704  34.206  0.00  0.00    +0.000 F 
ATOM     29  C   UNL     1      34.049   4.127  35.989  0.00  0.00    +0.000 A 
ATOM     30  C   UNL     1      34.072   2.806  36.454  0.00  0.00    +0.000 A 
ENDBRANCH  21  24
ENDBRANCH   7  19
TORSDOF 5
ENDMDL
MODEL 6
REMARK VINA RESULT:      -7.5     19.582     21.597
REMARK  Name = 
REMARK  5 active torsions:
REMARK  status: ('A' for Active; 'I' for Inactive)
REMARK    1  A    between atoms: C_2  and  C_3
REMARK    2  A    between atoms: N_5  and  C_6
REMARK    3  A    between atoms: C_6  and  C_7
REMARK    4  A    between atoms: C_18  and  C_19
REMARK    5  A    between atoms: C_21  and  C_22
REMARK                            x       y       z     vdW  Elec       q    Type
REMARK                         _______ _______ _______ _____ _____    ______ ____
ROOT
ATOM      1  O   UNL     1      30.686  24.287  23.714  0.00  0.00    +0.000 OA
ATOM      2  C   UNL     1      29.717  24.022  24.505  0.00  0.00    +0.000 C 
ATOM      3  N   UNL     1      28.394  24.316  24.288  0.00  0.00    +0.000 N 
ATOM      4  C   UNL     1      27.331  23.994  25.215  0.00  0.00    +0.000 C 
ATOM      5  C   UNL     1      26.437  23.138  24.335  0.00  0.00    +0.000 C 
ATOM      6  C   UNL     1      26.695  23.566  22.912  0.00  0.00    +0.000 C 
ATOM      7  C   UNL     1      27.533  24.961  23.248  0.00  0.00    +0.000 C 
ENDROOT
BRANCH   2   8
ATOM      8  C   UNL     1      30.179  23.337  25.730  0.00  0.00    +0.000 A 
ATOM      9  C   UNL     1      30.827  23.875  26.801  0.00  0.00    +0.000 A 
ATOM     10  N   UNL     1      31.072  22.896  27.721  0.00  0.00    +0.000 N 
ATOM     11  N   UNL     1      30.577  21.779  27.210  0.00  0.00    +0.000 NA
ATOM     12  N   UNL     1      30.036  22.031  26.012  0.00  0.00    +0.000 NA
BRANCH  10  13
ATOM     13  C   UNL     1      31.723  22.997  28.987  0.00  0.00    +0.000 C 
BRANCH  13  14
ATOM     14  C   UNL     1      32.399  21.510  29.249  0.00  0.00    +0.000 C 
ATOM     15  C   UNL     1      33.894  22.151  29.584  0.00  0.00    +0.000 C 
ATOM     16  C   UNL     1      33.539  23.095  30.664  0.00  0.00    +0.000 C 
ATOM     17  O   UNL     1      32.366  22.726  31.239  0.00  0.00    +0.000 OA
ATOM     18  C   UNL     1      31.996  21.486  30.841  0.00  0.00    +0.000 C 
ENDBRANCH  13  14
ENDBRANCH  10  13
ENDBRANCH   2   8
BRANCH   7  19
ATOM     19  C   UNL     1      28.462  25.080  21.989  0.00  0.00    +0.000 A 
ATOM     20  N   UNL     1      28.657  26.318  21.509  0.00  0.00    +0.000 NA
ATOM     21  C   UNL     1      29.478  26.263  20.431  0.00  0.00    +0.000 A 
ATOM     22  N   UNL     1      29.735  24.955  20.324  0.00  0.00    +0.000 NA
ATOM     23  O   UNL     1      29.112  24.311  21.264  0.00  0.00    +0.000 OA
BRANCH  21  24
ATOM     24  C   UNL     1      29.954  27.378  19.602  0.00  0.00    +0.000 A 
ATOM     25  C   UNL     1      30.586  27.171  18.397  0.00  0.00    +0.000 A 
ATOM     26  C   UNL     1      31.048  28.168  17.590  0.00  0.00    +0.000 A 
ATOM     27  C   UNL     1      30.889  29.469  17.973  0.00  0.00    +0.000 A 
ATOM     28  F   UNL     1      31.348  30.483  17.173  0.00  0.00    +0.000 F 
ATOM     29  C   UNL     1      30.263  29.732  19.174  0.00  0.00    +0.000 A 
ATOM     30  C   UNL     1      29.795  28.693  19.989  0.00  0.00    +0.000 A 
ENDBRANCH  21  24
ENDBRANCH   7  19
TORSDOF 5
ENDMDL
MODEL 7
REMARK VINA RESULT:      -7.4      1.573      2.082
REMARK  Name = 
REMARK  5 active torsions:
REMARK  status: ('A' for Active; 'I' for Inactive)
REMARK    1  A    between atoms: C_2  and  C_3
REMARK    2  A    between atoms: N_5  and  C_6
REMARK    3  A    between atoms: C_6  and  C_7
REMARK    4  A    between atoms: C_18  and  C_19
REMARK    5  A    between atoms: C_21  and  C_22
REMARK                            x       y       z     vdW  Elec       q    Type
REMARK                         _______ _______ _______ _____ _____    ______ ____
ROOT
ATOM      1  O   UNL     1      17.978  13.430  37.598  0.00  0.00    +0.000 OA
ATOM      2  C   UNL     1      18.730  12.475  37.995  0.00  0.00    +0.000 C 
ATOM      3  N   UNL     1      18.368  11.157  38.111  0.00  0.00    +0.000 N 
ATOM      4  C   UNL     1      19.257  10.110  38.565  0.00  0.00    +0.000 C 
ATOM      5  C   UNL     1      19.214   9.166  37.376  0.00  0.00    +0.000 C 
ATOM      6  C   UNL     1      17.894   9.398  36.687  0.00  0.00    +0.000 C 
ATOM      7  C   UNL     1      17.169  10.288  37.890  0.00  0.00    +0.000 C 
ENDROOT
BRANCH   2   8
ATOM      8  C   UNL     1      20.089  12.949  38.331  0.00  0.00    +0.000 A 
ATOM      9  C   UNL     1      20.442  14.075  39.013  0.00  0.00    +0.000 A 
ATOM     10  N   UNL     1      21.804  14.138  39.109  0.00  0.00    +0.000 N 
ATOM     11  N   UNL     1      22.266  13.062  38.490  0.00  0.00    +0.000 NA
ATOM     12  N   UNL     1      21.244  12.338  38.019  0.00  0.00    +0.000 NA
BRANCH  10  13
ATOM     13  C   UNL     1      22.614  15.134  39.732  0.00  0.00    +0.000 C 
BRANCH  13  14
ATOM     14  C   UNL     1      23.805  15.474  38.637  0.00  0.00    +0.000 C 
ATOM     15  C   UNL     1      23.527  17.110  38.709  0.00  0.00    +0.000 C 
ATOM     16  C   UNL     1      23.659  17.334  40.164  0.00  0.00    +0.000 C 
ATOM     17  O   UNL     1      24.383  16.333  40.726  0.00  0.00    +0.000 OA
ATOM     18  C   UNL     1      24.980  15.571  39.780  0.00  0.00    +0.000 C 
ENDBRANCH  13  14
ENDBRANCH  10  13
ENDBRANCH   2   8
BRANCH   7  19
ATOM     19  C   UNL     1      16.181  11.186  37.065  0.00  0.00    +0.000 A 
ATOM     20  N   UNL     1      16.312  11.140  35.730  0.00  0.00    +0.000 NA
ATOM     21  C   UNL     1      15.396  11.959  35.156  0.00  0.00    +0.000 A 
ATOM     22  N   UNL     1      14.750  12.463  36.214  0.00  0.00    +0.000 NA
ATOM     23  O   UNL     1      15.255  11.974  37.306  0.00  0.00    +0.000 OA
BRANCH  21  24
ATOM     24  C   UNL     1      15.184  12.213  33.725  0.00  0.00    +0.000 A 
ATOM     25  C   UNL     1      14.292  13.162  33.279  0.00  0.00    +0.000 A 
ATOM     26  C   UNL     1      14.055  13.437  31.965  0.00  0.00    +0.000 A 
ATOM     27  C   UNL     1      14.732  12.743  31.003  0.00  0.00    +0.000 A 
ATOM     28  F   UNL     1      14.506  13.008  29.677  0.00  0.00    +0.000 F 
ATOM     29  C   UNL     1      15.637  11.780  31.396  0.00  0.00    +0.000 A 
ATOM     30  C   UNL     1      15.866  11.512  32.752  0.00  0.00    +0.000 A 
ENDBRANCH  21  24
ENDBRANCH   7  19
TORSDOF 5
ENDMDL
MODEL 8
REMARK VINA RESULT:      -7.2      2.814      3.812
REMARK  Name = 
REMARK  5 active torsions:
REMARK  status: ('A' for Active; 'I' for Inactive)
REMARK    1  A    between atoms: C_2  and  C_3
REMARK    2  A    between atoms: N_5  and  C_6
REMARK    3  A    between atoms: C_6  and  C_7
REMARK    4  A    between atoms: C_18  and  C_19
REMARK    5  A    between atoms: C_21  and  C_22
REMARK                            x       y       z     vdW  Elec       q    Type
REMARK                         _______ _______ _______ _____ _____    ______ ____
ROOT
ATOM      1  O   UNL     1      19.733  12.842  38.595  0.00  0.00    +0.000 OA
ATOM      2  C   UNL     1      20.955  12.475  38.511  0.00  0.00    +0.000 C 
ATOM      3  N   UNL     1      21.401  11.200  38.270  0.00  0.00    +0.000 N 
ATOM      4  C   UNL     1      22.799  10.834  38.183  0.00  0.00    +0.000 C 
ATOM      5  C   UNL     1      22.847  10.233  36.789  0.00  0.00    +0.000 C 
ATOM      6  C   UNL     1      21.458   9.732  36.485  0.00  0.00    +0.000 C 
ATOM      7  C   UNL     1      20.844   9.832  38.027  0.00  0.00    +0.000 C 
ENDROOT
BRANCH   2   8
ATOM      8  C   UNL     1      21.884  13.608  38.704  0.00  0.00    +0.000 A 
ATOM      9  C   UNL     1      21.622  14.825  39.259  0.00  0.00    +0.000 A 
ATOM     10  N   UNL     1      22.759  15.582  39.248  0.00  0.00    +0.000 N 
ATOM     11  N   UNL     1      23.696  14.830  38.691  0.00  0.00    +0.000 NA
ATOM     12  N   UNL     1      23.182  13.640  38.360  0.00  0.00    +0.000 NA
BRANCH  10  13
ATOM     13  C   UNL     1      22.954  16.914  39.722  0.00  0.00    +0.000 C 
BRANCH  13  14
ATOM     14  C   UNL     1      23.708  17.711  38.485  0.00  0.00    +0.000 C 
ATOM     15  C   UNL     1      22.305  18.445  37.985  0.00  0.00    +0.000 C 
ATOM     16  C   UNL     1      21.884  19.092  39.245  0.00  0.00    +0.000 C 
ATOM     17  O   UNL     1      22.952  19.246  40.070  0.00  0.00    +0.000 OA
ATOM     18  C   UNL     1      24.112  19.002  39.417  0.00  0.00    +0.000 C 
ENDBRANCH  13  14
ENDBRANCH  10  13
ENDBRANCH   2   8
BRANCH   7  19
ATOM     19  C   UNL     1      19.320  10.075  37.743  0.00  0.00    +0.000 A 
ATOM     20  N   UNL     1      18.991  10.366  36.474  0.00  0.00    +0.000 NA
ATOM     21  C   UNL     1      17.650  10.545  36.383  0.00  0.00    +0.000 A 
ATOM     22  N   UNL     1      17.241  10.346  37.641  0.00  0.00    +0.000 NA
ATOM     23  O   UNL     1      18.264  10.074  38.394  0.00  0.00    +0.000 OA
BRANCH  21  24
ATOM     24  C   UNL     1      16.864  10.875  35.187  0.00  0.00    +0.000 A 
ATOM     25  C   UNL     1      15.787  11.732  35.239  0.00  0.00    +0.000 A 
ATOM     26  C   UNL     1      15.024  12.071  34.161  0.00  0.00    +0.000 A 
ATOM     27  C   UNL     1      15.321  11.545  32.937  0.00  0.00    +0.000 A 
ATOM     28  F   UNL     1      14.563  11.877  31.843  0.00  0.00    +0.000 F 
ATOM     29  C   UNL     1      16.390  10.680  32.831  0.00  0.00    +0.000 A 
ATOM     30  C   UNL     1      17.162  10.344  33.950  0.00  0.00    +0.000 A 
ENDBRANCH  21  24
ENDBRANCH   7  19
TORSDOF 5
ENDMDL
MODEL 9
REMARK VINA RESULT:      -7.0     19.425     22.749
REMARK  Name = 
REMARK  5 active torsions:
REMARK  status: ('A' for Active; 'I' for Inactive)
REMARK    1  A    between atoms: C_2  and  C_3
REMARK    2  A    between atoms: N_5  and  C_6
REMARK    3  A    between atoms: C_6  and  C_7
REMARK    4  A    between atoms: C_18  and  C_19
REMARK    5  A    between atoms: C_21  and  C_22
REMARK                            x       y       z     vdW  Elec       q    Type
REMARK                         _______ _______ _______ _____ _____    ______ ____
ROOT
ATOM      1  O   UNL     1      33.183  -2.894  33.344  0.00  0.00    +0.000 OA
ATOM      2  C   UNL     1      33.835  -3.944  33.673  0.00  0.00    +0.000 C 
ATOM      3  N   UNL     1      34.587  -4.105  34.809  0.00  0.00    +0.000 N 
ATOM      4  C   UNL     1      35.308  -5.316  35.138  0.00  0.00    +0.000 C 
ATOM      5  C   UNL     1      34.692  -5.656  36.484  0.00  0.00    +0.000 C 
ATOM      6  C   UNL     1      34.201  -4.359  37.075  0.00  0.00    +0.000 C 
ATOM      7  C   UNL     1      34.980  -3.329  36.027  0.00  0.00    +0.000 C 
ENDROOT
BRANCH   2   8
ATOM      8  C   UNL     1      33.695  -5.016  32.665  0.00  0.00    +0.000 A 
ATOM      9  C   UNL     1      32.615  -5.815  32.433  0.00  0.00    +0.000 A 
ATOM     10  N   UNL     1      32.901  -6.675  31.410  0.00  0.00    +0.000 N 
ATOM     11  N   UNL     1      34.139  -6.398  31.031  0.00  0.00    +0.000 NA
ATOM     12  N   UNL     1      34.627  -5.401  31.778  0.00  0.00    +0.000 NA
BRANCH  10  13
ATOM     13  C   UNL     1      32.075  -7.685  30.831  0.00  0.00    +0.000 C 
BRANCH  13  14
ATOM     14  C   UNL     1      30.967  -8.065  31.998  0.00  0.00    +0.000 C 
ATOM     15  C   UNL     1      29.677  -7.701  31.018  0.00  0.00    +0.000 C 
ATOM     16  C   UNL     1      29.979  -8.565  29.857  0.00  0.00    +0.000 C 
ATOM     17  O   UNL     1      30.803  -9.577  30.230  0.00  0.00    +0.000 OA
ATOM     18  C   UNL     1      30.906  -9.651  31.578  0.00  0.00    +0.000 C 
ENDBRANCH  13  14
ENDBRANCH  10  13
ENDBRANCH   2   8
BRANCH   7  19
ATOM     19  C   UNL     1      34.016  -2.090  36.029  0.00  0.00    +0.000 A 
ATOM     20  N   UNL     1      34.535  -0.934  35.588  0.00  0.00    +0.000 NA
ATOM     21  C   UNL     1      33.590   0.038  35.646  0.00  0.00    +0.000 A 
ATOM     22  N   UNL     1      32.529  -0.614  36.133  0.00  0.00    +0.000 NA
ATOM     23  O   UNL     1      32.838  -1.858  36.339  0.00  0.00    +0.000 OA
BRANCH  21  24
ATOM     24  C   UNL     1      33.724   1.449  35.261  0.00  0.00    +0.000 A 
ATOM     25  C   UNL     1      33.530   1.871  33.965  0.00  0.00    +0.000 A 
ATOM     26  C   UNL     1      33.643   3.166  33.553  0.00  0.00    +0.000 A 
ATOM     27  C   UNL     1      33.966   4.132  34.462  0.00  0.00    +0.000 A 
ATOM     28  F   UNL     1      34.083   5.439  34.064  0.00  0.00    +0.000 F 
ATOM     29  C   UNL     1      34.171   3.763  35.775  0.00  0.00    +0.000 A 
ATOM     30  C   UNL     1      34.052   2.427  36.178  0.00  0.00    +0.000 A 
ENDBRANCH  21  24
ENDBRANCH   7  19
TORSDOF 5
ENDMDL
MODEL 10
REMARK VINA RESULT:      -6.9      5.423      9.504
REMARK  Name = 
REMARK  5 active torsions:
REMARK  status: ('A' for Active; 'I' for Inactive)
REMARK    1  A    between atoms: C_2  and  C_3
REMARK    2  A    between atoms: N_5  and  C_6
REMARK    3  A    between atoms: C_6  and  C_7
REMARK    4  A    between atoms: C_18  and  C_19
REMARK    5  A    between atoms: C_21  and  C_22
REMARK                            x       y       z     vdW  Elec       q    Type
REMARK                         _______ _______ _______ _____ _____    ______ ____
ROOT
ATOM      1  O   UNL     1      21.151   8.755  39.632  0.00  0.00    +0.000 OA
ATOM      2  C   UNL     1      19.900   8.838  39.382  0.00  0.00    +0.000 C 
ATOM      3  N   UNL     1      19.319   9.628  38.422  0.00  0.00    +0.000 N 
ATOM      4  C   UNL     1      17.895   9.686  38.175  0.00  0.00    +0.000 C 
ATOM      5  C   UNL     1      17.844   9.290  36.710  0.00  0.00    +0.000 C 
ATOM      6  C   UNL     1      19.178   9.665  36.115  0.00  0.00    +0.000 C 
ATOM      7  C   UNL     1      19.722  10.611  37.369  0.00  0.00    +0.000 C 
ENDROOT
BRANCH   2   8
ATOM      8  C   UNL     1      19.103   7.959  40.264  0.00  0.00    +0.000 A 
ATOM      9  C   UNL     1      18.747   8.172  41.563  0.00  0.00    +0.000 A 
ATOM     10  N   UNL     1      18.009   7.113  42.008  0.00  0.00    +0.000 N 
ATOM     11  N   UNL     1      17.921   6.270  40.990  0.00  0.00    +0.000 NA
ATOM     12  N   UNL     1      18.575   6.769  39.934  0.00  0.00    +0.000 NA
BRANCH  10  13
ATOM     13  C   UNL     1      17.428   6.903  43.295  0.00  0.00    +0.000 C 
BRANCH  13  14
ATOM     14  C   UNL     1      15.923   7.583  43.210  0.00  0.00    +0.000 C 
ATOM     15  C   UNL     1      15.320   6.615  44.417  0.00  0.00    +0.000 C 
ATOM     16  C   UNL     1      16.293   6.901  45.493  0.00  0.00    +0.000 C 
ATOM     17  O   UNL     1      16.906   8.090  45.264  0.00  0.00    +0.000 OA
ATOM     18  C   UNL     1      16.284   8.778  44.278  0.00  0.00    +0.000 C 
ENDBRANCH  13  14
ENDBRANCH  10  13
ENDBRANCH   2   8
BRANCH   7  19
ATOM     19  C   UNL     1      21.277  10.435  37.243  0.00  0.00    +0.000 A 
ATOM     20  N   UNL     1      22.030  11.419  37.760  0.00  0.00    +0.000 NA
ATOM     21  C   UNL     1      23.342  11.128  37.581  0.00  0.00    +0.000 A 
ATOM     22  N   UNL     1      23.297   9.951  36.947  0.00  0.00    +0.000 NA
ATOM     23  O   UNL     1      22.060   9.595  36.776  0.00  0.00    +0.000 OA
BRANCH  21  24
ATOM     24  C   UNL     1      24.506  11.924  37.991  0.00  0.00    +0.000 A 
ATOM     25  C   UNL     1      24.609  13.265  37.699  0.00  0.00    +0.000 A 
ATOM     26  C   UNL     1      25.666  14.049  38.054  0.00  0.00    +0.000 A 
ATOM     27  C   UNL     1      26.707  13.499  38.747  0.00  0.00    +0.000 A 
ATOM     28  F   UNL     1      27.777  14.275  39.112  0.00  0.00    +0.000 F 
ATOM     29  C   UNL     1      26.653  12.158  39.065  0.00  0.00    +0.000 A 
ATOM     30  C   UNL     1      25.558  11.369  38.690  0.00  0.00    +0.000 A 
ENDBRANCH  21  24
ENDBRANCH   7  19
TORSDOF 5
ENDMDL
