MODEL 1
REMARK VINA RESULT:      -7.8      0.000      0.000
REMARK  Name = 
REMARK  9 active torsions:
REMARK  status: ('A' for Active; 'I' for Inactive)
REMARK    1  A    between atoms: O_2  and  C_3
REMARK    2  A    between atoms: C_6  and  C_7
REMARK    3  A    between atoms: C_7  and  C_8
REMARK    4  A    between atoms: C_8  and  N_9
REMARK    5  A    between atoms: C_10  and  C_12
REMARK    6  A    between atoms: C_12  and  N_19
REMARK    7  A    between atoms: C_13  and  C_14
REMARK    8  A    between atoms: C_20  and  C_22
REMARK    9  A    between atoms: C_29  and  O_30
REMARK                            x       y       z     vdW  Elec       q    Type
REMARK                         _______ _______ _______ _____ _____    ______ ____
ROOT
ATOM      1  C   UNL     1      36.523   0.286  16.344  0.00  0.00    +0.000 C 
ATOM      2  C   UNL     1      35.534  -0.584  16.320  0.00  0.00    +0.000 C 
ENDROOT
BRANCH   2   3
ATOM      3  C   UNL     1      35.876  -2.000  16.067  0.00  0.00    +0.000 A 
ATOM      4  C   UNL     1      35.731  -2.665  14.879  0.00  0.00    +0.000 A 
ATOM      5  C   UNL     1      36.097  -3.937  14.832  0.00  0.00    +0.000 A 
ATOM      6  C   UNL     1      36.595  -4.503  15.970  0.00  0.00    +0.000 A 
ATOM      7  S   UNL     1      36.531  -3.208  17.081  0.00  0.00    +0.000 S 
ENDBRANCH   2   3
BRANCH   1   9
ATOM      8  N   UNL     1      37.319   2.595  16.710  0.00  0.00    +0.000 NA
ATOM      9  C   UNL     1      36.256   1.688  16.588  0.00  0.00    +0.000 C 
ATOM     10  O   UNL     1      35.088   2.093  16.691  0.00  0.00    +0.000 OA
BRANCH   8  11
ATOM     11  C   UNL     1      37.231   4.006  16.953  0.00  0.00    +0.000 C 
BRANCH  11  12
ATOM     12  C   UNL     1      38.466   4.783  16.561  0.00  0.00    +0.000 C 
BRANCH  12  16
ATOM     13  C   UNL     1      39.045   7.611  19.769  0.00  0.00    +0.000 A 
ATOM     14  C   UNL     1      38.073   7.779  18.812  0.00  0.00    +0.000 A 
ATOM     15  C   UNL     1      37.886   6.877  17.792  0.00  0.00    +0.000 A 
ATOM     16  C   UNL     1      38.697   5.744  17.700  0.00  0.00    +0.000 A 
ATOM     17  C   UNL     1      39.674   5.548  18.639  0.00  0.00    +0.000 A 
ATOM     18  C   UNL     1      39.839   6.468  19.651  0.00  0.00    +0.000 A 
BRANCH  13  20
ATOM     19  C   UNL     1      38.399   9.660  20.830  0.00  0.00    +0.000 C 
ATOM     20  O   UNL     1      39.239   8.513  20.794  0.00  0.00    +0.000 OA
ENDBRANCH  13  20
BRANCH  18  21
ATOM     21  O   UNL     1      40.841   6.254  20.603  0.00  0.00    +0.000 OA
ATOM     22  C   UNL     1      42.175   6.653  20.417  0.00  0.00    +0.000 C 
ENDBRANCH  18  21
ENDBRANCH  12  16
ENDBRANCH  11  12
ENDBRANCH   8  11
ENDBRANCH   1   9
BRANCH   1  23
ATOM     23  N   UNL     1      37.830  -0.232  16.111  0.00  0.00    +0.000 NA
ATOM     24  C   UNL     1      38.509  -0.154  14.881  0.00  0.00    +0.000 C 
ATOM     25  O   UNL     1      37.877   0.434  13.930  0.00  0.00    +0.000 OA
BRANCH  24  26
ATOM     26  C   UNL     1      39.832  -0.677  14.624  0.00  0.00    +0.000 A 
ATOM     27  C   UNL     1      40.061  -2.036  14.802  0.00  0.00    +0.000 A 
ATOM     28  C   UNL     1      41.296  -2.621  14.587  0.00  0.00    +0.000 A 
ATOM     29  C   UNL     1      42.329  -1.817  14.184  0.00  0.00    +0.000 A 
ATOM     30  C   UNL     1      42.154  -0.474  13.996  0.00  0.00    +0.000 A 
ATOM     31  C   UNL     1      40.892   0.087  14.221  0.00  0.00    +0.000 A 
ENDBRANCH  24  26
ENDBRANCH   1  23
TORSDOF 9
ENDMDL
MODEL 2
REMARK VINA RESULT:      -7.7      1.241      2.202
REMARK  Name = 
REMARK  9 active torsions:
REMARK  status: ('A' for Active; 'I' for Inactive)
REMARK    1  A    between atoms: O_2  and  C_3
REMARK    2  A    between atoms: C_6  and  C_7
REMARK    3  A    between atoms: C_7  and  C_8
REMARK    4  A    between atoms: C_8  and  N_9
REMARK    5  A    between atoms: C_10  and  C_12
REMARK    6  A    between atoms: C_12  and  N_19
REMARK    7  A    between atoms: C_13  and  C_14
REMARK    8  A    between atoms: C_20  and  C_22
REMARK    9  A    between atoms: C_29  and  O_30
REMARK                            x       y       z     vdW  Elec       q    Type
REMARK                         _______ _______ _______ _____ _____    ______ ____
ROOT
ATOM      1  C   UNL     1      36.850   1.101  15.953  0.00  0.00    +0.000 C 
ATOM      2  C   UNL     1      35.714   0.444  16.079  0.00  0.00    +0.000 C 
ENDROOT
BRANCH   2   3
ATOM      3  C   UNL     1      35.779  -1.032  16.103  0.00  0.00    +0.000 A 
ATOM      4  C   UNL     1      35.800  -1.858  15.011  0.00  0.00    +0.000 A 
ATOM      5  C   UNL     1      35.866  -3.163  15.222  0.00  0.00    +0.000 A 
ATOM      6  C   UNL     1      35.909  -3.603  16.514  0.00  0.00    +0.000 A 
ATOM      7  S   UNL     1      35.855  -2.143  17.399  0.00  0.00    +0.000 S 
ENDBRANCH   2   3
BRANCH   1   9
ATOM      8  N   UNL     1      37.660   3.267  16.820  0.00  0.00    +0.000 NA
ATOM      9  C   UNL     1      36.855   2.549  15.922  0.00  0.00    +0.000 C 
ATOM     10  O   UNL     1      36.150   3.160  15.104  0.00  0.00    +0.000 OA
BRANCH   8  11
ATOM     11  C   UNL     1      37.780   4.693  16.925  0.00  0.00    +0.000 C 
BRANCH  11  12
ATOM     12  C   UNL     1      39.130   5.168  17.409  0.00  0.00    +0.000 C 
BRANCH  12  16
ATOM     13  C   UNL     1      38.340   8.393  20.165  0.00  0.00    +0.000 A 
ATOM     14  C   UNL     1      39.330   7.466  20.388  0.00  0.00    +0.000 A 
ATOM     15  C   UNL     1      39.585   6.441  19.509  0.00  0.00    +0.000 A 
ATOM     16  C   UNL     1      38.826   6.311  18.344  0.00  0.00    +0.000 A 
ATOM     17  C   UNL     1      37.832   7.220  18.093  0.00  0.00    +0.000 A 
ATOM     18  C   UNL     1      37.600   8.238  18.991  0.00  0.00    +0.000 A 
BRANCH  13  20
ATOM     19  C   UNL     1      38.961  10.539  21.032  0.00  0.00    +0.000 C 
ATOM     20  O   UNL     1      38.079   9.423  21.044  0.00  0.00    +0.000 OA
ENDBRANCH  13  20
BRANCH  18  21
ATOM     21  O   UNL     1      36.581   9.158  18.722  0.00  0.00    +0.000 OA
ATOM     22  C   UNL     1      36.720  10.215  17.809  0.00  0.00    +0.000 C 
ENDBRANCH  18  21
ENDBRANCH  12  16
ENDBRANCH  11  12
ENDBRANCH   8  11
ENDBRANCH   1   9
BRANCH   1  23
ATOM     23  N   UNL     1      38.031   0.312  15.843  0.00  0.00    +0.000 NA
ATOM     24  C   UNL     1      38.784   0.166  14.663  0.00  0.00    +0.000 C 
ATOM     25  O   UNL     1      38.347   0.805  13.639  0.00  0.00    +0.000 OA
BRANCH  24  26
ATOM     26  C   UNL     1      39.981  -0.634  14.532  0.00  0.00    +0.000 A 
ATOM     27  C   UNL     1      41.171  -0.007  14.182  0.00  0.00    +0.000 A 
ATOM     28  C   UNL     1      42.361  -0.695  14.027  0.00  0.00    +0.000 A 
ATOM     29  C   UNL     1      42.354  -2.050  14.228  0.00  0.00    +0.000 A 
ATOM     30  C   UNL     1      41.208  -2.712  14.573  0.00  0.00    +0.000 A 
ATOM     31  C   UNL     1      40.021  -1.988  14.723  0.00  0.00    +0.000 A 
ENDBRANCH  24  26
ENDBRANCH   1  23
TORSDOF 9
ENDMDL
MODEL 3
REMARK VINA RESULT:      -7.5      3.465      9.547
REMARK  Name = 
REMARK  9 active torsions:
REMARK  status: ('A' for Active; 'I' for Inactive)
REMARK    1  A    between atoms: O_2  and  C_3
REMARK    2  A    between atoms: C_6  and  C_7
REMARK    3  A    between atoms: C_7  and  C_8
REMARK    4  A    between atoms: C_8  and  N_9
REMARK    5  A    between atoms: C_10  and  C_12
REMARK    6  A    between atoms: C_12  and  N_19
REMARK    7  A    between atoms: C_13  and  C_14
REMARK    8  A    between atoms: C_20  and  C_22
REMARK    9  A    between atoms: C_29  and  O_30
REMARK                            x       y       z     vdW  Elec       q    Type
REMARK                         _______ _______ _______ _____ _____    ______ ____
ROOT
ATOM      1  C   UNL     1      38.959   6.077  18.613  0.00  0.00    +0.000 C 
ATOM      2  C   UNL     1      38.186   7.142  18.534  0.00  0.00    +0.000 C 
ENDROOT
BRANCH   2   3
ATOM      3  C   UNL     1      38.604   8.344  19.285  0.00  0.00    +0.000 A 
ATOM      4  C   UNL     1      38.239   8.664  20.566  0.00  0.00    +0.000 A 
ATOM      5  C   UNL     1      38.715   9.786  21.084  0.00  0.00    +0.000 A 
ATOM      6  C   UNL     1      39.540  10.550  20.310  0.00  0.00    +0.000 A 
ATOM      7  S   UNL     1      39.617   9.652  18.860  0.00  0.00    +0.000 S 
ENDBRANCH   2   3
BRANCH   1   9
ATOM      8  N   UNL     1      38.542   4.869  16.499  0.00  0.00    +0.000 NA
ATOM      9  C   UNL     1      38.606   4.866  17.901  0.00  0.00    +0.000 C 
ATOM     10  O   UNL     1      38.359   3.823  18.525  0.00  0.00    +0.000 OA
BRANCH   8  11
ATOM     11  C   UNL     1      38.208   3.766  15.645  0.00  0.00    +0.000 C 
BRANCH  11  12
ATOM     12  C   UNL     1      36.755   3.716  15.234  0.00  0.00    +0.000 C 
BRANCH  12  16
ATOM     13  C   UNL     1      35.461  -0.293  16.168  0.00  0.00    +0.000 A 
ATOM     14  C   UNL     1      35.111   0.787  16.941  0.00  0.00    +0.000 A 
ATOM     15  C   UNL     1      35.520   2.065  16.643  0.00  0.00    +0.000 A 
ATOM     16  C   UNL     1      36.320   2.302  15.523  0.00  0.00    +0.000 A 
ATOM     17  C   UNL     1      36.685   1.245  14.731  0.00  0.00    +0.000 A 
ATOM     18  C   UNL     1      36.260  -0.025  15.054  0.00  0.00    +0.000 A 
BRANCH  13  20
ATOM     19  C   UNL     1      35.748  -2.267  17.496  0.00  0.00    +0.000 C 
ATOM     20  O   UNL     1      35.055  -1.578  16.463  0.00  0.00    +0.000 OA
ENDBRANCH  13  20
BRANCH  18  21
ATOM     21  O   UNL     1      36.642  -1.094  14.237  0.00  0.00    +0.000 OA
ATOM     22  C   UNL     1      37.928  -1.656  14.257  0.00  0.00    +0.000 C 
ENDBRANCH  18  21
ENDBRANCH  12  16
ENDBRANCH  11  12
ENDBRANCH   8  11
ENDBRANCH   1   9
BRANCH   1  23
ATOM     23  N   UNL     1      40.121   6.194  19.429  0.00  0.00    +0.000 NA
ATOM     24  C   UNL     1      41.429   6.348  18.933  0.00  0.00    +0.000 C 
ATOM     25  O   UNL     1      41.542   6.383  17.655  0.00  0.00    +0.000 OA
BRANCH  24  26
ATOM     26  C   UNL     1      42.619   6.464  19.745  0.00  0.00    +0.000 A 
ATOM     27  C   UNL     1      43.800   6.888  19.147  0.00  0.00    +0.000 A 
ATOM     28  C   UNL     1      44.987   7.020  19.845  0.00  0.00    +0.000 A 
ATOM     29  C   UNL     1      44.986   6.717  21.181  0.00  0.00    +0.000 A 
ATOM     30  C   UNL     1      43.850   6.295  21.815  0.00  0.00    +0.000 A 
ATOM     31  C   UNL     1      42.666   6.173  21.081  0.00  0.00    +0.000 A 
ENDBRANCH  24  26
ENDBRANCH   1  23
TORSDOF 9
ENDMDL
MODEL 4
REMARK VINA RESULT:      -7.4      1.924      4.242
REMARK  Name = 
REMARK  9 active torsions:
REMARK  status: ('A' for Active; 'I' for Inactive)
REMARK    1  A    between atoms: O_2  and  C_3
REMARK    2  A    between atoms: C_6  and  C_7
REMARK    3  A    between atoms: C_7  and  C_8
REMARK    4  A    between atoms: C_8  and  N_9
REMARK    5  A    between atoms: C_10  and  C_12
REMARK    6  A    between atoms: C_12  and  N_19
REMARK    7  A    between atoms: C_13  and  C_14
REMARK    8  A    between atoms: C_20  and  C_22
REMARK    9  A    between atoms: C_29  and  O_30
REMARK                            x       y       z     vdW  Elec       q    Type
REMARK                         _______ _______ _______ _____ _____    ______ ____
ROOT
ATOM      1  C   UNL     1      38.604   1.224  14.508  0.00  0.00    +0.000 C 
ATOM      2  C   UNL     1      39.871   0.947  14.274  0.00  0.00    +0.000 C 
ENDROOT
BRANCH   2   3
ATOM      3  C   UNL     1      40.217  -0.459  13.973  0.00  0.00    +0.000 A 
ATOM      4  C   UNL     1      40.594  -1.409  14.883  0.00  0.00    +0.000 A 
ATOM      5  C   UNL     1      40.864  -2.625  14.434  0.00  0.00    +0.000 A 
ATOM      6  C   UNL     1      40.747  -2.854  13.093  0.00  0.00    +0.000 A 
ATOM      7  S   UNL     1      40.255  -1.328  12.504  0.00  0.00    +0.000 S 
ENDBRANCH   2   3
BRANCH   1   9
ATOM      8  N   UNL     1      38.779   3.265  15.887  0.00  0.00    +0.000 NA
ATOM      9  C   UNL     1      38.199   2.582  14.808  0.00  0.00    +0.000 C 
ATOM     10  O   UNL     1      37.338   3.146  14.115  0.00  0.00    +0.000 OA
BRANCH   8  11
ATOM     11  C   UNL     1      38.492   4.603  16.321  0.00  0.00    +0.000 C 
BRANCH  11  12
ATOM     12  C   UNL     1      39.514   5.628  15.890  0.00  0.00    +0.000 C 
BRANCH  12  16
ATOM     13  C   UNL     1      41.473   6.937  19.506  0.00  0.00    +0.000 A 
ATOM     14  C   UNL     1      42.174   6.621  18.367  0.00  0.00    +0.000 A 
ATOM     15  C   UNL     1      41.551   6.207  17.215  0.00  0.00    +0.000 A 
ATOM     16  C   UNL     1      40.159   6.094  17.170  0.00  0.00    +0.000 A 
ATOM     17  C   UNL     1      39.432   6.403  18.289  0.00  0.00    +0.000 A 
ATOM     18  C   UNL     1      40.083   6.815  19.431  0.00  0.00    +0.000 A 
BRANCH  13  20
ATOM     19  C   UNL     1      42.694   8.640  20.669  0.00  0.00    +0.000 C 
ATOM     20  O   UNL     1      42.092   7.351  20.667  0.00  0.00    +0.000 OA
ENDBRANCH  13  20
BRANCH  18  21
ATOM     21  O   UNL     1      39.327   7.126  20.566  0.00  0.00    +0.000 OA
ATOM     22  C   UNL     1      38.652   8.346  20.730  0.00  0.00    +0.000 C 
ENDBRANCH  18  21
ENDBRANCH  12  16
ENDBRANCH  11  12
ENDBRANCH   8  11
ENDBRANCH   1   9
BRANCH   1  23
ATOM     23  N   UNL     1      37.694   0.129  14.457  0.00  0.00    +0.000 NA
ATOM     24  C   UNL     1      37.126  -0.487  15.587  0.00  0.00    +0.000 C 
ATOM     25  O   UNL     1      37.472   0.000  16.723  0.00  0.00    +0.000 OA
BRANCH  24  26
ATOM     26  C   UNL     1      36.205  -1.601  15.554  0.00  0.00    +0.000 A 
ATOM     27  C   UNL     1      35.145  -1.621  16.451  0.00  0.00    +0.000 A 
ATOM     28  C   UNL     1      34.221  -2.650  16.496  0.00  0.00    +0.000 A 
ATOM     29  C   UNL     1      34.369  -3.688  15.613  0.00  0.00    +0.000 A 
ATOM     30  C   UNL     1      35.396  -3.713  14.711  0.00  0.00    +0.000 A 
ATOM     31  C   UNL     1      36.313  -2.657  14.692  0.00  0.00    +0.000 A 
ENDBRANCH  24  26
ENDBRANCH   1  23
TORSDOF 9
ENDMDL
MODEL 5
REMARK VINA RESULT:      -7.3      2.011      4.074
REMARK  Name = 
REMARK  9 active torsions:
REMARK  status: ('A' for Active; 'I' for Inactive)
REMARK    1  A    between atoms: O_2  and  C_3
REMARK    2  A    between atoms: C_6  and  C_7
REMARK    3  A    between atoms: C_7  and  C_8
REMARK    4  A    between atoms: C_8  and  N_9
REMARK    5  A    between atoms: C_10  and  C_12
REMARK    6  A    between atoms: C_12  and  N_19
REMARK    7  A    between atoms: C_13  and  C_14
REMARK    8  A    between atoms: C_20  and  C_22
REMARK    9  A    between atoms: C_29  and  O_30
REMARK                            x       y       z     vdW  Elec       q    Type
REMARK                         _______ _______ _______ _____ _____    ______ ____
ROOT
ATOM      1  C   UNL     1      39.075   1.994  14.527  0.00  0.00    +0.000 C 
ATOM      2  C   UNL     1      39.834   1.673  13.498  0.00  0.00    +0.000 C 
ENDROOT
BRANCH   2   3
ATOM      3  C   UNL     1      39.826   0.261  13.060  0.00  0.00    +0.000 A 
ATOM      4  C   UNL     1      40.621  -0.740  13.551  0.00  0.00    +0.000 A 
ATOM      5  C   UNL     1      40.475  -1.954  13.042  0.00  0.00    +0.000 A 
ATOM      6  C   UNL     1      39.541  -2.129  12.061  0.00  0.00    +0.000 A 
ATOM      7  S   UNL     1      38.893  -0.559  11.889  0.00  0.00    +0.000 S 
ENDBRANCH   2   3
BRANCH   1   9
ATOM      8  N   UNL     1      38.824   3.622  16.367  0.00  0.00    +0.000 NA
ATOM      9  C   UNL     1      39.036   3.361  15.006  0.00  0.00    +0.000 C 
ATOM     10  O   UNL     1      39.190   4.305  14.216  0.00  0.00    +0.000 OA
BRANCH   8  11
ATOM     11  C   UNL     1      38.754   4.906  17.003  0.00  0.00    +0.000 C 
BRANCH  11  12
ATOM     12  C   UNL     1      38.617   4.849  18.506  0.00  0.00    +0.000 C 
BRANCH  12  16
ATOM     13  C   UNL     1      40.279   8.591  19.867  0.00  0.00    +0.000 A 
ATOM     14  C   UNL     1      39.053   8.516  19.253  0.00  0.00    +0.000 A 
ATOM     15  C   UNL     1      38.521   7.325  18.822  0.00  0.00    +0.000 A 
ATOM     16  C   UNL     1      39.230   6.134  19.000  0.00  0.00    +0.000 A 
ATOM     17  C   UNL     1      40.456   6.177  19.610  0.00  0.00    +0.000 A 
ATOM     18  C   UNL     1      40.964   7.385  20.032  0.00  0.00    +0.000 A 
BRANCH  13  20
ATOM     19  C   UNL     1      39.958  10.690  20.978  0.00  0.00    +0.000 C 
ATOM     20  O   UNL     1      40.820   9.784  20.300  0.00  0.00    +0.000 OA
ENDBRANCH  13  20
BRANCH  18  21
ATOM     21  O   UNL     1      42.218   7.412  20.652  0.00  0.00    +0.000 OA
ATOM     22  C   UNL     1      42.857   6.263  21.144  0.00  0.00    +0.000 C 
ENDBRANCH  18  21
ENDBRANCH  12  16
ENDBRANCH  11  12
ENDBRANCH   8  11
ENDBRANCH   1   9
BRANCH   1  23
ATOM     23  N   UNL     1      38.329   0.936  15.121  0.00  0.00    +0.000 NA
ATOM     24  C   UNL     1      36.949   0.734  14.936  0.00  0.00    +0.000 C 
ATOM     25  O   UNL     1      36.357   1.579  14.172  0.00  0.00    +0.000 OA
BRANCH  24  26
ATOM     26  C   UNL     1      36.175  -0.330  15.534  0.00  0.00    +0.000 A 
ATOM     27  C   UNL     1      36.261  -1.607  14.992  0.00  0.00    +0.000 A 
ATOM     28  C   UNL     1      35.551  -2.683  15.495  0.00  0.00    +0.000 A 
ATOM     29  C   UNL     1      34.731  -2.468  16.571  0.00  0.00    +0.000 A 
ATOM     30  C   UNL     1      34.612  -1.229  17.139  0.00  0.00    +0.000 A 
ATOM     31  C   UNL     1      35.344  -0.163  16.607  0.00  0.00    +0.000 A 
ENDBRANCH  24  26
ENDBRANCH   1  23
TORSDOF 9
ENDMDL
MODEL 6
REMARK VINA RESULT:      -7.3      2.974      8.357
REMARK  Name = 
REMARK  9 active torsions:
REMARK  status: ('A' for Active; 'I' for Inactive)
REMARK    1  A    between atoms: O_2  and  C_3
REMARK    2  A    between atoms: C_6  and  C_7
REMARK    3  A    between atoms: C_7  and  C_8
REMARK    4  A    between atoms: C_8  and  N_9
REMARK    5  A    between atoms: C_10  and  C_12
REMARK    6  A    between atoms: C_12  and  N_19
REMARK    7  A    between atoms: C_13  and  C_14
REMARK    8  A    between atoms: C_20  and  C_22
REMARK    9  A    between atoms: C_29  and  O_30
REMARK                            x       y       z     vdW  Elec       q    Type
REMARK                         _______ _______ _______ _____ _____    ______ ____
ROOT
ATOM      1  C   UNL     1      35.833   2.647  15.921  0.00  0.00    +0.000 C 
ATOM      2  C   UNL     1      35.319   2.905  14.735  0.00  0.00    +0.000 C 
ENDROOT
BRANCH   2   3
ATOM      3  C   UNL     1      35.649   4.206  14.117  0.00  0.00    +0.000 A 
ATOM      4  C   UNL     1      34.958   5.376  14.282  0.00  0.00    +0.000 A 
ATOM      5  C   UNL     1      35.402   6.453  13.652  0.00  0.00    +0.000 A 
ATOM      6  C   UNL     1      36.522   6.328  12.880  0.00  0.00    +0.000 A 
ATOM      7  S   UNL     1      36.914   4.677  13.071  0.00  0.00    +0.000 S 
ENDBRANCH   2   3
BRANCH   1   9
ATOM      8  N   UNL     1      36.592   0.495  16.865  0.00  0.00    +0.000 NA
ATOM      9  C   UNL     1      35.549   1.389  16.581  0.00  0.00    +0.000 C 
ATOM     10  O   UNL     1      34.386   1.098  16.898  0.00  0.00    +0.000 OA
BRANCH   8  11
ATOM     11  C   UNL     1      36.485  -0.785  17.506  0.00  0.00    +0.000 C 
BRANCH  11  12
ATOM     12  C   UNL     1      36.252  -1.937  16.557  0.00  0.00    +0.000 C 
BRANCH  12  16
ATOM     13  C   UNL     1      40.076  -2.546  14.652  0.00  0.00    +0.000 A 
ATOM     14  C   UNL     1      39.804  -3.016  15.914  0.00  0.00    +0.000 A 
ATOM     15  C   UNL     1      38.586  -2.825  16.520  0.00  0.00    +0.000 A 
ATOM     16  C   UNL     1      37.572  -2.133  15.855  0.00  0.00    +0.000 A 
ATOM     17  C   UNL     1      37.811  -1.652  14.595  0.00  0.00    +0.000 A 
ATOM     18  C   UNL     1      39.042  -1.859  14.011  0.00  0.00    +0.000 A 
BRANCH  13  20
ATOM     19  C   UNL     1      42.355  -1.853  14.398  0.00  0.00    +0.000 C 
ATOM     20  O   UNL     1      41.297  -2.732  14.038  0.00  0.00    +0.000 OA
ENDBRANCH  13  20
BRANCH  18  21
ATOM     21  O   UNL     1      39.272  -1.361  12.724  0.00  0.00    +0.000 OA
ATOM     22  C   UNL     1      38.389  -0.490  12.067  0.00  0.00    +0.000 C 
ENDBRANCH  18  21
ENDBRANCH  12  16
ENDBRANCH  11  12
ENDBRANCH   8  11
ENDBRANCH   1   9
BRANCH   1  23
ATOM     23  N   UNL     1      36.651   3.663  16.493  0.00  0.00    +0.000 NA
ATOM     24  C   UNL     1      38.052   3.718  16.373  0.00  0.00    +0.000 C 
ATOM     25  O   UNL     1      38.593   2.772  15.693  0.00  0.00    +0.000 OA
BRANCH  24  26
ATOM     26  C   UNL     1      38.899   4.738  16.949  0.00  0.00    +0.000 A 
ATOM     27  C   UNL     1      38.855   4.948  18.322  0.00  0.00    +0.000 A 
ATOM     28  C   UNL     1      39.624   5.907  18.957  0.00  0.00    +0.000 A 
ATOM     29  C   UNL     1      40.459   6.676  18.190  0.00  0.00    +0.000 A 
ATOM     30  C   UNL     1      40.537   6.507  16.835  0.00  0.00    +0.000 A 
ATOM     31  C   UNL     1      39.747   5.529  16.224  0.00  0.00    +0.000 A 
ENDBRANCH  24  26
ENDBRANCH   1  23
TORSDOF 9
ENDMDL
MODEL 7
REMARK VINA RESULT:      -7.2      3.319      8.697
REMARK  Name = 
REMARK  9 active torsions:
REMARK  status: ('A' for Active; 'I' for Inactive)
REMARK    1  A    between atoms: O_2  and  C_3
REMARK    2  A    between atoms: C_6  and  C_7
REMARK    3  A    between atoms: C_7  and  C_8
REMARK    4  A    between atoms: C_8  and  N_9
REMARK    5  A    between atoms: C_10  and  C_12
REMARK    6  A    between atoms: C_12  and  N_19
REMARK    7  A    between atoms: C_13  and  C_14
REMARK    8  A    between atoms: C_20  and  C_22
REMARK    9  A    between atoms: C_29  and  O_30
REMARK                            x       y       z     vdW  Elec       q    Type
REMARK                         _______ _______ _______ _____ _____    ______ ____
ROOT
ATOM      1  C   UNL     1      38.172   4.971  16.030  0.00  0.00    +0.000 C 
ATOM      2  C   UNL     1      37.869   5.752  15.012  0.00  0.00    +0.000 C 
ENDROOT
BRANCH   2   3
ATOM      3  C   UNL     1      38.842   6.801  14.643  0.00  0.00    +0.000 A 
ATOM      4  C   UNL     1      39.915   6.649  13.806  0.00  0.00    +0.000 A 
ATOM      5  C   UNL     1      40.682   7.705  13.584  0.00  0.00    +0.000 A 
ATOM      6  C   UNL     1      40.354   8.877  14.202  0.00  0.00    +0.000 A 
ATOM      7  S   UNL     1      38.958   8.446  15.086  0.00  0.00    +0.000 S 
ENDBRANCH   2   3
BRANCH   1   9
ATOM      8  N   UNL     1      36.100   3.669  15.698  0.00  0.00    +0.000 NA
ATOM      9  C   UNL     1      37.262   3.923  16.442  0.00  0.00    +0.000 C 
ATOM     10  O   UNL     1      37.504   3.246  17.453  0.00  0.00    +0.000 OA
BRANCH   8  11
ATOM     11  C   UNL     1      35.099   2.678  15.967  0.00  0.00    +0.000 C 
BRANCH  11  12
ATOM     12  C   UNL     1      35.166   1.467  15.066  0.00  0.00    +0.000 C 
BRANCH  12  16
ATOM     13  C   UNL     1      36.652  -1.682  17.615  0.00  0.00    +0.000 A 
ATOM     14  C   UNL     1      35.341  -1.271  17.648  0.00  0.00    +0.000 A 
ATOM     15  C   UNL     1      34.866  -0.271  16.834  0.00  0.00    +0.000 A 
ATOM     16  C   UNL     1      35.723   0.368  15.935  0.00  0.00    +0.000 A 
ATOM     17  C   UNL     1      37.035  -0.019  15.879  0.00  0.00    +0.000 A 
ATOM     18  C   UNL     1      37.484  -1.024  16.706  0.00  0.00    +0.000 A 
BRANCH  13  20
ATOM     19  C   UNL     1      37.598  -2.314  19.724  0.00  0.00    +0.000 C 
ATOM     20  O   UNL     1      37.135  -2.684  18.431  0.00  0.00    +0.000 OA
ENDBRANCH  13  20
BRANCH  18  21
ATOM     21  O   UNL     1      38.827  -1.408  16.638  0.00  0.00    +0.000 OA
ATOM     22  C   UNL     1      39.346  -2.213  15.611  0.00  0.00    +0.000 C 
ENDBRANCH  18  21
ENDBRANCH  12  16
ENDBRANCH  11  12
ENDBRANCH   8  11
ENDBRANCH   1   9
BRANCH   1  23
ATOM     23  N   UNL     1      39.413   5.230  16.680  0.00  0.00    +0.000 NA
ATOM     24  C   UNL     1      39.550   5.976  17.865  0.00  0.00    +0.000 C 
ATOM     25  O   UNL     1      38.461   6.435  18.366  0.00  0.00    +0.000 OA
BRANCH  24  26
ATOM     26  C   UNL     1      40.801   6.253  18.536  0.00  0.00    +0.000 A 
ATOM     27  C   UNL     1      40.831   6.253  19.925  0.00  0.00    +0.000 A 
ATOM     28  C   UNL     1      41.981   6.515  20.649  0.00  0.00    +0.000 A 
ATOM     29  C   UNL     1      43.132   6.784  19.956  0.00  0.00    +0.000 A 
ATOM     30  C   UNL     1      43.152   6.796  18.588  0.00  0.00    +0.000 A 
ATOM     31  C   UNL     1      41.973   6.527  17.886  0.00  0.00    +0.000 A 
ENDBRANCH  24  26
ENDBRANCH   1  23
TORSDOF 9
ENDMDL
MODEL 8
REMARK VINA RESULT:      -7.1      2.075      4.251
REMARK  Name = 
REMARK  9 active torsions:
REMARK  status: ('A' for Active; 'I' for Inactive)
REMARK    1  A    between atoms: O_2  and  C_3
REMARK    2  A    between atoms: C_6  and  C_7
REMARK    3  A    between atoms: C_7  and  C_8
REMARK    4  A    between atoms: C_8  and  N_9
REMARK    5  A    between atoms: C_10  and  C_12
REMARK    6  A    between atoms: C_12  and  N_19
REMARK    7  A    between atoms: C_13  and  C_14
REMARK    8  A    between atoms: C_20  and  C_22
REMARK    9  A    between atoms: C_29  and  O_30
REMARK                            x       y       z     vdW  Elec       q    Type
REMARK                         _______ _______ _______ _____ _____    ______ ____
ROOT
ATOM      1  C   UNL     1      37.861   1.642  14.937  0.00  0.00    +0.000 C 
ATOM      2  C   UNL     1      39.018   1.649  14.306  0.00  0.00    +0.000 C 
ENDROOT
BRANCH   2   3
ATOM      3  C   UNL     1      39.354   0.465  13.487  0.00  0.00    +0.000 A 
ATOM      4  C   UNL     1      38.969   0.244  12.192  0.00  0.00    +0.000 A 
ATOM      5  C   UNL     1      39.368  -0.875  11.608  0.00  0.00    +0.000 A 
ATOM      6  C   UNL     1      40.139  -1.737  12.335  0.00  0.00    +0.000 A 
ATOM      7  S   UNL     1      40.277  -0.930  13.833  0.00  0.00    +0.000 S 
ENDBRANCH   2   3
BRANCH   1   9
ATOM      8  N   UNL     1      38.434   3.704  16.170  0.00  0.00    +0.000 NA
ATOM      9  C   UNL     1      37.471   2.772  15.756  0.00  0.00    +0.000 C 
ATOM     10  O   UNL     1      36.287   2.919  16.096  0.00  0.00    +0.000 OA
BRANCH   8  11
ATOM     11  C   UNL     1      38.220   4.869  16.980  0.00  0.00    +0.000 C 
BRANCH  11  12
ATOM     12  C   UNL     1      38.896   4.819  18.330  0.00  0.00    +0.000 C 
BRANCH  12  16
ATOM     13  C   UNL     1      39.117   8.891  19.743  0.00  0.00    +0.000 A 
ATOM     14  C   UNL     1      39.836   7.874  20.325  0.00  0.00    +0.000 A 
ATOM     15  C   UNL     1      39.768   6.578  19.873  0.00  0.00    +0.000 A 
ATOM     16  C   UNL     1      38.949   6.254  18.789  0.00  0.00    +0.000 A 
ATOM     17  C   UNL     1      38.221   7.246  18.187  0.00  0.00    +0.000 A 
ATOM     18  C   UNL     1      38.309   8.536  18.660  0.00  0.00    +0.000 A 
BRANCH  13  20
ATOM     19  C   UNL     1      40.463  10.727  20.491  0.00  0.00    +0.000 C 
ATOM     20  O   UNL     1      39.179  10.193  20.192  0.00  0.00    +0.000 OA
ENDBRANCH  13  20
BRANCH  18  21
ATOM     21  O   UNL     1      37.558   9.538  18.036  0.00  0.00    +0.000 OA
ATOM     22  C   UNL     1      36.154   9.552  18.023  0.00  0.00    +0.000 C 
ENDBRANCH  18  21
ENDBRANCH  12  16
ENDBRANCH  11  12
ENDBRANCH   8  11
ENDBRANCH   1   9
BRANCH   1  23
ATOM     23  N   UNL     1      37.053   0.481  14.770  0.00  0.00    +0.000 NA
ATOM     24  C   UNL     1      37.007  -0.594  15.676  0.00  0.00    +0.000 C 
ATOM     25  O   UNL     1      37.755  -0.483  16.713  0.00  0.00    +0.000 OA
BRANCH  24  26
ATOM     26  C   UNL     1      36.197  -1.781  15.520  0.00  0.00    +0.000 A 
ATOM     27  C   UNL     1      35.082  -1.944  16.334  0.00  0.00    +0.000 A 
ATOM     28  C   UNL     1      34.256  -3.051  16.259  0.00  0.00    +0.000 A 
ATOM     29  C   UNL     1      34.560  -4.021  15.341  0.00  0.00    +0.000 A 
ATOM     30  C   UNL     1      35.647  -3.907  14.519  0.00  0.00    +0.000 A 
ATOM     31  C   UNL     1      36.462  -2.775  14.619  0.00  0.00    +0.000 A 
ENDBRANCH  24  26
ENDBRANCH   1  23
TORSDOF 9
ENDMDL
MODEL 9
REMARK VINA RESULT:      -7.1      2.382      4.580
REMARK  Name = 
REMARK  9 active torsions:
REMARK  status: ('A' for Active; 'I' for Inactive)
REMARK    1  A    between atoms: O_2  and  C_3
REMARK    2  A    between atoms: C_6  and  C_7
REMARK    3  A    between atoms: C_7  and  C_8
REMARK    4  A    between atoms: C_8  and  N_9
REMARK    5  A    between atoms: C_10  and  C_12
REMARK    6  A    between atoms: C_12  and  N_19
REMARK    7  A    between atoms: C_13  and  C_14
REMARK    8  A    between atoms: C_20  and  C_22
REMARK    9  A    between atoms: C_29  and  O_30
REMARK                            x       y       z     vdW  Elec       q    Type
REMARK                         _______ _______ _______ _____ _____    ______ ____
ROOT
ATOM      1  C   UNL     1      38.961   2.039  14.648  0.00  0.00    +0.000 C 
ATOM      2  C   UNL     1      39.824   1.651  13.730  0.00  0.00    +0.000 C 
ENDROOT
BRANCH   2   3
ATOM      3  C   UNL     1      39.901   0.205  13.435  0.00  0.00    +0.000 A 
ATOM      4  C   UNL     1      39.215  -0.456  12.452  0.00  0.00    +0.000 A 
ATOM      5  C   UNL     1      39.413  -1.760  12.328  0.00  0.00    +0.000 A 
ATOM      6  C   UNL     1      40.288  -2.360  13.187  0.00  0.00    +0.000 A 
ATOM      7  S   UNL     1      40.809  -1.052  14.152  0.00  0.00    +0.000 S 
ENDBRANCH   2   3
BRANCH   1   9
ATOM      8  N   UNL     1      38.821   3.844  16.327  0.00  0.00    +0.000 NA
ATOM      9  C   UNL     1      38.835   3.443  14.983  0.00  0.00    +0.000 C 
ATOM     10  O   UNL     1      38.738   4.294  14.086  0.00  0.00    +0.000 OA
BRANCH   8  11
ATOM     11  C   UNL     1      38.701   5.183  16.830  0.00  0.00    +0.000 C 
BRANCH  11  12
ATOM     12  C   UNL     1      38.833   5.297  18.331  0.00  0.00    +0.000 C 
BRANCH  12  16
ATOM     13  C   UNL     1      42.682   7.092  19.092  0.00  0.00    +0.000 A 
ATOM     14  C   UNL     1      41.840   6.708  20.108  0.00  0.00    +0.000 A 
ATOM     15  C   UNL     1      40.616   6.133  19.866  0.00  0.00    +0.000 A 
ATOM     16  C   UNL     1      40.186   5.921  18.554  0.00  0.00    +0.000 A 
ATOM     17  C   UNL     1      41.004   6.293  17.520  0.00  0.00    +0.000 A 
ATOM     18  C   UNL     1      42.226   6.866  17.792  0.00  0.00    +0.000 A 
BRANCH  13  20
ATOM     19  C   UNL     1      43.984   8.679  20.329  0.00  0.00    +0.000 C 
ATOM     20  O   UNL     1      43.912   7.671  19.328  0.00  0.00    +0.000 OA
ENDBRANCH  13  20
BRANCH  18  21
ATOM     21  O   UNL     1      43.050   7.241  16.725  0.00  0.00    +0.000 OA
ATOM     22  C   UNL     1      43.083   6.554  15.501  0.00  0.00    +0.000 C 
ENDBRANCH  18  21
ENDBRANCH  12  16
ENDBRANCH  11  12
ENDBRANCH   8  11
ENDBRANCH   1   9
BRANCH   1  23
ATOM     23  N   UNL     1      38.194   1.014  15.272  0.00  0.00    +0.000 NA
ATOM     24  C   UNL     1      36.834   0.766  15.011  0.00  0.00    +0.000 C 
ATOM     25  O   UNL     1      36.282   1.535  14.144  0.00  0.00    +0.000 OA
BRANCH  24  26
ATOM     26  C   UNL     1      36.039  -0.266  15.638  0.00  0.00    +0.000 A 
ATOM     27  C   UNL     1      35.193   0.082  16.684  0.00  0.00    +0.000 A 
ATOM     28  C   UNL     1      34.403  -0.841  17.346  0.00  0.00    +0.000 A 
ATOM     29  C   UNL     1      34.467  -2.150  16.946  0.00  0.00    +0.000 A 
ATOM     30  C   UNL     1      35.285  -2.541  15.922  0.00  0.00    +0.000 A 
ATOM     31  C   UNL     1      36.070  -1.584  15.273  0.00  0.00    +0.000 A 
ENDBRANCH  24  26
ENDBRANCH   1  23
TORSDOF 9
ENDMDL
MODEL 10
REMARK VINA RESULT:      -7.1      1.678      2.798
REMARK  Name = 
REMARK  9 active torsions:
REMARK  status: ('A' for Active; 'I' for Inactive)
REMARK    1  A    between atoms: O_2  and  C_3
REMARK    2  A    between atoms: C_6  and  C_7
REMARK    3  A    between atoms: C_7  and  C_8
REMARK    4  A    between atoms: C_8  and  N_9
REMARK    5  A    between atoms: C_10  and  C_12
REMARK    6  A    between atoms: C_12  and  N_19
REMARK    7  A    between atoms: C_13  and  C_14
REMARK    8  A    between atoms: C_20  and  C_22
REMARK    9  A    between atoms: C_29  and  O_30
REMARK                            x       y       z     vdW  Elec       q    Type
REMARK                         _______ _______ _______ _____ _____    ______ ____
ROOT
ATOM      1  C   UNL     1      36.297   2.264  15.925  0.00  0.00    +0.000 C 
ATOM      2  C   UNL     1      35.296   1.699  16.571  0.00  0.00    +0.000 C 
ENDROOT
BRANCH   2   3
ATOM      3  C   UNL     1      35.539   0.374  17.179  0.00  0.00    +0.000 A 
ATOM      4  C   UNL     1      35.995   0.140  18.448  0.00  0.00    +0.000 A 
ATOM      5  C   UNL     1      36.150  -1.119  18.829  0.00  0.00    +0.000 A 
ATOM      6  C   UNL     1      35.844  -2.102  17.933  0.00  0.00    +0.000 A 
ATOM      7  S   UNL     1      35.342  -1.208  16.567  0.00  0.00    +0.000 S 
ENDBRANCH   2   3
BRANCH   1   9
ATOM      8  N   UNL     1      37.114   4.546  15.454  0.00  0.00    +0.000 NA
ATOM      9  C   UNL     1      36.125   3.562  15.306  0.00  0.00    +0.000 C 
ATOM     10  O   UNL     1      35.106   3.810  14.645  0.00  0.00    +0.000 OA
BRANCH   8  11
ATOM     11  C   UNL     1      37.101   5.876  14.914  0.00  0.00    +0.000 C 
BRANCH  11  12
ATOM     12  C   UNL     1      38.462   6.527  14.835  0.00  0.00    +0.000 C 
BRANCH  12  16
ATOM     13  C   UNL     1      39.904   6.705  18.898  0.00  0.00    +0.000 A 
ATOM     14  C   UNL     1      40.612   6.085  17.897  0.00  0.00    +0.000 A 
ATOM     15  C   UNL     1      40.155   6.031  16.603  0.00  0.00    +0.000 A 
ATOM     16  C   UNL     1      38.933   6.616  16.265  0.00  0.00    +0.000 A 
ATOM     17  C   UNL     1      38.204   7.242  17.240  0.00  0.00    +0.000 A 
ATOM     18  C   UNL     1      38.687   7.282  18.530  0.00  0.00    +0.000 A 
BRANCH  13  20
ATOM     19  C   UNL     1      41.719   6.431  20.439  0.00  0.00    +0.000 C 
ATOM     20  O   UNL     1      40.356   6.762  20.200  0.00  0.00    +0.000 OA
ENDBRANCH  13  20
BRANCH  18  21
ATOM     21  O   UNL     1      37.930   7.925  19.515  0.00  0.00    +0.000 OA
ATOM     22  C   UNL     1      37.450   9.238  19.382  0.00  0.00    +0.000 C 
ENDBRANCH  18  21
ENDBRANCH  12  16
ENDBRANCH  11  12
ENDBRANCH   8  11
ENDBRANCH   1   9
BRANCH   1  23
ATOM     23  N   UNL     1      37.515   1.527  15.871  0.00  0.00    +0.000 NA
ATOM     24  C   UNL     1      37.954   0.795  14.752  0.00  0.00    +0.000 C 
ATOM     25  O   UNL     1      37.179   0.820  13.729  0.00  0.00    +0.000 OA
BRANCH  24  26
ATOM     26  C   UNL     1      39.183   0.038  14.682  0.00  0.00    +0.000 A 
ATOM     27  C   UNL     1      40.311   0.639  14.136  0.00  0.00    +0.000 A 
ATOM     28  C   UNL     1      41.526  -0.013  14.022  0.00  0.00    +0.000 A 
ATOM     29  C   UNL     1      41.608  -1.305  14.469  0.00  0.00    +0.000 A 
ATOM     30  C   UNL     1      40.527  -1.940  15.013  0.00  0.00    +0.000 A 
ATOM     31  C   UNL     1      39.313  -1.253  15.115  0.00  0.00    +0.000 A 
ENDBRANCH  24  26
ENDBRANCH   1  23
TORSDOF 9
ENDMDL
