MODEL 1
REMARK VINA RESULT:      -6.7      0.000      0.000
REMARK  Name = 
REMARK  4 active torsions:
REMARK  status: ('A' for Active; 'I' for Inactive)
REMARK    1  A    between atoms: C_2  and  C_3
REMARK    2  A    between atoms: C_3  and  C_4
REMARK    3  A    between atoms: C_4  and  C_5
REMARK    4  A    between atoms: N_11  and  C_12
REMARK                            x       y       z     vdW  Elec       q    Type
REMARK                         _______ _______ _______ _____ _____    ______ ____
ROOT
ATOM      1  O   UNL     1      17.344  11.621  33.614  0.00  0.00    +0.000 OA
ATOM      2  C   UNL     1      16.574  10.703  33.990  0.00  0.00    +0.000 C 
ATOM      3  N   UNL     1      15.226  10.698  33.522  0.00  0.00    +0.000 NA
ENDROOT
BRANCH   3   4
ATOM      4  C   UNL     1      14.820  11.734  32.652  0.00  0.00    +0.000 A 
ATOM      5  C   UNL     1      14.966  11.549  31.296  0.00  0.00    +0.000 A 
ATOM      6  C   UNL     1      14.584  12.532  30.402  0.00  0.00    +0.000 A 
ATOM      7  C   UNL     1      14.055  13.691  30.920  0.00  0.00    +0.000 A 
ATOM      8  C   UNL     1      13.885  13.933  32.267  0.00  0.00    +0.000 A 
ATOM      9  O   UNL     1      13.345  15.127  32.725  0.00  0.00    +0.000 OA
ATOM     10  C   UNL     1      14.287  12.910  33.123  0.00  0.00    +0.000 A 
ENDBRANCH   3   4
BRANCH   2  11
ATOM     11  C   UNL     1      17.091   9.661  34.903  0.00  0.00    +0.000 C 
BRANCH  11  12
ATOM     12  C   UNL     1      18.078  10.276  35.855  0.00  0.00    +0.000 C 
BRANCH  12  13
ATOM     13  C   UNL     1      17.335  10.934  36.981  0.00  0.00    +0.000 C 
ATOM     14  C   UNL     1      17.687  12.390  36.995  0.00  0.00    +0.000 C 
ATOM     15  C   UNL     1      18.807  12.734  37.934  0.00  0.00    +0.000 C 
ATOM     16  C   UNL     1      19.676  11.540  38.159  0.00  0.00    +0.000 C 
ATOM     17  C   UNL     1      18.875  10.511  38.921  0.00  0.00    +0.000 C 
ATOM     18  C   UNL     1      17.524  10.268  38.305  0.00  0.00    +0.000 C 
ENDBRANCH  12  13
ENDBRANCH  11  12
ENDBRANCH   2  11
TORSDOF 4
ENDMDL
MODEL 2
REMARK VINA RESULT:      -6.5      1.662      2.086
REMARK  Name = 
REMARK  4 active torsions:
REMARK  status: ('A' for Active; 'I' for Inactive)
REMARK    1  A    between atoms: C_2  and  C_3
REMARK    2  A    between atoms: C_3  and  C_4
REMARK    3  A    between atoms: C_4  and  C_5
REMARK    4  A    between atoms: N_11  and  C_12
REMARK                            x       y       z     vdW  Elec       q    Type
REMARK                         _______ _______ _______ _____ _____    ______ ____
ROOT
ATOM      1  O   UNL     1      15.891  11.402  34.487  0.00  0.00    +0.000 OA
ATOM      2  C   UNL     1      16.616  10.496  34.006  0.00  0.00    +0.000 C 
ATOM      3  N   UNL     1      16.716  10.371  32.588  0.00  0.00    +0.000 NA
ENDROOT
BRANCH   3   4
ATOM      4  C   UNL     1      15.990  11.280  31.788  0.00  0.00    +0.000 A 
ATOM      5  C   UNL     1      14.730  10.923  31.364  0.00  0.00    +0.000 A 
ATOM      6  C   UNL     1      13.978  11.776  30.578  0.00  0.00    +0.000 A 
ATOM      7  C   UNL     1      14.537  12.988  30.243  0.00  0.00    +0.000 A 
ATOM      8  C   UNL     1      15.792  13.401  30.638  0.00  0.00    +0.000 A 
ATOM      9  O   UNL     1      16.298  14.638  30.263  0.00  0.00    +0.000 OA
ATOM     10  C   UNL     1      16.506  12.502  31.427  0.00  0.00    +0.000 A 
ENDBRANCH   3   4
BRANCH   2  11
ATOM     11  C   UNL     1      17.340   9.592  34.926  0.00  0.00    +0.000 C 
BRANCH  11  12
ATOM     12  C   UNL     1      18.190  10.407  35.861  0.00  0.00    +0.000 C 
BRANCH  12  13
ATOM     13  C   UNL     1      18.952   9.484  36.767  0.00  0.00    +0.000 C 
ATOM     14  C   UNL     1      18.195   9.349  38.052  0.00  0.00    +0.000 C 
ATOM     15  C   UNL     1      18.651  10.293  39.127  0.00  0.00    +0.000 C 
ATOM     16  C   UNL     1      19.289  11.498  38.517  0.00  0.00    +0.000 C 
ATOM     17  C   UNL     1      20.575  11.065  37.852  0.00  0.00    +0.000 C 
ATOM     18  C   UNL     1      20.382   9.868  36.962  0.00  0.00    +0.000 C 
ENDBRANCH  12  13
ENDBRANCH  11  12
ENDBRANCH   2  11
TORSDOF 4
ENDMDL
MODEL 3
REMARK VINA RESULT:      -6.2     20.778     22.686
REMARK  Name = 
REMARK  4 active torsions:
REMARK  status: ('A' for Active; 'I' for Inactive)
REMARK    1  A    between atoms: C_2  and  C_3
REMARK    2  A    between atoms: C_3  and  C_4
REMARK    3  A    between atoms: C_4  and  C_5
REMARK    4  A    between atoms: N_11  and  C_12
REMARK                            x       y       z     vdW  Elec       q    Type
REMARK                         _______ _______ _______ _____ _____    ______ ____
ROOT
ATOM      1  O   UNL     1      19.619  -9.157  23.864  0.00  0.00    +0.000 OA
ATOM      2  C   UNL     1      20.776  -9.194  24.353  0.00  0.00    +0.000 C 
ATOM      3  N   UNL     1      21.029  -8.506  25.577  0.00  0.00    +0.000 NA
ENDROOT
BRANCH   3   4
ATOM      4  C   UNL     1      19.959  -7.814  26.186  0.00  0.00    +0.000 A 
ATOM      5  C   UNL     1      19.125  -8.507  27.034  0.00  0.00    +0.000 A 
ATOM      6  C   UNL     1      18.064  -7.876  27.655  0.00  0.00    +0.000 A 
ATOM      7  C   UNL     1      17.879  -6.538  27.393  0.00  0.00    +0.000 A 
ATOM      8  C   UNL     1      18.680  -5.793  26.555  0.00  0.00    +0.000 A 
ATOM      9  O   UNL     1      18.439  -4.444  26.332  0.00  0.00    +0.000 OA
ATOM     10  C   UNL     1      19.735  -6.478  25.955  0.00  0.00    +0.000 A 
ENDBRANCH   3   4
BRANCH   2  11
ATOM     11  C   UNL     1      21.832  -9.945  23.641  0.00  0.00    +0.000 C 
BRANCH  11  12
ATOM     12  C   UNL     1      23.172  -9.337  23.949  0.00  0.00    +0.000 C 
BRANCH  12  13
ATOM     13  C   UNL     1      23.618  -8.508  22.780  0.00  0.00    +0.000 C 
ATOM     14  C   UNL     1      25.026  -8.061  23.027  0.00  0.00    +0.000 C 
ATOM     15  C   UNL     1      25.130  -6.697  23.647  0.00  0.00    +0.000 C 
ATOM     16  C   UNL     1      23.881  -6.379  24.404  0.00  0.00    +0.000 C 
ATOM     17  C   UNL     1      22.752  -6.235  23.410  0.00  0.00    +0.000 C 
ATOM     18  C   UNL     1      22.692  -7.385  22.443  0.00  0.00    +0.000 C 
ENDBRANCH  12  13
ENDBRANCH  11  12
ENDBRANCH   2  11
TORSDOF 4
ENDMDL
MODEL 4
REMARK VINA RESULT:      -5.9      2.885      4.575
REMARK  Name = 
REMARK  4 active torsions:
REMARK  status: ('A' for Active; 'I' for Inactive)
REMARK    1  A    between atoms: C_2  and  C_3
REMARK    2  A    between atoms: C_3  and  C_4
REMARK    3  A    between atoms: C_4  and  C_5
REMARK    4  A    between atoms: N_11  and  C_12
REMARK                            x       y       z     vdW  Elec       q    Type
REMARK                         _______ _______ _______ _____ _____    ______ ____
ROOT
ATOM      1  O   UNL     1      18.643  11.769  37.393  0.00  0.00    +0.000 OA
ATOM      2  C   UNL     1      18.172  10.707  37.870  0.00  0.00    +0.000 C 
ATOM      3  N   UNL     1      17.208   9.978  37.110  0.00  0.00    +0.000 NA
ENDROOT
BRANCH   3   4
ATOM      4  C   UNL     1      16.829  10.490  35.849  0.00  0.00    +0.000 A 
ATOM      5  C   UNL     1      17.463  10.010  34.727  0.00  0.00    +0.000 A 
ATOM      6  C   UNL     1      17.129  10.478  33.470  0.00  0.00    +0.000 A 
ATOM      7  C   UNL     1      16.143  11.435  33.390  0.00  0.00    +0.000 A 
ATOM      8  C   UNL     1      15.473  11.952  34.478  0.00  0.00    +0.000 A 
ATOM      9  O   UNL     1      14.487  12.917  34.328  0.00  0.00    +0.000 OA
ATOM     10  C   UNL     1      15.850  11.445  35.720  0.00  0.00    +0.000 A 
ENDBRANCH   3   4
BRANCH   2  11
ATOM     11  C   UNL     1      18.631  10.250  39.199  0.00  0.00    +0.000 C 
BRANCH  11  12
ATOM     12  C   UNL     1      18.038   8.901  39.496  0.00  0.00    +0.000 C 
BRANCH  12  13
ATOM     13  C   UNL     1      18.330   8.536  40.923  0.00  0.00    +0.000 C 
ATOM     14  C   UNL     1      17.793   7.162  41.180  0.00  0.00    +0.000 C 
ATOM     15  C   UNL     1      16.414   7.150  41.774  0.00  0.00    +0.000 C 
ATOM     16  C   UNL     1      15.689   8.406  41.418  0.00  0.00    +0.000 C 
ATOM     17  C   UNL     1      16.370   9.559  42.117  0.00  0.00    +0.000 C 
ATOM     18  C   UNL     1      17.861   9.548  41.916  0.00  0.00    +0.000 C 
ENDBRANCH  12  13
ENDBRANCH  11  12
ENDBRANCH   2  11
TORSDOF 4
ENDMDL
MODEL 5
REMARK VINA RESULT:      -5.8     21.971     23.973
REMARK  Name = 
REMARK  4 active torsions:
REMARK  status: ('A' for Active; 'I' for Inactive)
REMARK    1  A    between atoms: C_2  and  C_3
REMARK    2  A    between atoms: C_3  and  C_4
REMARK    3  A    between atoms: C_4  and  C_5
REMARK    4  A    between atoms: N_11  and  C_12
REMARK                            x       y       z     vdW  Elec       q    Type
REMARK                         _______ _______ _______ _____ _____    ______ ____
ROOT
ATOM      1  O   UNL     1      34.617  -6.117  32.759  0.00  0.00    +0.000 OA
ATOM      2  C   UNL     1      33.957  -5.050  32.691  0.00  0.00    +0.000 C 
ATOM      3  N   UNL     1      33.221  -4.769  31.502  0.00  0.00    +0.000 NA
ENDROOT
BRANCH   3   4
ATOM      4  C   UNL     1      33.268  -5.712  30.451  0.00  0.00    +0.000 A 
ATOM      5  C   UNL     1      34.286  -5.620  29.530  0.00  0.00    +0.000 A 
ATOM      6  C   UNL     1      34.378  -6.518  28.483  0.00  0.00    +0.000 A 
ATOM      7  C   UNL     1      33.417  -7.500  28.403  0.00  0.00    +0.000 A 
ATOM      8  C   UNL     1      32.376  -7.642  29.295  0.00  0.00    +0.000 A 
ATOM      9  O   UNL     1      31.439  -8.657  29.157  0.00  0.00    +0.000 OA
ATOM     10  C   UNL     1      32.332  -6.711  30.330  0.00  0.00    +0.000 A 
ENDBRANCH   3   4
BRANCH   2  11
ATOM     11  C   UNL     1      33.968  -4.124  33.844  0.00  0.00    +0.000 C 
BRANCH  11  12
ATOM     12  C   UNL     1      33.420  -2.791  33.419  0.00  0.00    +0.000 C 
BRANCH  12  13
ATOM     13  C   UNL     1      34.306  -1.700  33.949  0.00  0.00    +0.000 C 
ATOM     14  C   UNL     1      34.291  -1.762  35.445  0.00  0.00    +0.000 C 
ATOM     15  C   UNL     1      33.288  -0.842  36.080  0.00  0.00    +0.000 C 
ATOM     16  C   UNL     1      32.175  -0.555  35.125  0.00  0.00    +0.000 C 
ATOM     17  C   UNL     1      32.734   0.259  33.981  0.00  0.00    +0.000 C 
ATOM     18  C   UNL     1      33.988  -0.344  33.410  0.00  0.00    +0.000 C 
ENDBRANCH  12  13
ENDBRANCH  11  12
ENDBRANCH   2  11
TORSDOF 4
ENDMDL
MODEL 6
REMARK VINA RESULT:      -5.7      3.250      5.005
REMARK  Name = 
REMARK  4 active torsions:
REMARK  status: ('A' for Active; 'I' for Inactive)
REMARK    1  A    between atoms: C_2  and  C_3
REMARK    2  A    between atoms: C_3  and  C_4
REMARK    3  A    between atoms: C_4  and  C_5
REMARK    4  A    between atoms: N_11  and  C_12
REMARK                            x       y       z     vdW  Elec       q    Type
REMARK                         _______ _______ _______ _____ _____    ______ ____
ROOT
ATOM      1  O   UNL     1      18.244   9.160  36.888  0.00  0.00    +0.000 OA
ATOM      2  C   UNL     1      18.850  10.101  37.459  0.00  0.00    +0.000 C 
ATOM      3  N   UNL     1      18.250  11.395  37.482  0.00  0.00    +0.000 NA
ENDROOT
BRANCH   3   4
ATOM      4  C   UNL     1      16.992  11.556  36.859  0.00  0.00    +0.000 A 
ATOM      5  C   UNL     1      15.862  11.542  37.644  0.00  0.00    +0.000 A 
ATOM      6  C   UNL     1      14.608  11.696  37.083  0.00  0.00    +0.000 A 
ATOM      7  C   UNL     1      14.538  11.865  35.719  0.00  0.00    +0.000 A 
ATOM      8  C   UNL     1      15.634  11.888  34.883  0.00  0.00    +0.000 A 
ATOM      9  O   UNL     1      15.495  12.062  33.513  0.00  0.00    +0.000 OA
ATOM     10  C   UNL     1      16.873  11.728  35.500  0.00  0.00    +0.000 A 
ENDBRANCH   3   4
BRANCH   2  11
ATOM     11  C   UNL     1      20.164   9.834  38.084  0.00  0.00    +0.000 C 
BRANCH  11  12
ATOM     12  C   UNL     1      21.164  10.845  37.596  0.00  0.00    +0.000 C 
BRANCH  12  13
ATOM     13  C   UNL     1      22.499  10.561  38.220  0.00  0.00    +0.000 C 
ATOM     14  C   UNL     1      23.449  11.649  37.825  0.00  0.00    +0.000 C 
ATOM     15  C   UNL     1      24.280  11.319  36.618  0.00  0.00    +0.000 C 
ATOM     16  C   UNL     1      23.579  10.309  35.770  0.00  0.00    +0.000 C 
ATOM     17  C   UNL     1      23.525   9.007  36.534  0.00  0.00    +0.000 C 
ATOM     18  C   UNL     1      23.020   9.190  37.939  0.00  0.00    +0.000 C 
ENDBRANCH  12  13
ENDBRANCH  11  12
ENDBRANCH   2  11
TORSDOF 4
ENDMDL
MODEL 7
REMARK VINA RESULT:      -5.6      4.579      8.092
REMARK  Name = 
REMARK  4 active torsions:
REMARK  status: ('A' for Active; 'I' for Inactive)
REMARK    1  A    between atoms: C_2  and  C_3
REMARK    2  A    between atoms: C_3  and  C_4
REMARK    3  A    between atoms: C_4  and  C_5
REMARK    4  A    between atoms: N_11  and  C_12
REMARK                            x       y       z     vdW  Elec       q    Type
REMARK                         _______ _______ _______ _____ _____    ______ ____
ROOT
ATOM      1  O   UNL     1      21.227   9.464  39.149  0.00  0.00    +0.000 OA
ATOM      2  C   UNL     1      20.599  10.420  38.629  0.00  0.00    +0.000 C 
ATOM      3  N   UNL     1      21.251  11.218  37.642  0.00  0.00    +0.000 NA
ENDROOT
BRANCH   3   4
ATOM      4  C   UNL     1      22.581  10.891  37.294  0.00  0.00    +0.000 A 
ATOM      5  C   UNL     1      22.795  10.075  36.207  0.00  0.00    +0.000 A 
ATOM      6  C   UNL     1      24.076   9.725  35.826  0.00  0.00    +0.000 A 
ATOM      7  C   UNL     1      25.120  10.225  36.570  0.00  0.00    +0.000 A 
ATOM      8  C   UNL     1      24.967  11.047  37.667  0.00  0.00    +0.000 A 
ATOM      9  O   UNL     1      26.063  11.518  38.377  0.00  0.00    +0.000 OA
ATOM     10  C   UNL     1      23.654  11.367  38.008  0.00  0.00    +0.000 A 
ENDBRANCH   3   4
BRANCH   2  11
ATOM     11  C   UNL     1      19.209  10.684  39.058  0.00  0.00    +0.000 C 
BRANCH  11  12
ATOM     12  C   UNL     1      18.431  11.259  37.907  0.00  0.00    +0.000 C 
BRANCH  12  13
ATOM     13  C   UNL     1      17.274  10.356  37.592  0.00  0.00    +0.000 C 
ATOM     14  C   UNL     1      17.558   9.655  36.300  0.00  0.00    +0.000 C 
ATOM     15  C   UNL     1      16.966  10.334  35.098  0.00  0.00    +0.000 C 
ATOM     16  C   UNL     1      16.773  11.790  35.372  0.00  0.00    +0.000 C 
ATOM     17  C   UNL     1      15.703  11.934  36.428  0.00  0.00    +0.000 C 
ATOM     18  C   UNL     1      15.947  11.040  37.614  0.00  0.00    +0.000 C 
ENDBRANCH  12  13
ENDBRANCH  11  12
ENDBRANCH   2  11
TORSDOF 4
ENDMDL
MODEL 8
REMARK VINA RESULT:      -5.6     20.013     20.906
REMARK  Name = 
REMARK  4 active torsions:
REMARK  status: ('A' for Active; 'I' for Inactive)
REMARK    1  A    between atoms: C_2  and  C_3
REMARK    2  A    between atoms: C_3  and  C_4
REMARK    3  A    between atoms: C_4  and  C_5
REMARK    4  A    between atoms: N_11  and  C_12
REMARK                            x       y       z     vdW  Elec       q    Type
REMARK                         _______ _______ _______ _____ _____    ______ ____
ROOT
ATOM      1  O   UNL     1      22.616   3.750  18.468  0.00  0.00    +0.000 OA
ATOM      2  C   UNL     1      23.440   2.926  17.998  0.00  0.00    +0.000 C 
ATOM      3  N   UNL     1      22.991   1.978  17.031  0.00  0.00    +0.000 NA
ENDROOT
BRANCH   3   4
ATOM      4  C   UNL     1      21.633   2.012  16.645  0.00  0.00    +0.000 A 
ATOM      5  C   UNL     1      20.707   1.376  17.440  0.00  0.00    +0.000 A 
ATOM      6  C   UNL     1      19.366   1.380  17.106  0.00  0.00    +0.000 A 
ATOM      7  C   UNL     1      18.998   2.043  15.958  0.00  0.00    +0.000 A 
ATOM      8  C   UNL     1      19.880   2.697  15.124  0.00  0.00    +0.000 A 
ATOM      9  O   UNL     1      19.444   3.348  13.978  0.00  0.00    +0.000 OA
ATOM     10  C   UNL     1      21.219   2.661  15.507  0.00  0.00    +0.000 A 
ENDBRANCH   3   4
BRANCH   2  11
ATOM     11  C   UNL     1      24.842   2.968  18.464  0.00  0.00    +0.000 C 
BRANCH  11  12
ATOM     12  C   UNL     1      25.259   4.399  18.665  0.00  0.00    +0.000 C 
BRANCH  12  13
ATOM     13  C   UNL     1      25.739   4.962  17.358  0.00  0.00    +0.000 C 
ATOM     14  C   UNL     1      26.994   4.245  16.966  0.00  0.00    +0.000 C 
ATOM     15  C   UNL     1      28.252   4.950  17.386  0.00  0.00    +0.000 C 
ATOM     16  C   UNL     1      27.982   5.825  18.566  0.00  0.00    +0.000 C 
ATOM     17  C   UNL     1      27.074   6.948  18.123  0.00  0.00    +0.000 C 
ATOM     18  C   UNL     1      25.881   6.448  17.354  0.00  0.00    +0.000 C 
ENDBRANCH  12  13
ENDBRANCH  11  12
ENDBRANCH   2  11
TORSDOF 4
ENDMDL
MODEL 9
REMARK VINA RESULT:      -5.6     20.034     21.126
REMARK  Name = 
REMARK  4 active torsions:
REMARK  status: ('A' for Active; 'I' for Inactive)
REMARK    1  A    between atoms: C_2  and  C_3
REMARK    2  A    between atoms: C_3  and  C_4
REMARK    3  A    between atoms: C_4  and  C_5
REMARK    4  A    between atoms: N_11  and  C_12
REMARK                            x       y       z     vdW  Elec       q    Type
REMARK                         _______ _______ _______ _____ _____    ______ ____
ROOT
ATOM      1  O   UNL     1      23.891   4.005  16.877  0.00  0.00    +0.000 OA
ATOM      2  C   UNL     1      24.282   3.513  17.964  0.00  0.00    +0.000 C 
ATOM      3  N   UNL     1      23.641   2.339  18.460  0.00  0.00    +0.000 NA
ENDROOT
BRANCH   3   4
ATOM      4  C   UNL     1      22.590   1.782  17.697  0.00  0.00    +0.000 A 
ATOM      5  C   UNL     1      22.906   0.911  16.680  0.00  0.00    +0.000 A 
ATOM      6  C   UNL     1      21.915   0.339  15.905  0.00  0.00    +0.000 A 
ATOM      7  C   UNL     1      20.611   0.672  16.192  0.00  0.00    +0.000 A 
ATOM      8  C   UNL     1      20.235   1.537  17.198  0.00  0.00    +0.000 A 
ATOM      9  O   UNL     1      18.900   1.833  17.436  0.00  0.00    +0.000 OA
ATOM     10  C   UNL     1      21.273   2.085  17.948  0.00  0.00    +0.000 A 
ENDBRANCH   3   4
BRANCH   2  11
ATOM     11  C   UNL     1      25.391   4.168  18.691  0.00  0.00    +0.000 C 
BRANCH  11  12
ATOM     12  C   UNL     1      26.358   4.756  17.702  0.00  0.00    +0.000 C 
BRANCH  12  13
ATOM     13  C   UNL     1      26.279   6.254  17.764  0.00  0.00    +0.000 C 
ATOM     14  C   UNL     1      26.016   6.772  16.384  0.00  0.00    +0.000 C 
ATOM     15  C   UNL     1      27.257   7.170  15.638  0.00  0.00    +0.000 C 
ATOM     16  C   UNL     1      28.438   6.423  16.167  0.00  0.00    +0.000 C 
ATOM     17  C   UNL     1      28.701   6.897  17.578  0.00  0.00    +0.000 C 
ATOM     18  C   UNL     1      27.456   6.897  18.422  0.00  0.00    +0.000 C 
ENDBRANCH  12  13
ENDBRANCH  11  12
ENDBRANCH   2  11
TORSDOF 4
ENDMDL
MODEL 10
REMARK VINA RESULT:      -5.6     22.897     25.004
REMARK  Name = 
REMARK  4 active torsions:
REMARK  status: ('A' for Active; 'I' for Inactive)
REMARK    1  A    between atoms: C_2  and  C_3
REMARK    2  A    between atoms: C_3  and  C_4
REMARK    3  A    between atoms: C_4  and  C_5
REMARK    4  A    between atoms: N_11  and  C_12
REMARK                            x       y       z     vdW  Elec       q    Type
REMARK                         _______ _______ _______ _____ _____    ______ ____
ROOT
ATOM      1  O   UNL     1      28.732  27.036  21.120  0.00  0.00    +0.000 OA
ATOM      2  C   UNL     1      29.493  26.356  20.387  0.00  0.00    +0.000 C 
ATOM      3  N   UNL     1      29.681  24.974  20.683  0.00  0.00    +0.000 NA
ENDROOT
BRANCH   3   4
ATOM      4  C   UNL     1      28.997  24.431  21.794  0.00  0.00    +0.000 A 
ATOM      5  C   UNL     1      29.667  24.326  22.991  0.00  0.00    +0.000 A 
ATOM      6  C   UNL     1      29.042  23.802  24.108  0.00  0.00    +0.000 A 
ATOM      7  C   UNL     1      27.734  23.397  23.973  0.00  0.00    +0.000 A 
ATOM      8  C   UNL     1      27.013  23.478  22.801  0.00  0.00    +0.000 A 
ATOM      9  O   UNL     1      25.695  23.050  22.731  0.00  0.00    +0.000 OA
ATOM     10  C   UNL     1      27.691  24.013  21.707  0.00  0.00    +0.000 A 
ENDBRANCH   3   4
BRANCH   2  11
ATOM     11  C   UNL     1      30.165  27.013  19.245  0.00  0.00    +0.000 C 
BRANCH  11  12
ATOM     12  C   UNL     1      29.238  28.028  18.636  0.00  0.00    +0.000 C 
BRANCH  12  13
ATOM     13  C   UNL     1      30.043  29.025  17.854  0.00  0.00    +0.000 C 
ATOM     14  C   UNL     1      29.102  29.861  17.043  0.00  0.00    +0.000 C 
ATOM     15  C   UNL     1      28.909  29.367  15.638  0.00  0.00    +0.000 C 
ATOM     16  C   UNL     1      29.189  27.902  15.564  0.00  0.00    +0.000 C 
ATOM     17  C   UNL     1      30.663  27.690  15.818  0.00  0.00    +0.000 C 
ATOM     18  C   UNL     1      31.141  28.418  17.045  0.00  0.00    +0.000 C 
ENDBRANCH  12  13
ENDBRANCH  11  12
ENDBRANCH   2  11
TORSDOF 4
ENDMDL
