MODEL 1
REMARK VINA RESULT:      -5.2      0.000      0.000
REMARK  Name = 
REMARK  6 active torsions:
REMARK  status: ('A' for Active; 'I' for Inactive)
REMARK    1  A    between atoms: C_2  and  N_3
REMARK    2  A    between atoms: N_3  and  C_4
REMARK    3  A    between atoms: N_3  and  C_6
REMARK    4  A    between atoms: C_6  and  N_8
REMARK    5  A    between atoms: C_9  and  C_11
REMARK    6  A    between atoms: C_16  and  N_17
REMARK                            x       y       z     vdW  Elec       q    Type
REMARK                         _______ _______ _______ _____ _____    ______ ____
ROOT
ATOM      1  N   UNL     1      22.083  -8.236  25.563  0.00  0.00    +0.000 NA
ATOM      2  C   UNL     1      20.787  -8.125  25.104  0.00  0.00    +0.000 C 
ATOM      3  O   UNL     1      20.333  -8.676  24.078  0.00  0.00    +0.000 OA
ENDROOT
BRANCH   2   4
ATOM      4  C   UNL     1      19.837  -7.284  25.874  0.00  0.00    +0.000 A 
ATOM      5  C   UNL     1      19.934  -5.889  25.716  0.00  0.00    +0.000 A 
ATOM      6  C   UNL     1      19.118  -5.030  26.392  0.00  0.00    +0.000 A 
ATOM      7  C   UNL     1      18.184  -5.604  27.252  0.00  0.00    +0.000 A 
ATOM      8  C   UNL     1      18.090  -6.960  27.405  0.00  0.00    +0.000 A 
ATOM      9  C   UNL     1      18.928  -7.859  26.710  0.00  0.00    +0.000 A 
BRANCH   9  10
ATOM     10  N   UNL     1      18.758  -9.250  26.944  0.00  0.00    +0.000 N 
ATOM     11  O   UNL     1      19.395  -9.772  27.919  0.00  0.00    +0.000 OA
ATOM     12  O   UNL     1      17.975 -10.048  26.210  0.00  0.00    +0.000 OA
ENDBRANCH   9  10
ENDBRANCH   2   4
BRANCH   1  13
ATOM     13  C   UNL     1      23.158  -8.942  25.057  0.00  0.00    +0.000 C 
ATOM     14  S   UNL     1      23.417 -10.465  25.773  0.00  0.00    +0.000 S 
BRANCH  13  15
ATOM     15  N   UNL     1      24.047  -8.617  24.044  0.00  0.00    +0.000 N 
BRANCH  15  17
ATOM     16  C   UNL     1      26.389  -8.645  23.624  0.00  0.00    +0.000 C 
ATOM     17  C   UNL     1      25.151  -9.556  23.748  0.00  0.00    +0.000 C 
ENDBRANCH  15  17
BRANCH  15  18
ATOM     18  C   UNL     1      24.016  -7.446  23.209  0.00  0.00    +0.000 C 
ATOM     19  C   UNL     1      23.080  -7.777  22.020  0.00  0.00    +0.000 C 
ENDBRANCH  15  18
ENDBRANCH  13  15
ENDBRANCH   1  13
TORSDOF 6
ENDMDL
MODEL 2
REMARK VINA RESULT:      -4.8     32.046     33.503
REMARK  Name = 
REMARK  6 active torsions:
REMARK  status: ('A' for Active; 'I' for Inactive)
REMARK    1  A    between atoms: C_2  and  N_3
REMARK    2  A    between atoms: N_3  and  C_4
REMARK    3  A    between atoms: N_3  and  C_6
REMARK    4  A    between atoms: C_6  and  N_8
REMARK    5  A    between atoms: C_9  and  C_11
REMARK    6  A    between atoms: C_16  and  N_17
REMARK                            x       y       z     vdW  Elec       q    Type
REMARK                         _______ _______ _______ _____ _____    ______ ____
ROOT
ATOM      1  N   UNL     1      26.411  24.695  26.587  0.00  0.00    +0.000 NA
ATOM      2  C   UNL     1      26.543  23.606  25.752  0.00  0.00    +0.000 C 
ATOM      3  O   UNL     1      25.602  22.905  25.323  0.00  0.00    +0.000 OA
ENDROOT
BRANCH   2   4
ATOM      4  C   UNL     1      27.908  23.213  25.317  0.00  0.00    +0.000 A 
ATOM      5  C   UNL     1      28.745  22.616  26.277  0.00  0.00    +0.000 A 
ATOM      6  C   UNL     1      30.021  22.236  25.981  0.00  0.00    +0.000 A 
ATOM      7  C   UNL     1      30.456  22.471  24.678  0.00  0.00    +0.000 A 
ATOM      8  C   UNL     1      29.641  23.052  23.745  0.00  0.00    +0.000 A 
ATOM      9  C   UNL     1      28.319  23.449  24.040  0.00  0.00    +0.000 A 
BRANCH   9  10
ATOM     10  N   UNL     1      27.554  24.052  23.004  0.00  0.00    +0.000 N 
ATOM     11  O   UNL     1      27.597  25.322  22.895  0.00  0.00    +0.000 OA
ATOM     12  O   UNL     1      26.792  23.375  22.138  0.00  0.00    +0.000 OA
ENDBRANCH   9  10
ENDBRANCH   2   4
BRANCH   1  13
ATOM     13  C   UNL     1      25.283  25.275  27.135  0.00  0.00    +0.000 C 
ATOM     14  S   UNL     1      25.247  25.304  28.838  0.00  0.00    +0.000 S 
BRANCH  13  15
ATOM     15  N   UNL     1      24.184  25.855  26.521  0.00  0.00    +0.000 N 
BRANCH  15  17
ATOM     16  C   UNL     1      21.880  26.409  26.303  0.00  0.00    +0.000 C 
ATOM     17  C   UNL     1      22.989  26.146  27.343  0.00  0.00    +0.000 C 
ENDBRANCH  15  17
BRANCH  15  18
ATOM     18  C   UNL     1      24.068  26.236  25.138  0.00  0.00    +0.000 C 
ATOM     19  C   UNL     1      25.100  27.367  24.904  0.00  0.00    +0.000 C 
ENDBRANCH  15  18
ENDBRANCH  13  15
ENDBRANCH   1  13
TORSDOF 6
ENDMDL
MODEL 3
REMARK VINA RESULT:      -4.8      3.909      7.300
REMARK  Name = 
REMARK  6 active torsions:
REMARK  status: ('A' for Active; 'I' for Inactive)
REMARK    1  A    between atoms: C_2  and  N_3
REMARK    2  A    between atoms: N_3  and  C_4
REMARK    3  A    between atoms: N_3  and  C_6
REMARK    4  A    between atoms: C_6  and  N_8
REMARK    5  A    between atoms: C_9  and  C_11
REMARK    6  A    between atoms: C_16  and  N_17
REMARK                            x       y       z     vdW  Elec       q    Type
REMARK                         _______ _______ _______ _____ _____    ______ ____
ROOT
ATOM      1  N   UNL     1      16.091  -8.641  25.525  0.00  0.00    +0.000 NA
ATOM      2  C   UNL     1      17.010  -8.450  26.535  0.00  0.00    +0.000 C 
ATOM      3  O   UNL     1      17.049  -9.088  27.609  0.00  0.00    +0.000 OA
ENDROOT
BRANCH   2   4
ATOM      4  C   UNL     1      18.047  -7.401  26.355  0.00  0.00    +0.000 A 
ATOM      5  C   UNL     1      17.756  -6.116  26.847  0.00  0.00    +0.000 A 
ATOM      6  C   UNL     1      18.636  -5.081  26.716  0.00  0.00    +0.000 A 
ATOM      7  C   UNL     1      19.836  -5.361  26.067  0.00  0.00    +0.000 A 
ATOM      8  C   UNL     1      20.118  -6.611  25.589  0.00  0.00    +0.000 A 
ATOM      9  C   UNL     1      19.216  -7.690  25.719  0.00  0.00    +0.000 A 
BRANCH   9  10
ATOM     10  N   UNL     1      19.597  -8.950  25.182  0.00  0.00    +0.000 N 
ATOM     11  O   UNL     1      19.273  -9.204  23.975  0.00  0.00    +0.000 OA
ATOM     12  O   UNL     1      20.272  -9.885  25.859  0.00  0.00    +0.000 OA
ENDBRANCH   9  10
ENDBRANCH   2   4
BRANCH   1  13
ATOM     13  C   UNL     1      15.039  -9.531  25.425  0.00  0.00    +0.000 C 
ATOM     14  S   UNL     1      15.252 -10.764  24.269  0.00  0.00    +0.000 S 
BRANCH  13  15
ATOM     15  N   UNL     1      13.847  -9.593  26.128  0.00  0.00    +0.000 N 
BRANCH  15  17
ATOM     16  C   UNL     1      11.612  -8.882  26.531  0.00  0.00    +0.000 C 
ATOM     17  C   UNL     1      13.037  -8.361  26.253  0.00  0.00    +0.000 C 
ENDBRANCH  15  17
BRANCH  15  18
ATOM     18  C   UNL     1      13.275 -10.753  26.760  0.00  0.00    +0.000 C 
ATOM     19  C   UNL     1      14.258 -11.173  27.882  0.00  0.00    +0.000 C 
ENDBRANCH  15  18
ENDBRANCH  13  15
ENDBRANCH   1  13
TORSDOF 6
ENDMDL
MODEL 4
REMARK VINA RESULT:      -4.7     21.196     22.273
REMARK  Name = 
REMARK  6 active torsions:
REMARK  status: ('A' for Active; 'I' for Inactive)
REMARK    1  A    between atoms: C_2  and  N_3
REMARK    2  A    between atoms: N_3  and  C_4
REMARK    3  A    between atoms: N_3  and  C_6
REMARK    4  A    between atoms: C_6  and  N_8
REMARK    5  A    between atoms: C_9  and  C_11
REMARK    6  A    between atoms: C_16  and  N_17
REMARK                            x       y       z     vdW  Elec       q    Type
REMARK                         _______ _______ _______ _____ _____    ______ ____
ROOT
ATOM      1  N   UNL     1      20.131   9.182  39.683  0.00  0.00    +0.000 NA
ATOM      2  C   UNL     1      18.892   8.893  39.150  0.00  0.00    +0.000 C 
ATOM      3  O   UNL     1      18.609   8.894  37.933  0.00  0.00    +0.000 OA
ENDROOT
BRANCH   2   4
ATOM      4  C   UNL     1      17.786   8.553  40.082  0.00  0.00    +0.000 A 
ATOM      5  C   UNL     1      16.742   9.486  40.212  0.00  0.00    +0.000 A 
ATOM      6  C   UNL     1      15.690   9.274  41.054  0.00  0.00    +0.000 A 
ATOM      7  C   UNL     1      15.704   8.087  41.783  0.00  0.00    +0.000 A 
ATOM      8  C   UNL     1      16.720   7.181  41.656  0.00  0.00    +0.000 A 
ATOM      9  C   UNL     1      17.813   7.389  40.788  0.00  0.00    +0.000 A 
BRANCH   9  10
ATOM     10  N   UNL     1      18.824   6.390  40.733  0.00  0.00    +0.000 N 
ATOM     11  O   UNL     1      19.706   6.386  41.654  0.00  0.00    +0.000 OA
ATOM     12  O   UNL     1      18.912   5.457  39.779  0.00  0.00    +0.000 OA
ENDBRANCH   9  10
ENDBRANCH   2   4
BRANCH   1  13
ATOM     13  C   UNL     1      21.318   9.521  39.062  0.00  0.00    +0.000 C 
ATOM     14  S   UNL     1      22.691   8.701  39.646  0.00  0.00    +0.000 S 
BRANCH  13  15
ATOM     15  N   UNL     1      21.567  10.407  38.026  0.00  0.00    +0.000 N 
BRANCH  15  17
ATOM     16  C   UNL     1      23.077  10.358  36.187  0.00  0.00    +0.000 C 
ATOM     17  C   UNL     1      21.690   9.870  36.653  0.00  0.00    +0.000 C 
ENDBRANCH  15  17
BRANCH  15  18
ATOM     18  C   UNL     1      21.710  11.836  38.125  0.00  0.00    +0.000 C 
ATOM     19  C   UNL     1      20.278  12.414  38.249  0.00  0.00    +0.000 C 
ENDBRANCH  15  18
ENDBRANCH  13  15
ENDBRANCH   1  13
TORSDOF 6
ENDMDL
MODEL 5
REMARK VINA RESULT:      -4.7     31.649     32.945
REMARK  Name = 
REMARK  6 active torsions:
REMARK  status: ('A' for Active; 'I' for Inactive)
REMARK    1  A    between atoms: C_2  and  N_3
REMARK    2  A    between atoms: N_3  and  C_4
REMARK    3  A    between atoms: N_3  and  C_6
REMARK    4  A    between atoms: C_6  and  N_8
REMARK    5  A    between atoms: C_9  and  C_11
REMARK    6  A    between atoms: C_16  and  N_17
REMARK                            x       y       z     vdW  Elec       q    Type
REMARK                         _______ _______ _______ _____ _____    ______ ____
ROOT
ATOM      1  N   UNL     1      28.573  23.742  25.951  0.00  0.00    +0.000 NA
ATOM      2  C   UNL     1      27.387  23.165  26.354  0.00  0.00    +0.000 C 
ATOM      3  O   UNL     1      26.560  22.609  25.600  0.00  0.00    +0.000 OA
ENDROOT
BRANCH   2   4
ATOM      4  C   UNL     1      27.042  23.199  27.798  0.00  0.00    +0.000 A 
ATOM      5  C   UNL     1      27.592  22.197  28.617  0.00  0.00    +0.000 A 
ATOM      6  C   UNL     1      27.323  22.132  29.953  0.00  0.00    +0.000 A 
ATOM      7  C   UNL     1      26.471  23.108  30.465  0.00  0.00    +0.000 A 
ATOM      8  C   UNL     1      25.935  24.082  29.668  0.00  0.00    +0.000 A 
ATOM      9  C   UNL     1      26.208  24.160  28.285  0.00  0.00    +0.000 A 
BRANCH   9  10
ATOM     10  N   UNL     1      25.596  25.205  27.540  0.00  0.00    +0.000 N 
ATOM     11  O   UNL     1      24.416  25.009  27.098  0.00  0.00    +0.000 OA
ATOM     12  O   UNL     1      26.177  26.379  27.272  0.00  0.00    +0.000 OA
ENDBRANCH   9  10
ENDBRANCH   2   4
BRANCH   1  13
ATOM     13  C   UNL     1      29.138  23.850  24.695  0.00  0.00    +0.000 C 
ATOM     14  S   UNL     1      30.629  23.049  24.508  0.00  0.00    +0.000 S 
BRANCH  13  15
ATOM     15  N   UNL     1      28.675  24.490  23.555  0.00  0.00    +0.000 N 
BRANCH  15  17
ATOM     16  C   UNL     1      26.725  25.833  23.799  0.00  0.00    +0.000 C 
ATOM     17  C   UNL     1      28.260  25.907  23.662  0.00  0.00    +0.000 C 
ENDBRANCH  15  17
BRANCH  15  18
ATOM     18  C   UNL     1      28.560  23.930  22.235  0.00  0.00    +0.000 C 
ATOM     19  C   UNL     1      29.304  24.897  21.280  0.00  0.00    +0.000 C 
ENDBRANCH  15  18
ENDBRANCH  13  15
ENDBRANCH   1  13
TORSDOF 6
ENDMDL
MODEL 6
REMARK VINA RESULT:      -4.7      1.603      2.243
REMARK  Name = 
REMARK  6 active torsions:
REMARK  status: ('A' for Active; 'I' for Inactive)
REMARK    1  A    between atoms: C_2  and  N_3
REMARK    2  A    between atoms: N_3  and  C_4
REMARK    3  A    between atoms: N_3  and  C_6
REMARK    4  A    between atoms: C_6  and  N_8
REMARK    5  A    between atoms: C_9  and  C_11
REMARK    6  A    between atoms: C_16  and  N_17
REMARK                            x       y       z     vdW  Elec       q    Type
REMARK                         _______ _______ _______ _____ _____    ______ ____
ROOT
ATOM      1  N   UNL     1      20.738  -8.557  23.889  0.00  0.00    +0.000 NA
ATOM      2  C   UNL     1      20.999  -8.160  25.183  0.00  0.00    +0.000 C 
ATOM      3  O   UNL     1      22.032  -8.436  25.831  0.00  0.00    +0.000 OA
ENDROOT
BRANCH   2   4
ATOM      4  C   UNL     1      19.983  -7.336  25.886  0.00  0.00    +0.000 A 
ATOM      5  C   UNL     1      20.042  -5.943  25.704  0.00  0.00    +0.000 A 
ATOM      6  C   UNL     1      19.164  -5.099  26.319  0.00  0.00    +0.000 A 
ATOM      7  C   UNL     1      18.205  -5.688  27.141  0.00  0.00    +0.000 A 
ATOM      8  C   UNL     1      18.148  -7.043  27.318  0.00  0.00    +0.000 A 
ATOM      9  C   UNL     1      19.051  -7.926  26.686  0.00  0.00    +0.000 A 
BRANCH   9  10
ATOM     10  N   UNL     1      18.915  -9.318  26.940  0.00  0.00    +0.000 N 
ATOM     11  O   UNL     1      19.472  -9.789  27.987  0.00  0.00    +0.000 OA
ATOM     12  O   UNL     1      18.243 -10.166  26.154  0.00  0.00    +0.000 OA
ENDBRANCH   9  10
ENDBRANCH   2   4
BRANCH   1  13
ATOM     13  C   UNL     1      21.493  -9.311  23.011  0.00  0.00    +0.000 C 
ATOM     14  S   UNL     1      20.871 -10.861  22.679  0.00  0.00    +0.000 S 
BRANCH  13  15
ATOM     15  N   UNL     1      22.667  -9.000  22.342  0.00  0.00    +0.000 N 
BRANCH  15  17
ATOM     16  C   UNL     1      21.947  -7.945  20.334  0.00  0.00    +0.000 C 
ATOM     17  C   UNL     1      22.750  -7.706  21.629  0.00  0.00    +0.000 C 
ENDBRANCH  15  17
BRANCH  15  18
ATOM     18  C   UNL     1      23.858  -9.803  22.267  0.00  0.00    +0.000 C 
ATOM     19  C   UNL     1      25.056  -8.826  22.373  0.00  0.00    +0.000 C 
ENDBRANCH  15  18
ENDBRANCH  13  15
ENDBRANCH   1  13
TORSDOF 6
ENDMDL
MODEL 7
REMARK VINA RESULT:      -4.7     13.387     15.535
REMARK  Name = 
REMARK  6 active torsions:
REMARK  status: ('A' for Active; 'I' for Inactive)
REMARK    1  A    between atoms: C_2  and  N_3
REMARK    2  A    between atoms: N_3  and  C_4
REMARK    3  A    between atoms: N_3  and  C_6
REMARK    4  A    between atoms: C_6  and  N_8
REMARK    5  A    between atoms: C_9  and  C_11
REMARK    6  A    between atoms: C_16  and  N_17
REMARK                            x       y       z     vdW  Elec       q    Type
REMARK                         _______ _______ _______ _____ _____    ______ ____
ROOT
ATOM      1  N   UNL     1      33.187  -3.540  33.070  0.00  0.00    +0.000 NA
ATOM      2  C   UNL     1      33.860  -4.707  32.771  0.00  0.00    +0.000 C 
ATOM      3  O   UNL     1      34.719  -5.253  33.496  0.00  0.00    +0.000 OA
ENDROOT
BRANCH   2   4
ATOM      4  C   UNL     1      33.556  -5.384  31.485  0.00  0.00    +0.000 A 
ATOM      5  C   UNL     1      34.316  -5.008  30.362  0.00  0.00    +0.000 A 
ATOM      6  C   UNL     1      34.103  -5.560  29.133  0.00  0.00    +0.000 A 
ATOM      7  C   UNL     1      33.092  -6.514  29.044  0.00  0.00    +0.000 A 
ATOM      8  C   UNL     1      32.354  -6.879  30.136  0.00  0.00    +0.000 A 
ATOM      9  C   UNL     1      32.565  -6.316  31.414  0.00  0.00    +0.000 A 
BRANCH   9  10
ATOM     10  N   UNL     1      31.740  -6.756  32.484  0.00  0.00    +0.000 N 
ATOM     11  O   UNL     1      30.600  -6.200  32.624  0.00  0.00    +0.000 OA
ATOM     12  O   UNL     1      32.081  -7.712  33.355  0.00  0.00    +0.000 OA
ENDBRANCH   9  10
ENDBRANCH   2   4
BRANCH   1  13
ATOM     13  C   UNL     1      33.266  -2.717  34.177  0.00  0.00    +0.000 C 
ATOM     14  S   UNL     1      32.386  -3.253  35.533  0.00  0.00    +0.000 S 
BRANCH  13  15
ATOM     15  N   UNL     1      33.964  -1.534  34.367  0.00  0.00    +0.000 N 
BRANCH  15  17
ATOM     16  C   UNL     1      33.230   0.574  33.543  0.00  0.00    +0.000 C 
ATOM     17  C   UNL     1      34.140  -0.626  33.212  0.00  0.00    +0.000 C 
ENDBRANCH  15  17
BRANCH  15  18
ATOM     18  C   UNL     1      34.544  -1.061  35.596  0.00  0.00    +0.000 C 
ATOM     19  C   UNL     1      35.902  -1.791  35.752  0.00  0.00    +0.000 C 
ENDBRANCH  15  18
ENDBRANCH  13  15
ENDBRANCH   1  13
TORSDOF 6
ENDMDL
MODEL 8
REMARK VINA RESULT:      -4.7     33.606     34.916
REMARK  Name = 
REMARK  6 active torsions:
REMARK  status: ('A' for Active; 'I' for Inactive)
REMARK    1  A    between atoms: C_2  and  N_3
REMARK    2  A    between atoms: N_3  and  C_4
REMARK    3  A    between atoms: N_3  and  C_6
REMARK    4  A    between atoms: C_6  and  N_8
REMARK    5  A    between atoms: C_9  and  C_11
REMARK    6  A    between atoms: C_16  and  N_17
REMARK                            x       y       z     vdW  Elec       q    Type
REMARK                         _______ _______ _______ _____ _____    ______ ____
ROOT
ATOM      1  N   UNL     1      28.768  26.252  22.145  0.00  0.00    +0.000 NA
ATOM      2  C   UNL     1      29.261  24.970  22.023  0.00  0.00    +0.000 C 
ATOM      3  O   UNL     1      29.605  24.426  20.952  0.00  0.00    +0.000 OA
ENDROOT
BRANCH   2   4
ATOM      4  C   UNL     1      29.399  24.148  23.253  0.00  0.00    +0.000 A 
ATOM      5  C   UNL     1      30.701  23.929  23.739  0.00  0.00    +0.000 A 
ATOM      6  C   UNL     1      30.935  23.174  24.851  0.00  0.00    +0.000 A 
ATOM      7  C   UNL     1      29.818  22.629  25.481  0.00  0.00    +0.000 A 
ATOM      8  C   UNL     1      28.553  22.843  25.008  0.00  0.00    +0.000 A 
ATOM      9  C   UNL     1      28.298  23.622  23.858  0.00  0.00    +0.000 A 
BRANCH   9  10
ATOM     10  N   UNL     1      26.949  23.779  23.441  0.00  0.00    +0.000 N 
ATOM     11  O   UNL     1      26.536  23.052  22.477  0.00  0.00    +0.000 OA
ATOM     12  O   UNL     1      26.084  24.638  23.991  0.00  0.00    +0.000 OA
ENDBRANCH   9  10
ENDBRANCH   2   4
BRANCH   1  13
ATOM     13  C   UNL     1      28.541  27.222  21.188  0.00  0.00    +0.000 C 
ATOM     14  S   UNL     1      26.902  27.487  20.810  0.00  0.00    +0.000 S 
BRANCH  13  15
ATOM     15  N   UNL     1      29.434  28.028  20.499  0.00  0.00    +0.000 N 
BRANCH  15  17
ATOM     16  C   UNL     1      30.147  28.486  18.275  0.00  0.00    +0.000 C 
ATOM     17  C   UNL     1      30.219  27.430  19.397  0.00  0.00    +0.000 C 
ENDBRANCH  15  17
BRANCH  15  18
ATOM     18  C   UNL     1      29.687  29.427  20.724  0.00  0.00    +0.000 C 
ATOM     19  C   UNL     1      29.638  29.642  22.258  0.00  0.00    +0.000 C 
ENDBRANCH  15  18
ENDBRANCH  13  15
ENDBRANCH   1  13
TORSDOF 6
ENDMDL
MODEL 9
REMARK VINA RESULT:      -4.7     21.206     22.705
REMARK  Name = 
REMARK  6 active torsions:
REMARK  status: ('A' for Active; 'I' for Inactive)
REMARK    1  A    between atoms: C_2  and  N_3
REMARK    2  A    between atoms: N_3  and  C_4
REMARK    3  A    between atoms: N_3  and  C_6
REMARK    4  A    between atoms: C_6  and  N_8
REMARK    5  A    between atoms: C_9  and  C_11
REMARK    6  A    between atoms: C_16  and  N_17
REMARK                            x       y       z     vdW  Elec       q    Type
REMARK                         _______ _______ _______ _____ _____    ______ ____
ROOT
ATOM      1  N   UNL     1      19.940   9.676  37.418  0.00  0.00    +0.000 NA
ATOM      2  C   UNL     1      20.868  10.677  37.621  0.00  0.00    +0.000 C 
ATOM      3  O   UNL     1      20.604  11.850  37.959  0.00  0.00    +0.000 OA
ENDROOT
BRANCH   2   4
ATOM      4  C   UNL     1      22.304  10.356  37.422  0.00  0.00    +0.000 A 
ATOM      5  C   UNL     1      22.767  10.260  36.098  0.00  0.00    +0.000 A 
ATOM      6  C   UNL     1      24.065   9.953  35.810  0.00  0.00    +0.000 A 
ATOM      7  C   UNL     1      24.910   9.737  36.897  0.00  0.00    +0.000 A 
ATOM      8  C   UNL     1      24.459   9.831  38.185  0.00  0.00    +0.000 A 
ATOM      9  C   UNL     1      23.118  10.148  38.494  0.00  0.00    +0.000 A 
BRANCH   9  10
ATOM     10  N   UNL     1      22.745  10.214  39.864  0.00  0.00    +0.000 N 
ATOM     11  O   UNL     1      22.353   9.138  40.426  0.00  0.00    +0.000 OA
ATOM     12  O   UNL     1      22.777  11.329  40.602  0.00  0.00    +0.000 OA
ENDBRANCH   9  10
ENDBRANCH   2   4
BRANCH   1  13
ATOM     13  C   UNL     1      18.563   9.692  37.532  0.00  0.00    +0.000 C 
ATOM     14  S   UNL     1      17.971   9.418  39.105  0.00  0.00    +0.000 S 
BRANCH  13  15
ATOM     15  N   UNL     1      17.586   9.916  36.574  0.00  0.00    +0.000 N 
BRANCH  15  17
ATOM     16  C   UNL     1      17.670  10.044  34.199  0.00  0.00    +0.000 C 
ATOM     17  C   UNL     1      17.565   9.051  35.374  0.00  0.00    +0.000 C 
ENDBRANCH  15  17
BRANCH  15  18
ATOM     18  C   UNL     1      16.548  10.911  36.614  0.00  0.00    +0.000 C 
ATOM     19  C   UNL     1      17.245  12.264  36.907  0.00  0.00    +0.000 C 
ENDBRANCH  15  18
ENDBRANCH  13  15
ENDBRANCH   1  13
TORSDOF 6
ENDMDL
MODEL 10
REMARK VINA RESULT:      -4.7     32.105     33.503
REMARK  Name = 
REMARK  6 active torsions:
REMARK  status: ('A' for Active; 'I' for Inactive)
REMARK    1  A    between atoms: C_2  and  N_3
REMARK    2  A    between atoms: N_3  and  C_4
REMARK    3  A    between atoms: N_3  and  C_6
REMARK    4  A    between atoms: C_6  and  N_8
REMARK    5  A    between atoms: C_9  and  C_11
REMARK    6  A    between atoms: C_16  and  N_17
REMARK                            x       y       z     vdW  Elec       q    Type
REMARK                         _______ _______ _______ _____ _____    ______ ____
ROOT
ATOM      1  N   UNL     1      26.449  24.953  26.123  0.00  0.00    +0.000 NA
ATOM      2  C   UNL     1      26.630  23.692  25.594  0.00  0.00    +0.000 C 
ATOM      3  O   UNL     1      25.717  22.883  25.324  0.00  0.00    +0.000 OA
ENDROOT
BRANCH   2   4
ATOM      4  C   UNL     1      28.017  23.237  25.318  0.00  0.00    +0.000 A 
ATOM      5  C   UNL     1      28.726  22.649  26.380  0.00  0.00    +0.000 A 
ATOM      6  C   UNL     1      30.012  22.214  26.233  0.00  0.00    +0.000 A 
ATOM      7  C   UNL     1      30.587  22.385  24.975  0.00  0.00    +0.000 A 
ATOM      8  C   UNL     1      29.896  22.957  23.943  0.00  0.00    +0.000 A 
ATOM      9  C   UNL     1      28.566  23.410  24.083  0.00  0.00    +0.000 A 
BRANCH   9  10
ATOM     10  N   UNL     1      27.936  23.998  22.953  0.00  0.00    +0.000 N 
ATOM     11  O   UNL     1      28.090  25.251  22.771  0.00  0.00    +0.000 OA
ATOM     12  O   UNL     1      27.192  23.324  22.069  0.00  0.00    +0.000 OA
ENDBRANCH   9  10
ENDBRANCH   2   4
BRANCH   1  13
ATOM     13  C   UNL     1      25.292  25.624  26.468  0.00  0.00    +0.000 C 
ATOM     14  S   UNL     1      24.450  26.321  25.162  0.00  0.00    +0.000 S 
BRANCH  13  15
ATOM     15  N   UNL     1      24.694  25.803  27.707  0.00  0.00    +0.000 N 
BRANCH  15  17
ATOM     16  C   UNL     1      23.034  26.805  29.085  0.00  0.00    +0.000 C 
ATOM     17  C   UNL     1      23.236  26.048  27.757  0.00  0.00    +0.000 C 
ENDBRANCH  15  17
BRANCH  15  18
ATOM     18  C   UNL     1      25.340  25.762  28.992  0.00  0.00    +0.000 C 
ATOM     19  C   UNL     1      25.733  24.284  29.241  0.00  0.00    +0.000 C 
ENDBRANCH  15  18
ENDBRANCH  13  15
ENDBRANCH   1  13
TORSDOF 6
ENDMDL
