MODEL 1
REMARK VINA RESULT:      -6.4      0.000      0.000
REMARK  Name = 
REMARK  5 active torsions:
REMARK  status: ('A' for Active; 'I' for Inactive)
REMARK    1  A    between atoms: N_2  and  C_4
REMARK    2  A    between atoms: C_7  and  N_8
REMARK    3  A    between atoms: N_8  and  C_9
REMARK    4  A    between atoms: C_9  and  C_10
REMARK    5  A    between atoms: C_13  and  N_14
REMARK                            x       y       z     vdW  Elec       q    Type
REMARK                         _______ _______ _______ _____ _____    ______ ____
ROOT
ATOM      1  N   UNL     1      17.434   9.471  35.159  0.00  0.00    +0.000 NA
ENDROOT
BRANCH   1   5
ATOM      2  C   UNL     1      15.232  12.157  32.712  0.00  0.00    +0.000 A 
ATOM      3  C   UNL     1      16.072  11.189  32.181  0.00  0.00    +0.000 A 
ATOM      4  C   UNL     1      16.792  10.312  32.951  0.00  0.00    +0.000 A 
ATOM      5  C   UNL     1      16.698  10.370  34.325  0.00  0.00    +0.000 A 
ATOM      6  C   UNL     1      15.861  11.332  34.875  0.00  0.00    +0.000 A 
ATOM      7  C   UNL     1      15.150  12.200  34.082  0.00  0.00    +0.000 A 
BRANCH   2   9
ATOM      8  C   UNL     1      13.671  14.060  32.479  0.00  0.00    +0.000 C 
ATOM      9  N   UNL     1      14.502  13.049  31.878  0.00  0.00    +0.000 N 
ATOM     10  C   UNL     1      14.586  12.954  30.445  0.00  0.00    +0.000 C 
ENDBRANCH   2   9
ENDBRANCH   1   5
BRANCH   1  11
ATOM     11  C   UNL     1      17.474   9.757  36.576  0.00  0.00    +0.000 C 
BRANCH  11  12
ATOM     12  C   UNL     1      18.823  10.219  36.998  0.00  0.00    +0.000 A 
ATOM     13  C   UNL     1      19.003  11.269  37.874  0.00  0.00    +0.000 A 
ATOM     14  C   UNL     1      20.259  11.689  38.259  0.00  0.00    +0.000 A 
ATOM     15  C   UNL     1      21.404  11.075  37.781  0.00  0.00    +0.000 A 
ATOM     16  C   UNL     1      21.214  10.027  36.904  0.00  0.00    +0.000 A 
ATOM     17  C   UNL     1      19.961   9.603  36.516  0.00  0.00    +0.000 A 
BRANCH  15  18
ATOM     18  N   UNL     1      22.699  11.506  38.174  0.00  0.00    +0.000 N 
ATOM     19  O   UNL     1      23.604  11.515  37.326  0.00  0.00    +0.000 OA
ATOM     20  O   UNL     1      23.003  11.912  39.441  0.00  0.00    +0.000 OA
ENDBRANCH  15  18
ENDBRANCH  11  12
ENDBRANCH   1  11
TORSDOF 5
ENDMDL
MODEL 2
REMARK VINA RESULT:      -6.4      3.713      7.661
REMARK  Name = 
REMARK  5 active torsions:
REMARK  status: ('A' for Active; 'I' for Inactive)
REMARK    1  A    between atoms: N_2  and  C_4
REMARK    2  A    between atoms: C_7  and  N_8
REMARK    3  A    between atoms: N_8  and  C_9
REMARK    4  A    between atoms: C_9  and  C_10
REMARK    5  A    between atoms: C_13  and  N_14
REMARK                            x       y       z     vdW  Elec       q    Type
REMARK                         _______ _______ _______ _____ _____    ______ ____
ROOT
ATOM      1  N   UNL     1      18.654  10.623  37.923  0.00  0.00    +0.000 NA
ENDROOT
BRANCH   1   5
ATOM      2  C   UNL     1      22.843  11.003  37.326  0.00  0.00    +0.000 A 
ATOM      3  C   UNL     1      22.104   9.970  36.767  0.00  0.00    +0.000 A 
ATOM      4  C   UNL     1      20.753   9.827  36.947  0.00  0.00    +0.000 A 
ATOM      5  C   UNL     1      20.064  10.740  37.715  0.00  0.00    +0.000 A 
ATOM      6  C   UNL     1      20.785  11.781  38.283  0.00  0.00    +0.000 A 
ATOM      7  C   UNL     1      22.140  11.903  38.089  0.00  0.00    +0.000 A 
BRANCH   2   9
ATOM      8  C   UNL     1      25.001  12.074  37.882  0.00  0.00    +0.000 C 
ATOM      9  N   UNL     1      24.245  11.115  37.117  0.00  0.00    +0.000 N 
ATOM     10  C   UNL     1      24.917  10.282  36.155  0.00  0.00    +0.000 C 
ENDBRANCH   2   9
ENDBRANCH   1   5
BRANCH   1  11
ATOM     11  C   UNL     1      17.951   9.602  37.177  0.00  0.00    +0.000 C 
BRANCH  11  12
ATOM     12  C   UNL     1      17.331  10.160  35.946  0.00  0.00    +0.000 A 
ATOM     13  C   UNL     1      16.276  11.047  35.990  0.00  0.00    +0.000 A 
ATOM     14  C   UNL     1      15.708  11.560  34.842  0.00  0.00    +0.000 A 
ATOM     15  C   UNL     1      16.171  11.204  33.587  0.00  0.00    +0.000 A 
ATOM     16  C   UNL     1      17.225  10.315  33.553  0.00  0.00    +0.000 A 
ATOM     17  C   UNL     1      17.797   9.801  34.698  0.00  0.00    +0.000 A 
BRANCH  15  18
ATOM     18  N   UNL     1      15.588  11.729  32.403  0.00  0.00    +0.000 N 
ATOM     19  O   UNL     1      14.782  12.667  32.504  0.00  0.00    +0.000 OA
ATOM     20  O   UNL     1      15.866  11.254  31.154  0.00  0.00    +0.000 OA
ENDBRANCH  15  18
ENDBRANCH  11  12
ENDBRANCH   1  11
TORSDOF 5
ENDMDL
MODEL 3
REMARK VINA RESULT:      -6.4      3.771      7.828
REMARK  Name = 
REMARK  5 active torsions:
REMARK  status: ('A' for Active; 'I' for Inactive)
REMARK    1  A    between atoms: N_2  and  C_4
REMARK    2  A    between atoms: C_7  and  N_8
REMARK    3  A    between atoms: N_8  and  C_9
REMARK    4  A    between atoms: C_9  and  C_10
REMARK    5  A    between atoms: C_13  and  N_14
REMARK                            x       y       z     vdW  Elec       q    Type
REMARK                         _______ _______ _______ _____ _____    ______ ____
ROOT
ATOM      1  N   UNL     1      17.599   9.886  36.718  0.00  0.00    +0.000 NA
ENDROOT
BRANCH   1   5
ATOM      2  C   UNL     1      21.220  11.629  38.096  0.00  0.00    +0.000 A 
ATOM      3  C   UNL     1      19.986  12.237  38.280  0.00  0.00    +0.000 A 
ATOM      4  C   UNL     1      18.806  11.693  37.844  0.00  0.00    +0.000 A 
ATOM      5  C   UNL     1      18.811  10.482  37.186  0.00  0.00    +0.000 A 
ATOM      6  C   UNL     1      20.036   9.858  36.992  0.00  0.00    +0.000 A 
ATOM      7  C   UNL     1      21.207  10.424  37.438  0.00  0.00    +0.000 A 
BRANCH   2   9
ATOM      8  C   UNL     1      23.589  11.405  38.768  0.00  0.00    +0.000 C 
ATOM      9  N   UNL     1      22.423  12.227  38.563  0.00  0.00    +0.000 N 
ATOM     10  C   UNL     1      22.490  13.638  38.830  0.00  0.00    +0.000 C 
ENDBRANCH   2   9
ENDBRANCH   1   5
BRANCH   1  11
ATOM     11  C   UNL     1      17.562   9.438  35.343  0.00  0.00    +0.000 C 
BRANCH  11  12
ATOM     12  C   UNL     1      16.749  10.351  34.497  0.00  0.00    +0.000 A 
ATOM     13  C   UNL     1      16.848  10.366  33.121  0.00  0.00    +0.000 A 
ATOM     14  C   UNL     1      16.087  11.216  32.346  0.00  0.00    +0.000 A 
ATOM     15  C   UNL     1      15.185  12.100  32.915  0.00  0.00    +0.000 A 
ATOM     16  C   UNL     1      15.094  12.078  34.291  0.00  0.00    +0.000 A 
ATOM     17  C   UNL     1      15.852  11.230  35.071  0.00  0.00    +0.000 A 
BRANCH  15  18
ATOM     18  N   UNL     1      14.402  12.977  32.120  0.00  0.00    +0.000 N 
ATOM     19  O   UNL     1      14.345  12.778  30.896  0.00  0.00    +0.000 OA
ATOM     20  O   UNL     1      13.706  14.035  32.630  0.00  0.00    +0.000 OA
ENDBRANCH  15  18
ENDBRANCH  11  12
ENDBRANCH   1  11
TORSDOF 5
ENDMDL
MODEL 4
REMARK VINA RESULT:      -6.1      4.381      7.990
REMARK  Name = 
REMARK  5 active torsions:
REMARK  status: ('A' for Active; 'I' for Inactive)
REMARK    1  A    between atoms: N_2  and  C_4
REMARK    2  A    between atoms: C_7  and  N_8
REMARK    3  A    between atoms: N_8  and  C_9
REMARK    4  A    between atoms: C_9  and  C_10
REMARK    5  A    between atoms: C_13  and  N_14
REMARK                            x       y       z     vdW  Elec       q    Type
REMARK                         _______ _______ _______ _____ _____    ______ ____
ROOT
ATOM      1  N   UNL     1      18.906   9.883  37.288  0.00  0.00    +0.000 NA
ENDROOT
BRANCH   1   5
ATOM      2  C   UNL     1      22.995  11.035  37.350  0.00  0.00    +0.000 A 
ATOM      3  C   UNL     1      22.030  11.679  38.112  0.00  0.00    +0.000 A 
ATOM      4  C   UNL     1      20.706  11.325  38.107  0.00  0.00    +0.000 A 
ATOM      5  C   UNL     1      20.279  10.280  37.317  0.00  0.00    +0.000 A 
ATOM      6  C   UNL     1      21.229   9.623  36.547  0.00  0.00    +0.000 A 
ATOM      7  C   UNL     1      22.552   9.997  36.569  0.00  0.00    +0.000 A 
BRANCH   2   9
ATOM      8  C   UNL     1      25.390  10.447  37.184  0.00  0.00    +0.000 C 
ATOM      9  N   UNL     1      24.359  11.434  37.382  0.00  0.00    +0.000 N 
ATOM     10  C   UNL     1      24.721  12.808  37.607  0.00  0.00    +0.000 C 
ENDBRANCH   2   9
ENDBRANCH   1   5
BRANCH   1  11
ATOM     11  C   UNL     1      18.031  10.429  38.302  0.00  0.00    +0.000 C 
BRANCH  11  12
ATOM     12  C   UNL     1      16.861  11.117  37.695  0.00  0.00    +0.000 A 
ATOM     13  C   UNL     1      16.996  12.071  36.707  0.00  0.00    +0.000 A 
ATOM     14  C   UNL     1      15.904  12.702  36.150  0.00  0.00    +0.000 A 
ATOM     15  C   UNL     1      14.614  12.408  36.559  0.00  0.00    +0.000 A 
ATOM     16  C   UNL     1      14.488  11.455  37.547  0.00  0.00    +0.000 A 
ATOM     17  C   UNL     1      15.577  10.820  38.107  0.00  0.00    +0.000 A 
BRANCH  15  18
ATOM     18  N   UNL     1      13.487  13.058  35.988  0.00  0.00    +0.000 N 
ATOM     19  O   UNL     1      12.384  12.928  36.542  0.00  0.00    +0.000 OA
ATOM     20  O   UNL     1      13.552  13.819  34.857  0.00  0.00    +0.000 OA
ENDBRANCH  15  18
ENDBRANCH  11  12
ENDBRANCH   1  11
TORSDOF 5
ENDMDL
MODEL 5
REMARK VINA RESULT:      -6.0     16.847     18.825
REMARK  Name = 
REMARK  5 active torsions:
REMARK  status: ('A' for Active; 'I' for Inactive)
REMARK    1  A    between atoms: N_2  and  C_4
REMARK    2  A    between atoms: C_7  and  N_8
REMARK    3  A    between atoms: N_8  and  C_9
REMARK    4  A    between atoms: C_9  and  C_10
REMARK    5  A    between atoms: C_13  and  N_14
REMARK                            x       y       z     vdW  Elec       q    Type
REMARK                         _______ _______ _______ _____ _____    ______ ____
ROOT
ATOM      1  N   UNL     1      33.926   2.705  32.857  0.00  0.00    +0.000 NA
ENDROOT
BRANCH   1   5
ATOM      2  C   UNL     1      33.198  -1.337  33.945  0.00  0.00    +0.000 A 
ATOM      3  C   UNL     1      34.172  -0.980  33.023  0.00  0.00    +0.000 A 
ATOM      4  C   UNL     1      34.424   0.317  32.657  0.00  0.00    +0.000 A 
ATOM      5  C   UNL     1      33.690   1.341  33.215  0.00  0.00    +0.000 A 
ATOM      6  C   UNL     1      32.711   1.004  34.139  0.00  0.00    +0.000 A 
ATOM      7  C   UNL     1      32.476  -0.304  34.490  0.00  0.00    +0.000 A 
BRANCH   2   9
ATOM      8  C   UNL     1      32.296  -3.001  35.535  0.00  0.00    +0.000 C 
ATOM      9  N   UNL     1      32.967  -2.695  34.297  0.00  0.00    +0.000 N 
ATOM     10  C   UNL     1      33.392  -3.764  33.433  0.00  0.00    +0.000 C 
ENDBRANCH   2   9
ENDBRANCH   1   5
BRANCH   1  11
ATOM     11  C   UNL     1      33.031   3.703  33.400  0.00  0.00    +0.000 C 
BRANCH  11  12
ATOM     12  C   UNL     1      33.737   4.609  34.344  0.00  0.00    +0.000 A 
ATOM     13  C   UNL     1      33.266   5.870  34.648  0.00  0.00    +0.000 A 
ATOM     14  C   UNL     1      33.930   6.702  35.526  0.00  0.00    +0.000 A 
ATOM     15  C   UNL     1      35.105   6.311  36.144  0.00  0.00    +0.000 A 
ATOM     16  C   UNL     1      35.569   5.050  35.832  0.00  0.00    +0.000 A 
ATOM     17  C   UNL     1      34.909   4.213  34.956  0.00  0.00    +0.000 A 
BRANCH  15  18
ATOM     18  N   UNL     1      35.791   7.166  37.046  0.00  0.00    +0.000 N 
ATOM     19  O   UNL     1      37.008   7.347  36.884  0.00  0.00    +0.000 OA
ATOM     20  O   UNL     1      35.181   7.803  38.088  0.00  0.00    +0.000 OA
ENDBRANCH  15  18
ENDBRANCH  11  12
ENDBRANCH   1  11
TORSDOF 5
ENDMDL
MODEL 6
REMARK VINA RESULT:      -6.0     21.609     23.411
REMARK  Name = 
REMARK  5 active torsions:
REMARK  status: ('A' for Active; 'I' for Inactive)
REMARK    1  A    between atoms: N_2  and  C_4
REMARK    2  A    between atoms: C_7  and  N_8
REMARK    3  A    between atoms: N_8  and  C_9
REMARK    4  A    between atoms: C_9  and  C_10
REMARK    5  A    between atoms: C_13  and  N_14
REMARK                            x       y       z     vdW  Elec       q    Type
REMARK                         _______ _______ _______ _____ _____    ______ ____
ROOT
ATOM      1  N   UNL     1      22.790  -8.998  23.842  0.00  0.00    +0.000 NA
ENDROOT
BRANCH   1   5
ATOM      2  C   UNL     1      26.843  -8.305  22.772  0.00  0.00    +0.000 A 
ATOM      3  C   UNL     1      26.250  -9.554  22.663  0.00  0.00    +0.000 A 
ATOM      4  C   UNL     1      24.945  -9.801  23.002  0.00  0.00    +0.000 A 
ATOM      5  C   UNL     1      24.156  -8.777  23.479  0.00  0.00    +0.000 A 
ATOM      6  C   UNL     1      24.731  -7.519  23.596  0.00  0.00    +0.000 A 
ATOM      7  C   UNL     1      26.043  -7.296  23.249  0.00  0.00    +0.000 A 
BRANCH   2   9
ATOM      8  C   UNL     1      28.548  -6.945  21.607  0.00  0.00    +0.000 C 
ATOM      9  N   UNL     1      28.202  -8.090  22.410  0.00  0.00    +0.000 N 
ATOM     10  C   UNL     1      29.231  -9.000  22.837  0.00  0.00    +0.000 C 
ENDBRANCH   2   9
ENDBRANCH   1   5
BRANCH   1  11
ATOM     11  C   UNL     1      22.488  -9.139  25.250  0.00  0.00    +0.000 C 
BRANCH  11  12
ATOM     12  C   UNL     1      21.349  -8.270  25.649  0.00  0.00    +0.000 A 
ATOM     13  C   UNL     1      20.299  -8.736  26.414  0.00  0.00    +0.000 A 
ATOM     14  C   UNL     1      19.248  -7.921  26.779  0.00  0.00    +0.000 A 
ATOM     15  C   UNL     1      19.195  -6.593  26.392  0.00  0.00    +0.000 A 
ATOM     16  C   UNL     1      20.248  -6.137  25.627  0.00  0.00    +0.000 A 
ATOM     17  C   UNL     1      21.302  -6.947  25.259  0.00  0.00    +0.000 A 
BRANCH  15  18
ATOM     18  N   UNL     1      18.113  -5.753  26.766  0.00  0.00    +0.000 N 
ATOM     19  O   UNL     1      17.092  -6.275  27.240  0.00  0.00    +0.000 OA
ATOM     20  O   UNL     1      18.134  -4.394  26.629  0.00  0.00    +0.000 OA
ENDBRANCH  15  18
ENDBRANCH  11  12
ENDBRANCH   1  11
TORSDOF 5
ENDMDL
MODEL 7
REMARK VINA RESULT:      -5.7     18.760     20.068
REMARK  Name = 
REMARK  5 active torsions:
REMARK  status: ('A' for Active; 'I' for Inactive)
REMARK    1  A    between atoms: N_2  and  C_4
REMARK    2  A    between atoms: C_7  and  N_8
REMARK    3  A    between atoms: N_8  and  C_9
REMARK    4  A    between atoms: C_9  and  C_10
REMARK    5  A    between atoms: C_13  and  N_14
REMARK                            x       y       z     vdW  Elec       q    Type
REMARK                         _______ _______ _______ _____ _____    ______ ____
ROOT
ATOM      1  N   UNL     1      27.391  23.113  23.388  0.00  0.00    +0.000 NA
ENDROOT
BRANCH   1   5
ATOM      2  C   UNL     1      28.868  26.438  21.195  0.00  0.00    +0.000 A 
ATOM      3  C   UNL     1      27.823  26.552  22.100  0.00  0.00    +0.000 A 
ATOM      4  C   UNL     1      27.330  25.493  22.818  0.00  0.00    +0.000 A 
ATOM      5  C   UNL     1      27.880  24.240  22.656  0.00  0.00    +0.000 A 
ATOM      6  C   UNL     1      28.927  24.106  21.754  0.00  0.00    +0.000 A 
ATOM      7  C   UNL     1      29.404  25.183  21.046  0.00  0.00    +0.000 A 
BRANCH   2   9
ATOM      8  C   UNL     1      29.115  28.889  20.978  0.00  0.00    +0.000 C 
ATOM      9  N   UNL     1      29.351  27.562  20.469  0.00  0.00    +0.000 N 
ATOM     10  C   UNL     1      30.071  27.389  19.235  0.00  0.00    +0.000 C 
ENDBRANCH   2   9
ENDBRANCH   1   5
BRANCH   1  11
ATOM     11  C   UNL     1      26.152  23.276  24.116  0.00  0.00    +0.000 C 
BRANCH  11  12
ATOM     12  C   UNL     1      26.384  23.287  25.585  0.00  0.00    +0.000 A 
ATOM     13  C   UNL     1      27.410  22.579  26.175  0.00  0.00    +0.000 A 
ATOM     14  C   UNL     1      27.616  22.598  27.539  0.00  0.00    +0.000 A 
ATOM     15  C   UNL     1      26.800  23.330  28.383  0.00  0.00    +0.000 A 
ATOM     16  C   UNL     1      25.776  24.034  27.784  0.00  0.00    +0.000 A 
ATOM     17  C   UNL     1      25.565  24.019  26.421  0.00  0.00    +0.000 A 
BRANCH  15  18
ATOM     18  N   UNL     1      27.009  23.350  29.787  0.00  0.00    +0.000 N 
ATOM     19  O   UNL     1      28.145  23.609  30.215  0.00  0.00    +0.000 OA
ATOM     20  O   UNL     1      26.024  23.096  30.698  0.00  0.00    +0.000 OA
ENDBRANCH  15  18
ENDBRANCH  11  12
ENDBRANCH   1  11
TORSDOF 5
ENDMDL
MODEL 8
REMARK VINA RESULT:      -5.7     18.445     21.270
REMARK  Name = 
REMARK  5 active torsions:
REMARK  status: ('A' for Active; 'I' for Inactive)
REMARK    1  A    between atoms: N_2  and  C_4
REMARK    2  A    between atoms: C_7  and  N_8
REMARK    3  A    between atoms: N_8  and  C_9
REMARK    4  A    between atoms: C_9  and  C_10
REMARK    5  A    between atoms: C_13  and  N_14
REMARK                            x       y       z     vdW  Elec       q    Type
REMARK                         _______ _______ _______ _____ _____    ______ ____
ROOT
ATOM      1  N   UNL     1      33.792  -3.933  33.642  0.00  0.00    +0.000 NA
ENDROOT
BRANCH   1   5
ATOM      2  C   UNL     1      31.959  -6.796  31.094  0.00  0.00    +0.000 A 
ATOM      3  C   UNL     1      33.047  -6.034  30.693  0.00  0.00    +0.000 A 
ATOM      4  C   UNL     1      33.654  -5.105  31.497  0.00  0.00    +0.000 A 
ATOM      5  C   UNL     1      33.184  -4.893  32.775  0.00  0.00    +0.000 A 
ATOM      6  C   UNL     1      32.096  -5.646  33.196  0.00  0.00    +0.000 A 
ATOM      7  C   UNL     1      31.504  -6.573  32.370  0.00  0.00    +0.000 A 
BRANCH   2   9
ATOM      8  C   UNL     1      32.166  -8.423  29.245  0.00  0.00    +0.000 C 
ATOM      9  N   UNL     1      31.357  -7.750  30.228  0.00  0.00    +0.000 N 
ATOM     10  C   UNL     1      29.954  -8.051  30.324  0.00  0.00    +0.000 C 
ENDBRANCH   2   9
ENDBRANCH   1   5
BRANCH   1  11
ATOM     11  C   UNL     1      32.917  -3.118  34.455  0.00  0.00    +0.000 C 
BRANCH  11  12
ATOM     12  C   UNL     1      33.092  -1.671  34.158  0.00  0.00    +0.000 A 
ATOM     13  C   UNL     1      32.346  -0.694  34.783  0.00  0.00    +0.000 A 
ATOM     14  C   UNL     1      32.517   0.645  34.500  0.00  0.00    +0.000 A 
ATOM     15  C   UNL     1      33.449   1.073  33.571  0.00  0.00    +0.000 A 
ATOM     16  C   UNL     1      34.190   0.089  32.950  0.00  0.00    +0.000 A 
ATOM     17  C   UNL     1      34.023  -1.251  33.229  0.00  0.00    +0.000 A 
BRANCH  15  18
ATOM     18  N   UNL     1      33.626   2.451  33.276  0.00  0.00    +0.000 N 
ATOM     19  O   UNL     1      33.635   3.262  34.215  0.00  0.00    +0.000 OA
ATOM     20  O   UNL     1      33.788   2.934  32.009  0.00  0.00    +0.000 OA
ENDBRANCH  15  18
ENDBRANCH  11  12
ENDBRANCH   1  11
TORSDOF 5
ENDMDL
MODEL 9
REMARK VINA RESULT:      -5.7     17.769     19.147
REMARK  Name = 
REMARK  5 active torsions:
REMARK  status: ('A' for Active; 'I' for Inactive)
REMARK    1  A    between atoms: N_2  and  C_4
REMARK    2  A    between atoms: C_7  and  N_8
REMARK    3  A    between atoms: N_8  and  C_9
REMARK    4  A    between atoms: C_9  and  C_10
REMARK    5  A    between atoms: C_13  and  N_14
REMARK                            x       y       z     vdW  Elec       q    Type
REMARK                         _______ _______ _______ _____ _____    ______ ____
ROOT
ATOM      1  N   UNL     1      28.080  21.959  27.808  0.00  0.00    +0.000 NA
ENDROOT
BRANCH   1   5
ATOM      2  C   UNL     1      27.068  24.521  31.042  0.00  0.00    +0.000 A 
ATOM      3  C   UNL     1      28.383  24.270  30.677  0.00  0.00    +0.000 A 
ATOM      4  C   UNL     1      28.733  23.448  29.638  0.00  0.00    +0.000 A 
ATOM      5  C   UNL     1      27.752  22.823  28.899  0.00  0.00    +0.000 A 
ATOM      6  C   UNL     1      26.430  23.062  29.248  0.00  0.00    +0.000 A 
ATOM      7  C   UNL     1      26.104  23.891  30.295  0.00  0.00    +0.000 A 
BRANCH   2   9
ATOM      8  C   UNL     1      27.701  25.564  33.193  0.00  0.00    +0.000 C 
ATOM      9  N   UNL     1      26.747  25.381  32.129  0.00  0.00    +0.000 N 
ATOM     10  C   UNL     1      25.485  26.070  32.176  0.00  0.00    +0.000 C 
ENDBRANCH   2   9
ENDBRANCH   1   5
BRANCH   1  11
ATOM     11  C   UNL     1      29.358  22.156  27.161  0.00  0.00    +0.000 C 
BRANCH  11  12
ATOM     12  C   UNL     1      29.191  22.692  25.783  0.00  0.00    +0.000 A 
ATOM     13  C   UNL     1      30.266  22.959  24.961  0.00  0.00    +0.000 A 
ATOM     14  C   UNL     1      30.100  23.455  23.685  0.00  0.00    +0.000 A 
ATOM     15  C   UNL     1      28.841  23.710  23.167  0.00  0.00    +0.000 A 
ATOM     16  C   UNL     1      27.773  23.441  23.997  0.00  0.00    +0.000 A 
ATOM     17  C   UNL     1      27.934  22.944  25.274  0.00  0.00    +0.000 A 
BRANCH  15  18
ATOM     18  N   UNL     1      28.667  24.222  21.854  0.00  0.00    +0.000 N 
ATOM     19  O   UNL     1      27.538  24.604  21.511  0.00  0.00    +0.000 OA
ATOM     20  O   UNL     1      29.681  24.316  20.944  0.00  0.00    +0.000 OA
ENDBRANCH  15  18
ENDBRANCH  11  12
ENDBRANCH   1  11
TORSDOF 5
ENDMDL
MODEL 10
REMARK VINA RESULT:      -5.6     17.329     19.504
REMARK  Name = 
REMARK  5 active torsions:
REMARK  status: ('A' for Active; 'I' for Inactive)
REMARK    1  A    between atoms: N_2  and  C_4
REMARK    2  A    between atoms: C_7  and  N_8
REMARK    3  A    between atoms: N_8  and  C_9
REMARK    4  A    between atoms: C_9  and  C_10
REMARK    5  A    between atoms: C_13  and  N_14
REMARK                            x       y       z     vdW  Elec       q    Type
REMARK                         _______ _______ _______ _____ _____    ______ ____
ROOT
ATOM      1  N   UNL     1      28.498  23.195  29.072  0.00  0.00    +0.000 NA
ENDROOT
BRANCH   1   5
ATOM      2  C   UNL     1      31.797  21.992  31.463  0.00  0.00    +0.000 A 
ATOM      3  C   UNL     1      30.491  21.954  31.928  0.00  0.00    +0.000 A 
ATOM      4  C   UNL     1      29.412  22.338  31.175  0.00  0.00    +0.000 A 
ATOM      5  C   UNL     1      29.601  22.787  29.886  0.00  0.00    +0.000 A 
ATOM      6  C   UNL     1      30.901  22.832  29.402  0.00  0.00    +0.000 A 
ATOM      7  C   UNL     1      31.967  22.442  30.177  0.00  0.00    +0.000 A 
BRANCH   2   9
ATOM      8  C   UNL     1      33.952  20.802  31.698  0.00  0.00    +0.000 C 
ATOM      9  N   UNL     1      32.891  21.586  32.278  0.00  0.00    +0.000 N 
ATOM     10  C   UNL     1      32.950  21.949  33.668  0.00  0.00    +0.000 C 
ENDBRANCH   2   9
ENDBRANCH   1   5
BRANCH   1  11
ATOM     11  C   UNL     1      27.906  22.201  28.204  0.00  0.00    +0.000 C 
BRANCH  11  12
ATOM     12  C   UNL     1      28.120  22.535  26.771  0.00  0.00    +0.000 A 
ATOM     13  C   UNL     1      29.362  22.465  26.175  0.00  0.00    +0.000 A 
ATOM     14  C   UNL     1      29.549  22.777  24.844  0.00  0.00    +0.000 A 
ATOM     15  C   UNL     1      28.495  23.178  24.041  0.00  0.00    +0.000 A 
ATOM     16  C   UNL     1      27.257  23.247  24.647  0.00  0.00    +0.000 A 
ATOM     17  C   UNL     1      27.065  22.935  25.976  0.00  0.00    +0.000 A 
BRANCH  15  18
ATOM     18  N   UNL     1      28.685  23.501  22.672  0.00  0.00    +0.000 N 
ATOM     19  O   UNL     1      27.796  23.197  21.861  0.00  0.00    +0.000 OA
ATOM     20  O   UNL     1      29.799  24.130  22.196  0.00  0.00    +0.000 OA
ENDBRANCH  15  18
ENDBRANCH  11  12
ENDBRANCH   1  11
TORSDOF 5
ENDMDL
