MODEL 1
REMARK VINA RESULT:      -7.7      0.000      0.000
REMARK  Name = 
REMARK  7 active torsions:
REMARK  status: ('A' for Active; 'I' for Inactive)
REMARK    1  A    between atoms: C_10  and  C_11
REMARK    2  A    between atoms: N_17  and  C_18
REMARK    3  A    between atoms: C_18  and  C_19
REMARK    4  A    between atoms: C_22  and  O_23
REMARK    5  A    between atoms: O_23  and  C_24
REMARK    6  A    between atoms: C_24  and  C_25
REMARK    7  A    between atoms: C_25  and  N_26
REMARK                            x       y       z     vdW  Elec       q    Type
REMARK                         _______ _______ _______ _____ _____    ______ ____
ROOT
ATOM      1  O   UNL     1      44.930   7.050  18.061  0.00  0.00    +0.000 OA
ATOM      2  C   UNL     1      43.565   6.932  17.773  0.00  0.00    +0.000 A 
ATOM      3  C   UNL     1      43.082   7.181  16.506  0.00  0.00    +0.000 A 
ATOM      4  C   UNL     1      41.751   7.080  16.176  0.00  0.00    +0.000 A 
ATOM      5  C   UNL     1      40.838   6.704  17.175  0.00  0.00    +0.000 A 
ATOM      6  C   UNL     1      41.323   6.453  18.446  0.00  0.00    +0.000 A 
ATOM      7  C   UNL     1      42.640   6.566  18.723  0.00  0.00    +0.000 A 
ATOM      8  C   UNL     1      40.285   6.057  19.440  0.00  0.00    +0.000 C 
ATOM      9  C   UNL     1      39.057   5.546  18.864  0.00  0.00    +0.000 C 
ATOM     10  C   UNL     1      38.373   6.678  17.885  0.00  0.00    +0.000 C 
ATOM     11  N   UNL     1      39.513   6.612  16.821  0.00  0.00    +0.000 N 
ENDROOT
BRANCH  10  12
ATOM     12  C   UNL     1      38.832   7.969  18.657  0.00  0.00    +0.000 A 
ATOM     13  C   UNL     1      39.355   9.017  17.989  0.00  0.00    +0.000 A 
ATOM     14  C   UNL     1      39.764  10.157  18.642  0.00  0.00    +0.000 A 
ATOM     15  C   UNL     1      39.636  10.221  20.007  0.00  0.00    +0.000 A 
ATOM     16  C   UNL     1      39.104   9.166  20.723  0.00  0.00    +0.000 A 
ATOM     17  C   UNL     1      38.701   8.023  20.002  0.00  0.00    +0.000 A 
ENDBRANCH  10  12
BRANCH  11  18
ATOM     18  C   UNL     1      39.109   6.447  15.443  0.00  0.00    +0.000 C 
BRANCH  18  19
ATOM     19  C   UNL     1      38.514   5.118  15.179  0.00  0.00    +0.000 A 
ATOM     20  C   UNL     1      37.153   5.046  14.977  0.00  0.00    +0.000 A 
ATOM     21  C   UNL     1      36.522   3.856  14.728  0.00  0.00    +0.000 A 
ATOM     22  C   UNL     1      37.247   2.699  14.675  0.00  0.00    +0.000 A 
ATOM     23  C   UNL     1      38.602   2.741  14.872  0.00  0.00    +0.000 A 
ATOM     24  C   UNL     1      39.242   3.936  15.123  0.00  0.00    +0.000 A 
BRANCH  22  25
ATOM     25  O   UNL     1      36.605   1.493  14.424  0.00  0.00    +0.000 OA
BRANCH  25  26
ATOM     26  C   UNL     1      35.637   1.006  15.319  0.00  0.00    +0.000 C 
BRANCH  26  27
ATOM     27  C   UNL     1      36.331   0.410  16.548  0.00  0.00    +0.000 C 
BRANCH  27  28
ATOM     28  N   UNL     1      35.339   0.015  17.494  0.00  0.00    +0.000 NA
ATOM     29  C   UNL     1      35.798   0.118  18.843  0.00  0.00    +0.000 C 
ATOM     30  C   UNL     1      36.549  -1.159  19.238  0.00  0.00    +0.000 C 
ATOM     31  C   UNL     1      36.852  -1.965  17.988  0.00  0.00    +0.000 C 
ATOM     32  C   UNL     1      35.567  -2.419  17.301  0.00  0.00    +0.000 C 
ATOM     33  C   UNL     1      34.689  -1.213  17.151  0.00  0.00    +0.000 C 
ENDBRANCH  27  28
ENDBRANCH  26  27
ENDBRANCH  25  26
ENDBRANCH  22  25
ENDBRANCH  18  19
ENDBRANCH  11  18
TORSDOF 7
ENDMDL
MODEL 2
REMARK VINA RESULT:      -7.4      1.389      2.006
REMARK  Name = 
REMARK  7 active torsions:
REMARK  status: ('A' for Active; 'I' for Inactive)
REMARK    1  A    between atoms: C_10  and  C_11
REMARK    2  A    between atoms: N_17  and  C_18
REMARK    3  A    between atoms: C_18  and  C_19
REMARK    4  A    between atoms: C_22  and  O_23
REMARK    5  A    between atoms: O_23  and  C_24
REMARK    6  A    between atoms: C_24  and  C_25
REMARK    7  A    between atoms: C_25  and  N_26
REMARK                            x       y       z     vdW  Elec       q    Type
REMARK                         _______ _______ _______ _____ _____    ______ ____
ROOT
ATOM      1  O   UNL     1      44.815   7.056  17.506  0.00  0.00    +0.000 OA
ATOM      2  C   UNL     1      43.436   6.898  17.324  0.00  0.00    +0.000 A 
ATOM      3  C   UNL     1      42.852   7.110  16.093  0.00  0.00    +0.000 A 
ATOM      4  C   UNL     1      41.504   6.968  15.867  0.00  0.00    +0.000 A 
ATOM      5  C   UNL     1      40.679   6.589  16.939  0.00  0.00    +0.000 A 
ATOM      6  C   UNL     1      41.265   6.376  18.173  0.00  0.00    +0.000 A 
ATOM      7  C   UNL     1      42.595   6.528  18.348  0.00  0.00    +0.000 A 
ATOM      8  C   UNL     1      40.316   5.973  19.250  0.00  0.00    +0.000 C 
ATOM      9  C   UNL     1      39.061   5.420  18.777  0.00  0.00    +0.000 C 
ATOM     10  C   UNL     1      38.276   6.514  17.833  0.00  0.00    +0.000 C 
ATOM     11  N   UNL     1      39.334   6.456  16.687  0.00  0.00    +0.000 N 
ENDROOT
BRANCH  10  12
ATOM     12  C   UNL     1      38.757   7.832  18.546  0.00  0.00    +0.000 A 
ATOM     13  C   UNL     1      38.774   7.916  19.891  0.00  0.00    +0.000 A 
ATOM     14  C   UNL     1      39.190   9.057  20.537  0.00  0.00    +0.000 A 
ATOM     15  C   UNL     1      39.596  10.133  19.786  0.00  0.00    +0.000 A 
ATOM     16  C   UNL     1      39.591  10.080  18.406  0.00  0.00    +0.000 A 
ATOM     17  C   UNL     1      39.155   8.885  17.797  0.00  0.00    +0.000 A 
ENDBRANCH  10  12
BRANCH  11  18
ATOM     18  C   UNL     1      38.832   6.254  15.347  0.00  0.00    +0.000 C 
BRANCH  18  19
ATOM     19  C   UNL     1      38.294   4.891  15.140  0.00  0.00    +0.000 A 
ATOM     20  C   UNL     1      36.938   4.754  14.937  0.00  0.00    +0.000 A 
ATOM     21  C   UNL     1      36.357   3.529  14.740  0.00  0.00    +0.000 A 
ATOM     22  C   UNL     1      37.130   2.402  14.740  0.00  0.00    +0.000 A 
ATOM     23  C   UNL     1      38.481   2.508  14.938  0.00  0.00    +0.000 A 
ATOM     24  C   UNL     1      39.070   3.739  15.137  0.00  0.00    +0.000 A 
BRANCH  22  25
ATOM     25  O   UNL     1      36.540   1.161  14.539  0.00  0.00    +0.000 OA
BRANCH  25  26
ATOM     26  C   UNL     1      35.939   0.480  15.613  0.00  0.00    +0.000 C 
BRANCH  26  27
ATOM     27  C   UNL     1      36.864  -0.647  16.085  0.00  0.00    +0.000 C 
BRANCH  27  28
ATOM     28  N   UNL     1      37.549  -1.187  14.957  0.00  0.00    +0.000 NA
ATOM     29  C   UNL     1      36.912  -2.355  14.439  0.00  0.00    +0.000 C 
ATOM     30  C   UNL     1      37.391  -3.594  15.205  0.00  0.00    +0.000 C 
ATOM     31  C   UNL     1      38.113  -3.152  16.464  0.00  0.00    +0.000 C 
ATOM     32  C   UNL     1      39.365  -2.348  16.126  0.00  0.00    +0.000 C 
ATOM     33  C   UNL     1      38.964  -1.284  15.150  0.00  0.00    +0.000 C 
ENDBRANCH  27  28
ENDBRANCH  26  27
ENDBRANCH  25  26
ENDBRANCH  22  25
ENDBRANCH  18  19
ENDBRANCH  11  18
TORSDOF 7
ENDMDL
MODEL 3
REMARK VINA RESULT:      -7.2      4.115      6.306
REMARK  Name = 
REMARK  7 active torsions:
REMARK  status: ('A' for Active; 'I' for Inactive)
REMARK    1  A    between atoms: C_10  and  C_11
REMARK    2  A    between atoms: N_17  and  C_18
REMARK    3  A    between atoms: C_18  and  C_19
REMARK    4  A    between atoms: C_22  and  O_23
REMARK    5  A    between atoms: O_23  and  C_24
REMARK    6  A    between atoms: C_24  and  C_25
REMARK    7  A    between atoms: C_25  and  N_26
REMARK                            x       y       z     vdW  Elec       q    Type
REMARK                         _______ _______ _______ _____ _____    ______ ____
ROOT
ATOM      1  O   UNL     1      44.939   7.039  18.565  0.00  0.00    +0.000 OA
ATOM      2  C   UNL     1      43.603   6.920  18.162  0.00  0.00    +0.000 A 
ATOM      3  C   UNL     1      43.233   7.147  16.854  0.00  0.00    +0.000 A 
ATOM      4  C   UNL     1      41.935   7.043  16.412  0.00  0.00    +0.000 A 
ATOM      5  C   UNL     1      40.938   6.688  17.335  0.00  0.00    +0.000 A 
ATOM      6  C   UNL     1      41.310   6.459  18.647  0.00  0.00    +0.000 A 
ATOM      7  C   UNL     1      42.598   6.574  19.035  0.00  0.00    +0.000 A 
ATOM      8  C   UNL     1      40.188   6.084  19.555  0.00  0.00    +0.000 C 
ATOM      9  C   UNL     1      39.012   5.566  18.883  0.00  0.00    +0.000 C 
ATOM     10  C   UNL     1      38.420   6.681  17.829  0.00  0.00    +0.000 C 
ATOM     11  N   UNL     1      39.648   6.593  16.868  0.00  0.00    +0.000 N 
ENDROOT
BRANCH  10  12
ATOM     12  C   UNL     1      38.816   7.986  18.614  0.00  0.00    +0.000 A 
ATOM     13  C   UNL     1      39.469   8.988  17.992  0.00  0.00    +0.000 A 
ATOM     14  C   UNL     1      39.827  10.138  18.658  0.00  0.00    +0.000 A 
ATOM     15  C   UNL     1      39.509  10.260  19.987  0.00  0.00    +0.000 A 
ATOM     16  C   UNL     1      38.840   9.252  20.656  0.00  0.00    +0.000 A 
ATOM     17  C   UNL     1      38.498   8.097  19.924  0.00  0.00    +0.000 A 
ENDBRANCH  10  12
BRANCH  11  18
ATOM     18  C   UNL     1      39.364   6.404  15.464  0.00  0.00    +0.000 C 
BRANCH  18  19
ATOM     19  C   UNL     1      38.298   7.305  14.972  0.00  0.00    +0.000 A 
ATOM     20  C   UNL     1      37.021   6.799  14.863  0.00  0.00    +0.000 A 
ATOM     21  C   UNL     1      35.976   7.564  14.414  0.00  0.00    +0.000 A 
ATOM     22  C   UNL     1      36.190   8.866  14.061  0.00  0.00    +0.000 A 
ATOM     23  C   UNL     1      37.449   9.396  14.159  0.00  0.00    +0.000 A 
ATOM     24  C   UNL     1      38.504   8.630  14.611  0.00  0.00    +0.000 A 
BRANCH  22  25
ATOM     25  O   UNL     1      35.131   9.640  13.605  0.00  0.00    +0.000 OA
BRANCH  25  26
ATOM     26  C   UNL     1      34.098  10.014  14.483  0.00  0.00    +0.000 C 
BRANCH  26  27
ATOM     27  C   UNL     1      34.533  11.242  15.291  0.00  0.00    +0.000 C 
BRANCH  27  28
ATOM     28  N   UNL     1      34.024  11.127  16.618  0.00  0.00    +0.000 NA
ATOM     29  C   UNL     1      34.258  12.301  17.397  0.00  0.00    +0.000 C 
ATOM     30  C   UNL     1      35.655  12.240  18.027  0.00  0.00    +0.000 C 
ATOM     31  C   UNL     1      36.454  11.136  17.360  0.00  0.00    +0.000 C 
ATOM     32  C   UNL     1      35.815   9.771  17.603  0.00  0.00    +0.000 C 
ATOM     33  C   UNL     1      34.364   9.887  17.246  0.00  0.00    +0.000 C 
ENDBRANCH  27  28
ENDBRANCH  26  27
ENDBRANCH  25  26
ENDBRANCH  22  25
ENDBRANCH  18  19
ENDBRANCH  11  18
TORSDOF 7
ENDMDL
MODEL 4
REMARK VINA RESULT:      -7.2      1.363      1.805
REMARK  Name = 
REMARK  7 active torsions:
REMARK  status: ('A' for Active; 'I' for Inactive)
REMARK    1  A    between atoms: C_10  and  C_11
REMARK    2  A    between atoms: N_17  and  C_18
REMARK    3  A    between atoms: C_18  and  C_19
REMARK    4  A    between atoms: C_22  and  O_23
REMARK    5  A    between atoms: O_23  and  C_24
REMARK    6  A    between atoms: C_24  and  C_25
REMARK    7  A    between atoms: C_25  and  N_26
REMARK                            x       y       z     vdW  Elec       q    Type
REMARK                         _______ _______ _______ _____ _____    ______ ____
ROOT
ATOM      1  O   UNL     1      44.735   7.151  17.142  0.00  0.00    +0.000 OA
ATOM      2  C   UNL     1      43.360   6.906  17.039  0.00  0.00    +0.000 A 
ATOM      3  C   UNL     1      42.719   6.957  15.820  0.00  0.00    +0.000 A 
ATOM      4  C   UNL     1      41.372   6.725  15.670  0.00  0.00    +0.000 A 
ATOM      5  C   UNL     1      40.611   6.422  16.811  0.00  0.00    +0.000 A 
ATOM      6  C   UNL     1      41.255   6.372  18.034  0.00  0.00    +0.000 A 
ATOM      7  C   UNL     1      42.581   6.607  18.133  0.00  0.00    +0.000 A 
ATOM      8  C   UNL     1      40.372   6.040  19.188  0.00  0.00    +0.000 C 
ATOM      9  C   UNL     1      39.131   5.378  18.832  0.00  0.00    +0.000 C 
ATOM     10  C   UNL     1      38.252   6.324  17.814  0.00  0.00    +0.000 C 
ATOM     11  N   UNL     1      39.267   6.197  16.634  0.00  0.00    +0.000 N 
ENDROOT
BRANCH  10  12
ATOM     12  C   UNL     1      38.689   7.733  18.362  0.00  0.00    +0.000 A 
ATOM     13  C   UNL     1      39.010   8.729  17.512  0.00  0.00    +0.000 A 
ATOM     14  C   UNL     1      39.396   9.969  17.967  0.00  0.00    +0.000 A 
ATOM     15  C   UNL     1      39.453  10.190  19.320  0.00  0.00    +0.000 A 
ATOM     16  C   UNL     1      39.130   9.191  20.219  0.00  0.00    +0.000 A 
ATOM     17  C   UNL     1      38.741   7.941  19.697  0.00  0.00    +0.000 A 
ENDBRANCH  10  12
BRANCH  11  18
ATOM     18  C   UNL     1      38.725   5.828  15.346  0.00  0.00    +0.000 C 
BRANCH  18  19
ATOM     19  C   UNL     1      38.373   4.393  15.266  0.00  0.00    +0.000 A 
ATOM     20  C   UNL     1      39.316   3.522  14.766  0.00  0.00    +0.000 A 
ATOM     21  C   UNL     1      39.072   2.178  14.655  0.00  0.00    +0.000 A 
ATOM     22  C   UNL     1      37.865   1.671  15.048  0.00  0.00    +0.000 A 
ATOM     23  C   UNL     1      36.909   2.514  15.550  0.00  0.00    +0.000 A 
ATOM     24  C   UNL     1      37.150   3.867  15.663  0.00  0.00    +0.000 A 
BRANCH  22  25
ATOM     25  O   UNL     1      37.618   0.309  14.935  0.00  0.00    +0.000 OA
BRANCH  25  26
ATOM     26  C   UNL     1      36.510  -0.267  15.580  0.00  0.00    +0.000 C 
BRANCH  26  27
ATOM     27  C   UNL     1      36.157  -1.595  14.902  0.00  0.00    +0.000 C 
BRANCH  27  28
ATOM     28  N   UNL     1      35.392  -2.388  15.807  0.00  0.00    +0.000 NA
ATOM     29  C   UNL     1      36.053  -2.578  17.060  0.00  0.00    +0.000 C 
ATOM     30  C   UNL     1      37.011  -3.772  16.968  0.00  0.00    +0.000 C 
ATOM     31  C   UNL     1      37.199  -4.149  15.511  0.00  0.00    +0.000 C 
ATOM     32  C   UNL     1      35.884  -4.608  14.887  0.00  0.00    +0.000 C 
ATOM     33  C   UNL     1      34.852  -3.568  15.205  0.00  0.00    +0.000 C 
ENDBRANCH  27  28
ENDBRANCH  26  27
ENDBRANCH  25  26
ENDBRANCH  22  25
ENDBRANCH  18  19
ENDBRANCH  11  18
TORSDOF 7
ENDMDL
MODEL 5
REMARK VINA RESULT:      -7.1      3.971      9.478
REMARK  Name = 
REMARK  7 active torsions:
REMARK  status: ('A' for Active; 'I' for Inactive)
REMARK    1  A    between atoms: C_10  and  C_11
REMARK    2  A    between atoms: N_17  and  C_18
REMARK    3  A    between atoms: C_18  and  C_19
REMARK    4  A    between atoms: C_22  and  O_23
REMARK    5  A    between atoms: O_23  and  C_24
REMARK    6  A    between atoms: C_24  and  C_25
REMARK    7  A    between atoms: C_25  and  N_26
REMARK                            x       y       z     vdW  Elec       q    Type
REMARK                         _______ _______ _______ _____ _____    ______ ____
ROOT
ATOM      1  O   UNL     1      39.361  -4.080  16.731  0.00  0.00    +0.000 OA
ATOM      2  C   UNL     1      39.404  -2.958  15.894  0.00  0.00    +0.000 A 
ATOM      3  C   UNL     1      38.247  -2.330  15.487  0.00  0.00    +0.000 A 
ATOM      4  C   UNL     1      38.240  -1.228  14.666  0.00  0.00    +0.000 A 
ATOM      5  C   UNL     1      39.468  -0.715  14.218  0.00  0.00    +0.000 A 
ATOM      6  C   UNL     1      40.630  -1.346  14.627  0.00  0.00    +0.000 A 
ATOM      7  C   UNL     1      40.587  -2.426  15.435  0.00  0.00    +0.000 A 
ATOM      8  C   UNL     1      41.885  -0.732  14.108  0.00  0.00    +0.000 C 
ATOM      9  C   UNL     1      41.752   0.645  13.671  0.00  0.00    +0.000 C 
ATOM     10  C   UNL     1      40.635   0.756  12.470  0.00  0.00    +0.000 C 
ATOM     11  N   UNL     1      39.434   0.386  13.396  0.00  0.00    +0.000 N 
ENDROOT
BRANCH  10  12
ATOM     12  C   UNL     1      40.867  -0.648  11.798  0.00  0.00    +0.000 A 
ATOM     13  C   UNL     1      42.117  -1.089  11.547  0.00  0.00    +0.000 A 
ATOM     14  C   UNL     1      42.345  -2.312  10.960  0.00  0.00    +0.000 A 
ATOM     15  C   UNL     1      41.271  -3.097  10.624  0.00  0.00    +0.000 A 
ATOM     16  C   UNL     1      39.977  -2.677  10.868  0.00  0.00    +0.000 A 
ATOM     17  C   UNL     1      39.802  -1.415  11.472  0.00  0.00    +0.000 A 
ENDBRANCH  10  12
BRANCH  11  18
ATOM     18  C   UNL     1      38.284   1.259  13.350  0.00  0.00    +0.000 C 
BRANCH  18  19
ATOM     19  C   UNL     1      38.332   2.321  14.379  0.00  0.00    +0.000 A 
ATOM     20  C   UNL     1      37.349   2.334  15.344  0.00  0.00    +0.000 A 
ATOM     21  C   UNL     1      37.319   3.283  16.332  0.00  0.00    +0.000 A 
ATOM     22  C   UNL     1      38.283   4.250  16.377  0.00  0.00    +0.000 A 
ATOM     23  C   UNL     1      39.274   4.261  15.431  0.00  0.00    +0.000 A 
ATOM     24  C   UNL     1      39.309   3.308  14.434  0.00  0.00    +0.000 A 
BRANCH  22  25
ATOM     25  O   UNL     1      38.251   5.211  17.379  0.00  0.00    +0.000 OA
BRANCH  25  26
ATOM     26  C   UNL     1      39.310   5.312  18.298  0.00  0.00    +0.000 C 
BRANCH  26  27
ATOM     27  C   UNL     1      39.031   6.462  19.273  0.00  0.00    +0.000 C 
BRANCH  27  28
ATOM     28  N   UNL     1      38.759   7.646  18.527  0.00  0.00    +0.000 NA
ATOM     29  C   UNL     1      39.876   8.535  18.486  0.00  0.00    +0.000 C 
ATOM     30  C   UNL     1      39.876   9.431  19.731  0.00  0.00    +0.000 C 
ATOM     31  C   UNL     1      38.905   8.867  20.750  0.00  0.00    +0.000 C 
ATOM     32  C   UNL     1      37.476   8.880  20.215  0.00  0.00    +0.000 C 
ATOM     33  C   UNL     1      37.501   8.243  18.858  0.00  0.00    +0.000 C 
ENDBRANCH  27  28
ENDBRANCH  26  27
ENDBRANCH  25  26
ENDBRANCH  22  25
ENDBRANCH  18  19
ENDBRANCH  11  18
TORSDOF 7
ENDMDL
MODEL 6
REMARK VINA RESULT:      -7.1      4.974      9.195
REMARK  Name = 
REMARK  7 active torsions:
REMARK  status: ('A' for Active; 'I' for Inactive)
REMARK    1  A    between atoms: C_10  and  C_11
REMARK    2  A    between atoms: N_17  and  C_18
REMARK    3  A    between atoms: C_18  and  C_19
REMARK    4  A    between atoms: C_22  and  O_23
REMARK    5  A    between atoms: O_23  and  C_24
REMARK    6  A    between atoms: C_24  and  C_25
REMARK    7  A    between atoms: C_25  and  N_26
REMARK                            x       y       z     vdW  Elec       q    Type
REMARK                         _______ _______ _______ _____ _____    ______ ____
ROOT
ATOM      1  O   UNL     1      44.404   1.509  13.266  0.00  0.00    +0.000 OA
ATOM      2  C   UNL     1      43.349   0.589  13.325  0.00  0.00    +0.000 A 
ATOM      3  C   UNL     1      43.295  -0.367  14.316  0.00  0.00    +0.000 A 
ATOM      4  C   UNL     1      42.281  -1.291  14.413  0.00  0.00    +0.000 A 
ATOM      5  C   UNL     1      41.251  -1.260  13.458  0.00  0.00    +0.000 A 
ATOM      6  C   UNL     1      41.306  -0.300  12.464  0.00  0.00    +0.000 A 
ATOM      7  C   UNL     1      42.323   0.587  12.409  0.00  0.00    +0.000 A 
ATOM      8  C   UNL     1      40.171  -0.340  11.499  0.00  0.00    +0.000 C 
ATOM      9  C   UNL     1      38.986  -1.021  11.984  0.00  0.00    +0.000 C 
ATOM     10  C   UNL     1      39.341  -2.580  12.367  0.00  0.00    +0.000 C 
ATOM     11  N   UNL     1      40.251  -2.196  13.576  0.00  0.00    +0.000 N 
ENDROOT
BRANCH  10  12
ATOM     12  C   UNL     1      40.460  -2.841  11.292  0.00  0.00    +0.000 A 
ATOM     13  C   UNL     1      40.297  -2.424  10.020  0.00  0.00    +0.000 A 
ATOM     14  C   UNL     1      41.260  -2.641   9.062  0.00  0.00    +0.000 A 
ATOM     15  C   UNL     1      42.411  -3.299   9.416  0.00  0.00    +0.000 A 
ATOM     16  C   UNL     1      42.611  -3.739  10.711  0.00  0.00    +0.000 A 
ATOM     17  C   UNL     1      41.590  -3.489  11.651  0.00  0.00    +0.000 A 
ENDBRANCH  10  12
BRANCH  11  18
ATOM     18  C   UNL     1      39.989  -2.870  14.827  0.00  0.00    +0.000 C 
BRANCH  18  19
ATOM     19  C   UNL     1      38.821  -2.311  15.542  0.00  0.00    +0.000 A 
ATOM     20  C   UNL     1      37.612  -2.278  14.882  0.00  0.00    +0.000 A 
ATOM     21  C   UNL     1      36.481  -1.775  15.470  0.00  0.00    +0.000 A 
ATOM     22  C   UNL     1      36.536  -1.290  16.746  0.00  0.00    +0.000 A 
ATOM     23  C   UNL     1      37.724  -1.310  17.427  0.00  0.00    +0.000 A 
ATOM     24  C   UNL     1      38.865  -1.815  16.840  0.00  0.00    +0.000 A 
BRANCH  22  25
ATOM     25  O   UNL     1      35.388  -0.780  17.340  0.00  0.00    +0.000 OA
BRANCH  25  26
ATOM     26  C   UNL     1      34.866   0.458  16.926  0.00  0.00    +0.000 C 
BRANCH  26  27
ATOM     27  C   UNL     1      35.979   1.511  16.932  0.00  0.00    +0.000 C 
BRANCH  27  28
ATOM     28  N   UNL     1      35.740   2.444  15.881  0.00  0.00    +0.000 NA
ATOM     29  C   UNL     1      35.499   1.805  14.627  0.00  0.00    +0.000 C 
ATOM     30  C   UNL     1      36.832   1.505  13.930  0.00  0.00    +0.000 C 
ATOM     31  C   UNL     1      37.963   1.671  14.927  0.00  0.00    +0.000 C 
ATOM     32  C   UNL     1      38.054   3.112  15.421  0.00  0.00    +0.000 C 
ATOM     33  C   UNL     1      36.681   3.523  15.859  0.00  0.00    +0.000 C 
ENDBRANCH  27  28
ENDBRANCH  26  27
ENDBRANCH  25  26
ENDBRANCH  22  25
ENDBRANCH  18  19
ENDBRANCH  11  18
TORSDOF 7
ENDMDL
MODEL 7
REMARK VINA RESULT:      -7.1     21.037     24.529
REMARK  Name = 
REMARK  7 active torsions:
REMARK  status: ('A' for Active; 'I' for Inactive)
REMARK    1  A    between atoms: C_10  and  C_11
REMARK    2  A    between atoms: N_17  and  C_18
REMARK    3  A    between atoms: C_18  and  C_19
REMARK    4  A    between atoms: C_22  and  O_23
REMARK    5  A    between atoms: O_23  and  C_24
REMARK    6  A    between atoms: C_24  and  C_25
REMARK    7  A    between atoms: C_25  and  N_26
REMARK                            x       y       z     vdW  Elec       q    Type
REMARK                         _______ _______ _______ _____ _____    ______ ____
ROOT
ATOM      1  O   UNL     1      23.952  16.607  39.449  0.00  0.00    +0.000 OA
ATOM      2  C   UNL     1      24.961  16.484  38.485  0.00  0.00    +0.000 A 
ATOM      3  C   UNL     1      26.176  17.114  38.643  0.00  0.00    +0.000 A 
ATOM      4  C   UNL     1      27.195  17.023  37.724  0.00  0.00    +0.000 A 
ATOM      5  C   UNL     1      26.989  16.253  36.568  0.00  0.00    +0.000 A 
ATOM      6  C   UNL     1      25.769  15.621  36.410  0.00  0.00    +0.000 A 
ATOM      7  C   UNL     1      24.798  15.739  37.340  0.00  0.00    +0.000 A 
ATOM      8  C   UNL     1      25.642  14.823  35.157  0.00  0.00    +0.000 C 
ATOM      9  C   UNL     1      26.902  14.442  34.548  0.00  0.00    +0.000 C 
ATOM     10  C   UNL     1      27.781  15.781  34.174  0.00  0.00    +0.000 C 
ATOM     11  N   UNL     1      28.022  16.180  35.664  0.00  0.00    +0.000 N 
ENDROOT
BRANCH  10  12
ATOM     12  C   UNL     1      26.594  16.761  33.847  0.00  0.00    +0.000 A 
ATOM     13  C   UNL     1      25.550  16.347  33.100  0.00  0.00    +0.000 A 
ATOM     14  C   UNL     1      24.501  17.185  32.800  0.00  0.00    +0.000 A 
ATOM     15  C   UNL     1      24.525  18.473  33.276  0.00  0.00    +0.000 A 
ATOM     16  C   UNL     1      25.578  18.929  34.045  0.00  0.00    +0.000 A 
ATOM     17  C   UNL     1      26.626  18.027  34.321  0.00  0.00    +0.000 A 
ENDBRANCH  10  12
BRANCH  11  18
ATOM     18  C   UNL     1      29.385  16.467  36.048  0.00  0.00    +0.000 C 
BRANCH  18  19
ATOM     19  C   UNL     1      30.166  15.243  36.334  0.00  0.00    +0.000 A 
ATOM     20  C   UNL     1      30.344  14.881  37.652  0.00  0.00    +0.000 A 
ATOM     21  C   UNL     1      31.056  13.765  38.005  0.00  0.00    +0.000 A 
ATOM     22  C   UNL     1      31.610  12.977  37.035  0.00  0.00    +0.000 A 
ATOM     23  C   UNL     1      31.449  13.312  35.717  0.00  0.00    +0.000 A 
ATOM     24  C   UNL     1      30.733  14.435  35.357  0.00  0.00    +0.000 A 
BRANCH  22  25
ATOM     25  O   UNL     1      32.331  11.846  37.394  0.00  0.00    +0.000 OA
BRANCH  25  26
ATOM     26  C   UNL     1      33.618  11.971  37.947  0.00  0.00    +0.000 C 
BRANCH  26  27
ATOM     27  C   UNL     1      34.652  11.407  36.966  0.00  0.00    +0.000 C 
BRANCH  27  28
ATOM     28  N   UNL     1      35.926  11.978  37.257  0.00  0.00    +0.000 NA
ATOM     29  C   UNL     1      36.942  11.536  36.356  0.00  0.00    +0.000 C 
ATOM     30  C   UNL     1      37.531  10.207  36.845  0.00  0.00    +0.000 C 
ATOM     31  C   UNL     1      36.631   9.630  37.920  0.00  0.00    +0.000 C 
ATOM     32  C   UNL     1      36.573  10.546  39.140  0.00  0.00    +0.000 C 
ATOM     33  C   UNL     1      36.263  11.927  38.647  0.00  0.00    +0.000 C 
ENDBRANCH  27  28
ENDBRANCH  26  27
ENDBRANCH  25  26
ENDBRANCH  22  25
ENDBRANCH  18  19
ENDBRANCH  11  18
TORSDOF 7
ENDMDL
MODEL 8
REMARK VINA RESULT:      -7.1      3.493      5.341
REMARK  Name = 
REMARK  7 active torsions:
REMARK  status: ('A' for Active; 'I' for Inactive)
REMARK    1  A    between atoms: C_10  and  C_11
REMARK    2  A    between atoms: N_17  and  C_18
REMARK    3  A    between atoms: C_18  and  C_19
REMARK    4  A    between atoms: C_22  and  O_23
REMARK    5  A    between atoms: O_23  and  C_24
REMARK    6  A    between atoms: C_24  and  C_25
REMARK    7  A    between atoms: C_25  and  N_26
REMARK                            x       y       z     vdW  Elec       q    Type
REMARK                         _______ _______ _______ _____ _____    ______ ____
ROOT
ATOM      1  O   UNL     1      44.705   7.437  18.789  0.00  0.00    +0.000 OA
ATOM      2  C   UNL     1      43.460   7.047  18.280  0.00  0.00    +0.000 A 
ATOM      3  C   UNL     1      43.265   6.886  16.926  0.00  0.00    +0.000 A 
ATOM      4  C   UNL     1      42.062   6.506  16.380  0.00  0.00    +0.000 A 
ATOM      5  C   UNL     1      40.979   6.268  17.242  0.00  0.00    +0.000 A 
ATOM      6  C   UNL     1      41.175   6.429  18.602  0.00  0.00    +0.000 A 
ATOM      7  C   UNL     1      42.376   6.804  19.092  0.00  0.00    +0.000 A 
ATOM      8  C   UNL     1      39.974   6.152  19.440  0.00  0.00    +0.000 C 
ATOM      9  C   UNL     1      38.963   5.332  18.800  0.00  0.00    +0.000 C 
ATOM     10  C   UNL     1      38.428   6.058  17.424  0.00  0.00    +0.000 C 
ATOM     11  N   UNL     1      39.786   5.891  16.672  0.00  0.00    +0.000 N 
ENDROOT
BRANCH  10  12
ATOM     12  C   UNL     1      38.579   7.558  17.872  0.00  0.00    +0.000 A 
ATOM     13  C   UNL     1      39.211   8.449  17.081  0.00  0.00    +0.000 A 
ATOM     14  C   UNL     1      39.356   9.766  17.452  0.00  0.00    +0.000 A 
ATOM     15  C   UNL     1      38.843  10.176  18.658  0.00  0.00    +0.000 A 
ATOM     16  C   UNL     1      38.190   9.289  19.492  0.00  0.00    +0.000 A 
ATOM     17  C   UNL     1      38.070   7.952  19.062  0.00  0.00    +0.000 A 
ENDBRANCH  10  12
BRANCH  11  18
ATOM     18  C   UNL     1      39.730   5.318  15.346  0.00  0.00    +0.000 C 
BRANCH  18  19
ATOM     19  C   UNL     1      38.438   5.570  14.671  0.00  0.00    +0.000 A 
ATOM     20  C   UNL     1      38.288   6.750  13.976  0.00  0.00    +0.000 A 
ATOM     21  C   UNL     1      37.125   7.063  13.324  0.00  0.00    +0.000 A 
ATOM     22  C   UNL     1      36.073   6.191  13.353  0.00  0.00    +0.000 A 
ATOM     23  C   UNL     1      36.193   5.009  14.036  0.00  0.00    +0.000 A 
ATOM     24  C   UNL     1      37.363   4.690  14.693  0.00  0.00    +0.000 A 
BRANCH  22  25
ATOM     25  O   UNL     1      34.894   6.509  12.692  0.00  0.00    +0.000 OA
BRANCH  25  26
ATOM     26  C   UNL     1      33.751   6.881  13.422  0.00  0.00    +0.000 C 
BRANCH  26  27
ATOM     27  C   UNL     1      34.176   7.498  14.759  0.00  0.00    +0.000 C 
BRANCH  27  28
ATOM     28  N   UNL     1      33.712   8.845  14.816  0.00  0.00    +0.000 NA
ATOM     29  C   UNL     1      34.468   9.720  13.978  0.00  0.00    +0.000 C 
ATOM     30  C   UNL     1      35.711  10.215  14.728  0.00  0.00    +0.000 C 
ATOM     31  C   UNL     1      35.913   9.367  15.970  0.00  0.00    +0.000 C 
ATOM     32  C   UNL     1      34.742   9.520  16.937  0.00  0.00    +0.000 C 
ATOM     33  C   UNL     1      33.483   9.306  16.152  0.00  0.00    +0.000 C 
ENDBRANCH  27  28
ENDBRANCH  26  27
ENDBRANCH  25  26
ENDBRANCH  22  25
ENDBRANCH  18  19
ENDBRANCH  11  18
TORSDOF 7
ENDMDL
MODEL 9
REMARK VINA RESULT:      -6.9     24.103     28.322
REMARK  Name = 
REMARK  7 active torsions:
REMARK  status: ('A' for Active; 'I' for Inactive)
REMARK    1  A    between atoms: C_10  and  C_11
REMARK    2  A    between atoms: N_17  and  C_18
REMARK    3  A    between atoms: C_18  and  C_19
REMARK    4  A    between atoms: C_22  and  O_23
REMARK    5  A    between atoms: O_23  and  C_24
REMARK    6  A    between atoms: C_24  and  C_25
REMARK    7  A    between atoms: C_25  and  N_26
REMARK                            x       y       z     vdW  Elec       q    Type
REMARK                         _______ _______ _______ _____ _____    ______ ____
ROOT
ATOM      1  O   UNL     1       7.495   0.058  23.904  0.00  0.00    +0.000 OA
ATOM      2  C   UNL     1       8.472   0.394  24.851  0.00  0.00    +0.000 A 
ATOM      3  C   UNL     1       8.966  -0.548  25.727  0.00  0.00    +0.000 A 
ATOM      4  C   UNL     1       9.923  -0.264  26.673  0.00  0.00    +0.000 A 
ATOM      5  C   UNL     1      10.422   1.046  26.751  0.00  0.00    +0.000 A 
ATOM      6  C   UNL     1       9.926   1.991  25.871  0.00  0.00    +0.000 A 
ATOM      7  C   UNL     1       8.986   1.666  24.959  0.00  0.00    +0.000 A 
ATOM      8  C   UNL     1      10.515   3.351  26.024  0.00  0.00    +0.000 C 
ATOM      9  C   UNL     1      11.796   3.386  26.703  0.00  0.00    +0.000 C 
ATOM     10  C   UNL     1      11.657   2.753  28.215  0.00  0.00    +0.000 C 
ATOM     11  N   UNL     1      11.376   1.304  27.707  0.00  0.00    +0.000 N 
ENDROOT
BRANCH  10  12
ATOM     12  C   UNL     1      10.179   3.196  28.523  0.00  0.00    +0.000 A 
ATOM     13  C   UNL     1       9.682   4.335  27.999  0.00  0.00    +0.000 A 
ATOM     14  C   UNL     1       8.394   4.744  28.255  0.00  0.00    +0.000 A 
ATOM     15  C   UNL     1       7.601   3.968  29.063  0.00  0.00    +0.000 A 
ATOM     16  C   UNL     1       8.078   2.795  29.616  0.00  0.00    +0.000 A 
ATOM     17  C   UNL     1       9.405   2.425  29.320  0.00  0.00    +0.000 A 
ENDBRANCH  10  12
BRANCH  11  18
ATOM     18  C   UNL     1      12.170   0.245  28.288  0.00  0.00    +0.000 C 
BRANCH  18  19
ATOM     19  C   UNL     1      13.409  -0.023  27.525  0.00  0.00    +0.000 A 
ATOM     20  C   UNL     1      14.603   0.417  28.053  0.00  0.00    +0.000 A 
ATOM     21  C   UNL     1      15.796   0.212  27.411  0.00  0.00    +0.000 A 
ATOM     22  C   UNL     1      15.819  -0.445  26.213  0.00  0.00    +0.000 A 
ATOM     23  C   UNL     1      14.647  -0.894  25.665  0.00  0.00    +0.000 A 
ATOM     24  C   UNL     1      13.444  -0.691  26.307  0.00  0.00    +0.000 A 
BRANCH  22  25
ATOM     25  O   UNL     1      17.029  -0.652  25.563  0.00  0.00    +0.000 OA
BRANCH  25  26
ATOM     26  C   UNL     1      18.231  -0.216  26.148  0.00  0.00    +0.000 C 
BRANCH  26  27
ATOM     27  C   UNL     1      19.401  -0.536  25.211  0.00  0.00    +0.000 C 
BRANCH  27  28
ATOM     28  N   UNL     1      20.156   0.654  24.990  0.00  0.00    +0.000 NA
ATOM     29  C   UNL     1      19.496   1.563  24.108  0.00  0.00    +0.000 C 
ATOM     30  C   UNL     1      19.814   1.202  22.652  0.00  0.00    +0.000 C 
ATOM     31  C   UNL     1      20.438  -0.180  22.607  0.00  0.00    +0.000 C 
ATOM     32  C   UNL     1      21.768  -0.209  23.355  0.00  0.00    +0.000 C 
ATOM     33  C   UNL     1      21.535   0.402  24.705  0.00  0.00    +0.000 C 
ENDBRANCH  27  28
ENDBRANCH  26  27
ENDBRANCH  25  26
ENDBRANCH  22  25
ENDBRANCH  18  19
ENDBRANCH  11  18
TORSDOF 7
ENDMDL
MODEL 10
REMARK VINA RESULT:      -6.9      4.536      6.717
REMARK  Name = 
REMARK  7 active torsions:
REMARK  status: ('A' for Active; 'I' for Inactive)
REMARK    1  A    between atoms: C_10  and  C_11
REMARK    2  A    between atoms: N_17  and  C_18
REMARK    3  A    between atoms: C_18  and  C_19
REMARK    4  A    between atoms: C_22  and  O_23
REMARK    5  A    between atoms: O_23  and  C_24
REMARK    6  A    between atoms: C_24  and  C_25
REMARK    7  A    between atoms: C_25  and  N_26
REMARK                            x       y       z     vdW  Elec       q    Type
REMARK                         _______ _______ _______ _____ _____    ______ ____
ROOT
ATOM      1  O   UNL     1      42.611   5.514  11.946  0.00  0.00    +0.000 OA
ATOM      2  C   UNL     1      41.409   4.817  12.120  0.00  0.00    +0.000 A 
ATOM      3  C   UNL     1      40.527   5.161  13.121  0.00  0.00    +0.000 A 
ATOM      4  C   UNL     1      39.337   4.506  13.332  0.00  0.00    +0.000 A 
ATOM      5  C   UNL     1      39.001   3.436  12.487  0.00  0.00    +0.000 A 
ATOM      6  C   UNL     1      39.886   3.091  11.482  0.00  0.00    +0.000 A 
ATOM      7  C   UNL     1      41.045   3.763  11.314  0.00  0.00    +0.000 A 
ATOM      8  C   UNL     1      39.447   1.947  10.633  0.00  0.00    +0.000 C 
ATOM      9  C   UNL     1      38.022   1.681  10.663  0.00  0.00    +0.000 C 
ATOM     10  C   UNL     1      37.537   1.349  12.199  0.00  0.00    +0.000 C 
ATOM     11  N   UNL     1      37.807   2.795  12.719  0.00  0.00    +0.000 N 
ENDROOT
BRANCH  10  12
ATOM     12  C   UNL     1      38.849   0.653  12.718  0.00  0.00    +0.000 A 
ATOM     13  C   UNL     1      39.446   1.075  13.851  0.00  0.00    +0.000 A 
ATOM     14  C   UNL     1      40.594   0.483  14.324  0.00  0.00    +0.000 A 
ATOM     15  C   UNL     1      41.140  -0.561  13.620  0.00  0.00    +0.000 A 
ATOM     16  C   UNL     1      40.554  -1.019  12.455  0.00  0.00    +0.000 A 
ATOM     17  C   UNL     1      39.379  -0.376  12.018  0.00  0.00    +0.000 A 
ENDBRANCH  10  12
BRANCH  11  18
ATOM     18  C   UNL     1      36.739   3.432  13.456  0.00  0.00    +0.000 C 
BRANCH  18  19
ATOM     19  C   UNL     1      36.438   2.746  14.732  0.00  0.00    +0.000 A 
ATOM     20  C   UNL     1      35.518   1.721  14.716  0.00  0.00    +0.000 A 
ATOM     21  C   UNL     1      35.180   1.035  15.852  0.00  0.00    +0.000 A 
ATOM     22  C   UNL     1      35.764   1.363  17.044  0.00  0.00    +0.000 A 
ATOM     23  C   UNL     1      36.683   2.378  17.090  0.00  0.00    +0.000 A 
ATOM     24  C   UNL     1      37.026   3.072  15.948  0.00  0.00    +0.000 A 
BRANCH  22  25
ATOM     25  O   UNL     1      35.420   0.667  18.195  0.00  0.00    +0.000 OA
BRANCH  25  26
ATOM     26  C   UNL     1      35.315  -0.735  18.171  0.00  0.00    +0.000 C 
BRANCH  26  27
ATOM     27  C   UNL     1      36.713  -1.354  18.279  0.00  0.00    +0.000 C 
BRANCH  27  28
ATOM     28  N   UNL     1      36.720  -2.604  17.592  0.00  0.00    +0.000 NA
ATOM     29  C   UNL     1      37.887  -3.377  17.877  0.00  0.00    +0.000 C 
ATOM     30  C   UNL     1      39.028  -2.962  16.940  0.00  0.00    +0.000 C 
ATOM     31  C   UNL     1      38.663  -1.658  16.258  0.00  0.00    +0.000 C 
ATOM     32  C   UNL     1      37.427  -1.824  15.378  0.00  0.00    +0.000 C 
ATOM     33  C   UNL     1      36.372  -2.489  16.209  0.00  0.00    +0.000 C 
ENDBRANCH  27  28
ENDBRANCH  26  27
ENDBRANCH  25  26
ENDBRANCH  22  25
ENDBRANCH  18  19
ENDBRANCH  11  18
TORSDOF 7
ENDMDL
