MODEL 1
REMARK VINA RESULT:      -6.5      0.000      0.000
REMARK  Name = 
REMARK  3 active torsions:
REMARK  status: ('A' for Active; 'I' for Inactive)
REMARK    1  A    between atoms: O_2  and  C_3
REMARK    2  A    between atoms: C_3  and  C_5
REMARK    3  A    between atoms: C_16  and  C_17
REMARK                            x       y       z     vdW  Elec       q    Type
REMARK                         _______ _______ _______ _____ _____    ______ ____
ROOT
ATOM      1  C   UNL     1      28.111  23.891  22.834  0.00  0.00    +0.000 C 
ATOM      2  C   UNL     1      29.329  23.925  22.559  0.00  0.00    +0.000 C 
ATOM      3  N   UNL     1      29.699  24.341  21.212  0.00  0.00    +0.000 NA
ATOM      4  O   UNL     1      30.283  23.587  23.471  0.00  0.00    +0.000 OA
ATOM      5  C   UNL     1      29.908  23.199  24.726  0.00  0.00    +0.000 C 
ATOM      6  C   UNL     1      28.704  23.141  25.075  0.00  0.00    +0.000 C 
ATOM      7  C   UNL     1      28.301  22.727  26.413  0.00  0.00    +0.000 C 
ATOM      8  O   UNL     1      27.108  22.521  26.701  0.00  0.00    +0.000 OA
ATOM      9  C   UNL     1      29.315  22.541  27.466  0.00  0.00    +0.000 C 
ATOM     10  C   UNL     1      30.495  21.862  26.767  0.00  0.00    +0.000 C 
ATOM     11  C   UNL     1      30.968  22.823  25.742  0.00  0.00    +0.000 C 
ATOM     12  C   UNL     1      27.444  23.482  24.198  0.00  0.00    +0.000 C 
ENDROOT
BRANCH  12  13
ATOM     13  C   UNL     1      27.130  24.896  24.767  0.00  0.00    +0.000 A 
ATOM     14  C   UNL     1      25.799  25.181  24.869  0.00  0.00    +0.000 A 
ATOM     15  C   UNL     1      25.503  26.396  25.358  0.00  0.00    +0.000 A 
ATOM     16  C   UNL     1      26.507  27.219  25.702  0.00  0.00    +0.000 A 
ATOM     17  S   UNL     1      27.882  26.239  25.319  0.00  0.00    +0.000 S 
ENDBRANCH  12  13
BRANCH   1  18
ATOM     18  C   UNL     1      27.115  24.269  21.800  0.00  0.00    +0.000 C 
ATOM     19  O   UNL     1      26.192  23.501  21.509  0.00  0.00    +0.000 OA
BRANCH  18  21
ATOM     20  C   UNL     1      27.168  26.728  21.777  0.00  0.00    +0.000 C 
ATOM     21  O   UNL     1      27.172  25.484  21.123  0.00  0.00    +0.000 OA
ENDBRANCH  18  21
ENDBRANCH   1  18
TORSDOF 3
ENDMDL
MODEL 2
REMARK VINA RESULT:      -6.3      2.200      5.387
REMARK  Name = 
REMARK  3 active torsions:
REMARK  status: ('A' for Active; 'I' for Inactive)
REMARK    1  A    between atoms: O_2  and  C_3
REMARK    2  A    between atoms: C_3  and  C_5
REMARK    3  A    between atoms: C_16  and  C_17
REMARK                            x       y       z     vdW  Elec       q    Type
REMARK                         _______ _______ _______ _____ _____    ______ ____
ROOT
ATOM      1  C   UNL     1      27.099  24.734  24.232  0.00  0.00    +0.000 C 
ATOM      2  C   UNL     1      26.608  25.866  24.419  0.00  0.00    +0.000 C 
ATOM      3  N   UNL     1      25.698  26.023  25.547  0.00  0.00    +0.000 NA
ATOM      4  O   UNL     1      26.901  26.921  23.608  0.00  0.00    +0.000 OA
ATOM      5  C   UNL     1      27.756  26.746  22.556  0.00  0.00    +0.000 C 
ATOM      6  C   UNL     1      28.288  25.638  22.307  0.00  0.00    +0.000 C 
ATOM      7  C   UNL     1      29.201  25.447  21.186  0.00  0.00    +0.000 C 
ATOM      8  O   UNL     1      29.598  24.316  20.853  0.00  0.00    +0.000 OA
ATOM      9  C   UNL     1      29.677  26.610  20.416  0.00  0.00    +0.000 C 
ATOM     10  C   UNL     1      28.456  27.521  20.275  0.00  0.00    +0.000 C 
ATOM     11  C   UNL     1      28.084  27.919  21.653  0.00  0.00    +0.000 C 
ATOM     12  C   UNL     1      28.099  24.294  23.101  0.00  0.00    +0.000 C 
ENDROOT
BRANCH  12  13
ATOM     13  C   UNL     1      29.427  24.302  23.911  0.00  0.00    +0.000 A 
ATOM     14  C   UNL     1      30.066  23.097  23.960  0.00  0.00    +0.000 A 
ATOM     15  C   UNL     1      31.216  23.080  24.654  0.00  0.00    +0.000 A 
ATOM     16  C   UNL     1      31.642  24.215  25.232  0.00  0.00    +0.000 A 
ATOM     17  S   UNL     1      30.382  25.310  24.774  0.00  0.00    +0.000 S 
ENDBRANCH  12  13
BRANCH   1  18
ATOM     18  C   UNL     1      26.743  23.620  25.147  0.00  0.00    +0.000 C 
ATOM     19  O   UNL     1      25.906  22.777  24.812  0.00  0.00    +0.000 OA
BRANCH  18  21
ATOM     20  C   UNL     1      27.998  22.310  26.810  0.00  0.00    +0.000 C 
ATOM     21  O   UNL     1      27.326  23.476  26.403  0.00  0.00    +0.000 OA
ENDBRANCH  18  21
ENDBRANCH   1  18
TORSDOF 3
ENDMDL
MODEL 3
REMARK VINA RESULT:      -6.3      3.681      6.858
REMARK  Name = 
REMARK  3 active torsions:
REMARK  status: ('A' for Active; 'I' for Inactive)
REMARK    1  A    between atoms: O_2  and  C_3
REMARK    2  A    between atoms: C_3  and  C_5
REMARK    3  A    between atoms: C_16  and  C_17
REMARK                            x       y       z     vdW  Elec       q    Type
REMARK                         _______ _______ _______ _____ _____    ______ ____
ROOT
ATOM      1  C   UNL     1      26.213  23.468  29.375  0.00  0.00    +0.000 C 
ATOM      2  C   UNL     1      25.798  24.542  29.857  0.00  0.00    +0.000 C 
ATOM      3  N   UNL     1      25.823  24.679  31.308  0.00  0.00    +0.000 NA
ATOM      4  O   UNL     1      25.335  25.553  29.070  0.00  0.00    +0.000 OA
ATOM      5  C   UNL     1      25.321  25.398  27.712  0.00  0.00    +0.000 C 
ATOM      6  C   UNL     1      25.723  24.348  27.156  0.00  0.00    +0.000 C 
ATOM      7  C   UNL     1      25.710  24.179  25.709  0.00  0.00    +0.000 C 
ATOM      8  O   UNL     1      25.960  23.082  25.178  0.00  0.00    +0.000 OA
ATOM      9  C   UNL     1      25.394  25.323  24.835  0.00  0.00    +0.000 C 
ATOM     10  C   UNL     1      24.253  26.060  25.540  0.00  0.00    +0.000 C 
ATOM     11  C   UNL     1      24.807  26.522  26.834  0.00  0.00    +0.000 C 
ATOM     12  C   UNL     1      26.295  23.062  27.858  0.00  0.00    +0.000 C 
ENDROOT
BRANCH  12  13
ATOM     13  C   UNL     1      27.812  23.304  27.606  0.00  0.00    +0.000 A 
ATOM     14  C   UNL     1      28.496  22.203  27.179  0.00  0.00    +0.000 A 
ATOM     15  C   UNL     1      29.808  22.388  26.955  0.00  0.00    +0.000 A 
ATOM     16  C   UNL     1      30.336  23.606  27.161  0.00  0.00    +0.000 A 
ATOM     17  S   UNL     1      28.939  24.487  27.679  0.00  0.00    +0.000 S 
ENDBRANCH  12  13
BRANCH   1  18
ATOM     18  C   UNL     1      26.706  22.399  30.281  0.00  0.00    +0.000 C 
ATOM     19  O   UNL     1      25.909  21.669  30.879  0.00  0.00    +0.000 OA
BRANCH  18  21
ATOM     20  C   UNL     1      28.899  23.095  31.152  0.00  0.00    +0.000 C 
ATOM     21  O   UNL     1      28.062  22.175  30.496  0.00  0.00    +0.000 OA
ENDBRANCH  18  21
ENDBRANCH   1  18
TORSDOF 3
ENDMDL
MODEL 4
REMARK VINA RESULT:      -6.2     20.404     22.846
REMARK  Name = 
REMARK  3 active torsions:
REMARK  status: ('A' for Active; 'I' for Inactive)
REMARK    1  A    between atoms: O_2  and  C_3
REMARK    2  A    between atoms: C_3  and  C_5
REMARK    3  A    between atoms: C_16  and  C_17
REMARK                            x       y       z     vdW  Elec       q    Type
REMARK                         _______ _______ _______ _____ _____    ______ ____
ROOT
ATOM      1  C   UNL     1      17.936   9.112  39.065  0.00  0.00    +0.000 C 
ATOM      2  C   UNL     1      16.979   9.656  39.657  0.00  0.00    +0.000 C 
ATOM      3  N   UNL     1      16.789   9.327  41.064  0.00  0.00    +0.000 NA
ATOM      4  O   UNL     1      16.139  10.521  39.023  0.00  0.00    +0.000 OA
ATOM      5  C   UNL     1      16.339  10.810  37.702  0.00  0.00    +0.000 C 
ATOM      6  C   UNL     1      17.279  10.303  37.044  0.00  0.00    +0.000 C 
ATOM      7  C   UNL     1      17.496  10.609  35.635  0.00  0.00    +0.000 C 
ATOM      8  O   UNL     1      18.329   9.986  34.953  0.00  0.00    +0.000 OA
ATOM      9  C   UNL     1      16.720  11.680  34.985  0.00  0.00    +0.000 C 
ATOM     10  C   UNL     1      15.301  11.535  35.537  0.00  0.00    +0.000 C 
ATOM     11  C   UNL     1      15.406  11.773  36.996  0.00  0.00    +0.000 C 
ATOM     12  C   UNL     1      18.363   9.289  37.563  0.00  0.00    +0.000 C 
ENDROOT
BRANCH  12  13
ATOM     13  C   UNL     1      19.551  10.277  37.745  0.00  0.00    +0.000 A 
ATOM     14  C   UNL     1      20.739   9.831  37.244  0.00  0.00    +0.000 A 
ATOM     15  C   UNL     1      21.780  10.667  37.390  0.00  0.00    +0.000 A 
ATOM     16  C   UNL     1      21.583  11.848  38.000  0.00  0.00    +0.000 A 
ATOM     17  S   UNL     1      19.893  11.752  38.364  0.00  0.00    +0.000 S 
ENDBRANCH  12  13
BRANCH   1  18
ATOM     18  C   UNL     1      18.819   8.176  39.806  0.00  0.00    +0.000 C 
ATOM     19  O   UNL     1      19.724   8.608  40.527  0.00  0.00    +0.000 OA
BRANCH  18  21
ATOM     20  C   UNL     1      18.186   6.009  40.783  0.00  0.00    +0.000 C 
ATOM     21  O   UNL     1      18.673   6.795  39.723  0.00  0.00    +0.000 OA
ENDBRANCH  18  21
ENDBRANCH   1  18
TORSDOF 3
ENDMDL
MODEL 5
REMARK VINA RESULT:      -6.1      2.363      3.911
REMARK  Name = 
REMARK  3 active torsions:
REMARK  status: ('A' for Active; 'I' for Inactive)
REMARK    1  A    between atoms: O_2  and  C_3
REMARK    2  A    between atoms: C_3  and  C_5
REMARK    3  A    between atoms: C_16  and  C_17
REMARK                            x       y       z     vdW  Elec       q    Type
REMARK                         _______ _______ _______ _____ _____    ______ ____
ROOT
ATOM      1  C   UNL     1      26.985  24.219  23.453  0.00  0.00    +0.000 C 
ATOM      2  C   UNL     1      26.010  23.485  23.720  0.00  0.00    +0.000 C 
ATOM      3  N   UNL     1      25.393  22.764  22.614  0.00  0.00    +0.000 NA
ATOM      4  O   UNL     1      25.532  23.357  24.989  0.00  0.00    +0.000 OA
ATOM      5  C   UNL     1      26.129  24.045  26.008  0.00  0.00    +0.000 C 
ATOM      6  C   UNL     1      27.112  24.800  25.816  0.00  0.00    +0.000 C 
ATOM      7  C   UNL     1      27.752  25.536  26.899  0.00  0.00    +0.000 C 
ATOM      8  O   UNL     1      28.621  26.399  26.679  0.00  0.00    +0.000 OA
ATOM      9  C   UNL     1      27.374  25.266  28.298  0.00  0.00    +0.000 C 
ATOM     10  C   UNL     1      25.855  25.088  28.273  0.00  0.00    +0.000 C 
ATOM     11  C   UNL     1      25.599  23.903  27.420  0.00  0.00    +0.000 C 
ATOM     12  C   UNL     1      27.828  25.098  24.447  0.00  0.00    +0.000 C 
ENDROOT
BRANCH  12  13
ATOM     13  C   UNL     1      29.071  24.179  24.619  0.00  0.00    +0.000 A 
ATOM     14  C   UNL     1      30.238  24.715  24.159  0.00  0.00    +0.000 A 
ATOM     15  C   UNL     1      31.326  23.939  24.296  0.00  0.00    +0.000 A 
ATOM     16  C   UNL     1      31.191  22.727  24.859  0.00  0.00    +0.000 A 
ATOM     17  S   UNL     1      29.492  22.706  25.192  0.00  0.00    +0.000 S 
ENDBRANCH  12  13
BRANCH   1  18
ATOM     18  C   UNL     1      27.464  24.322  22.051  0.00  0.00    +0.000 C 
ATOM     19  O   UNL     1      28.101  23.397  21.537  0.00  0.00    +0.000 OA
BRANCH  18  21
ATOM     20  C   UNL     1      28.131  26.509  21.145  0.00  0.00    +0.000 C 
ATOM     21  O   UNL     1      27.222  25.444  21.264  0.00  0.00    +0.000 OA
ENDBRANCH  18  21
ENDBRANCH   1  18
TORSDOF 3
ENDMDL
MODEL 6
REMARK VINA RESULT:      -5.7      3.349      5.929
REMARK  Name = 
REMARK  3 active torsions:
REMARK  status: ('A' for Active; 'I' for Inactive)
REMARK    1  A    between atoms: O_2  and  C_3
REMARK    2  A    between atoms: C_3  and  C_5
REMARK    3  A    between atoms: C_16  and  C_17
REMARK                            x       y       z     vdW  Elec       q    Type
REMARK                         _______ _______ _______ _____ _____    ______ ____
ROOT
ATOM      1  C   UNL     1      26.828  23.339  28.352  0.00  0.00    +0.000 C 
ATOM      2  C   UNL     1      26.262  24.049  27.495  0.00  0.00    +0.000 C 
ATOM      3  N   UNL     1      24.990  24.657  27.864  0.00  0.00    +0.000 NA
ATOM      4  O   UNL     1      26.801  24.254  26.260  0.00  0.00    +0.000 OA
ATOM      5  C   UNL     1      27.995  23.671  25.941  0.00  0.00    +0.000 C 
ATOM      6  C   UNL     1      28.621  22.946  26.750  0.00  0.00    +0.000 C 
ATOM      7  C   UNL     1      29.895  22.323  26.412  0.00  0.00    +0.000 C 
ATOM      8  O   UNL     1      30.428  21.483  27.159  0.00  0.00    +0.000 OA
ATOM      9  C   UNL     1      30.583  22.682  25.160  0.00  0.00    +0.000 C 
ATOM     10  C   UNL     1      29.473  22.795  24.113  0.00  0.00    +0.000 C 
ATOM     11  C   UNL     1      28.596  23.899  24.568  0.00  0.00    +0.000 C 
ATOM     12  C   UNL     1      28.195  22.574  28.218  0.00  0.00    +0.000 C 
ENDROOT
BRANCH  12  13
ATOM     13  C   UNL     1      29.120  23.556  28.994  0.00  0.00    +0.000 A 
ATOM     14  C   UNL     1      29.714  23.018  30.099  0.00  0.00    +0.000 A 
ATOM     15  C   UNL     1      30.517  23.847  30.785  0.00  0.00    +0.000 A 
ATOM     16  C   UNL     1      30.674  25.108  30.348  0.00  0.00    +0.000 A 
ATOM     17  S   UNL     1      29.661  25.098  28.945  0.00  0.00    +0.000 S 
ENDBRANCH  12  13
BRANCH   1  18
ATOM     18  C   UNL     1      26.195  23.149  29.682  0.00  0.00    +0.000 C 
ATOM     19  O   UNL     1      25.996  22.013  30.125  0.00  0.00    +0.000 OA
BRANCH  18  21
ATOM     20  C   UNL     1      26.674  24.884  31.359  0.00  0.00    +0.000 C 
ATOM     21  O   UNL     1      25.802  24.222  30.477  0.00  0.00    +0.000 OA
ENDBRANCH  18  21
ENDBRANCH   1  18
TORSDOF 3
ENDMDL
MODEL 7
REMARK VINA RESULT:      -5.5     33.092     34.626
REMARK  Name = 
REMARK  3 active torsions:
REMARK  status: ('A' for Active; 'I' for Inactive)
REMARK    1  A    between atoms: O_2  and  C_3
REMARK    2  A    between atoms: C_3  and  C_5
REMARK    3  A    between atoms: C_16  and  C_17
REMARK                            x       y       z     vdW  Elec       q    Type
REMARK                         _______ _______ _______ _____ _____    ______ ____
ROOT
ATOM      1  C   UNL     1      21.453  -9.330  26.262  0.00  0.00    +0.000 C 
ATOM      2  C   UNL     1      21.954  -8.402  25.593  0.00  0.00    +0.000 C 
ATOM      3  N   UNL     1      23.246  -8.650  24.967  0.00  0.00    +0.000 NA
ATOM      4  O   UNL     1      21.328  -7.200  25.448  0.00  0.00    +0.000 OA
ATOM      5  C   UNL     1      20.117  -6.994  26.047  0.00  0.00    +0.000 C 
ATOM      6  C   UNL     1      19.553  -7.879  26.733  0.00  0.00    +0.000 C 
ATOM      7  C   UNL     1      18.261  -7.663  27.373  0.00  0.00    +0.000 C 
ATOM      8  O   UNL     1      17.785  -8.485  28.177  0.00  0.00    +0.000 OA
ATOM      9  C   UNL     1      17.484  -6.447  27.075  0.00  0.00    +0.000 C 
ATOM     10  C   UNL     1      18.517  -5.320  27.012  0.00  0.00    +0.000 C 
ATOM     11  C   UNL     1      19.420  -5.657  25.886  0.00  0.00    +0.000 C 
ATOM     12  C   UNL     1      20.083  -9.329  27.033  0.00  0.00    +0.000 C 
ENDROOT
BRANCH  12  13
ATOM     13  C   UNL     1      19.211 -10.121  26.016  0.00  0.00    +0.000 A 
ATOM     14  C   UNL     1      18.675 -11.275  26.509  0.00  0.00    +0.000 A 
ATOM     15  C   UNL     1      17.918 -11.976  25.649  0.00  0.00    +0.000 A 
ATOM     16  C   UNL     1      17.748 -11.504  24.403  0.00  0.00    +0.000 A 
ATOM     17  S   UNL     1      18.681 -10.048  24.471  0.00  0.00    +0.000 S 
ENDBRANCH  12  13
BRANCH   1  18
ATOM     18  C   UNL     1      22.179 -10.619  26.386  0.00  0.00    +0.000 C 
ATOM     19  O   UNL     1      22.851 -10.865  27.394  0.00  0.00    +0.000 OA
BRANCH  18  21
ATOM     20  C   UNL     1      23.206 -12.472  25.135  0.00  0.00    +0.000 C 
ATOM     21  O   UNL     1      22.139 -11.593  25.392  0.00  0.00    +0.000 OA
ENDBRANCH  18  21
ENDBRANCH   1  18
TORSDOF 3
ENDMDL
MODEL 8
REMARK VINA RESULT:      -5.4     15.566     17.345
REMARK  Name = 
REMARK  3 active torsions:
REMARK  status: ('A' for Active; 'I' for Inactive)
REMARK    1  A    between atoms: O_2  and  C_3
REMARK    2  A    between atoms: C_3  and  C_5
REMARK    3  A    between atoms: C_16  and  C_17
REMARK                            x       y       z     vdW  Elec       q    Type
REMARK                         _______ _______ _______ _____ _____    ______ ____
ROOT
ATOM      1  C   UNL     1      10.623  21.973  21.145  0.00  0.00    +0.000 C 
ATOM      2  C   UNL     1      11.265  21.108  20.513  0.00  0.00    +0.000 C 
ATOM      3  N   UNL     1      10.510  20.004  19.934  0.00  0.00    +0.000 NA
ATOM      4  O   UNL     1      12.617  21.181  20.365  0.00  0.00    +0.000 OA
ATOM      5  C   UNL     1      13.301  22.226  20.918  0.00  0.00    +0.000 C 
ATOM      6  C   UNL     1      12.724  23.132  21.566  0.00  0.00    +0.000 C 
ATOM      7  C   UNL     1      13.450  24.249  22.158  0.00  0.00    +0.000 C 
ATOM      8  O   UNL     1      12.895  25.054  22.928  0.00  0.00    +0.000 OA
ATOM      9  C   UNL     1      14.878  24.447  21.851  0.00  0.00    +0.000 C 
ATOM     10  C   UNL     1      15.484  23.042  21.849  0.00  0.00    +0.000 C 
ATOM     11  C   UNL     1      14.806  22.309  20.754  0.00  0.00    +0.000 C 
ATOM     12  C   UNL     1      11.184  23.255  21.861  0.00  0.00    +0.000 C 
ENDROOT
BRANCH  12  13
ATOM     13  C   UNL     1      10.819  24.329  20.797  0.00  0.00    +0.000 A 
ATOM     14  C   UNL     1      10.024  25.337  21.261  0.00  0.00    +0.000 A 
ATOM     15  C   UNL     1       9.695  26.277  20.360  0.00  0.00    +0.000 A 
ATOM     16  C   UNL     1      10.158  26.161  19.104  0.00  0.00    +0.000 A 
ATOM     17  S   UNL     1      11.069  24.694  19.223  0.00  0.00    +0.000 S 
ENDBRANCH  12  13
BRANCH   1  18
ATOM     18  C   UNL     1       9.150  21.843  21.275  0.00  0.00    +0.000 C 
ATOM     19  O   UNL     1       8.651  21.377  22.304  0.00  0.00    +0.000 OA
BRANCH  18  21
ATOM     20  C   UNL     1       7.189  23.096  20.476  0.00  0.00    +0.000 C 
ATOM     21  O   UNL     1       8.277  22.232  20.263  0.00  0.00    +0.000 OA
ENDBRANCH  18  21
ENDBRANCH   1  18
TORSDOF 3
ENDMDL
MODEL 9
REMARK VINA RESULT:      -5.4      2.591      4.892
REMARK  Name = 
REMARK  3 active torsions:
REMARK  status: ('A' for Active; 'I' for Inactive)
REMARK    1  A    between atoms: O_2  and  C_3
REMARK    2  A    between atoms: C_3  and  C_5
REMARK    3  A    between atoms: C_16  and  C_17
REMARK                            x       y       z     vdW  Elec       q    Type
REMARK                         _______ _______ _______ _____ _____    ______ ____
ROOT
ATOM      1  C   UNL     1      26.101  26.374  24.632  0.00  0.00    +0.000 C 
ATOM      2  C   UNL     1      26.621  27.503  24.505  0.00  0.00    +0.000 C 
ATOM      3  N   UNL     1      26.091  28.580  25.332  0.00  0.00    +0.000 NA
ATOM      4  O   UNL     1      27.641  27.731  23.632  0.00  0.00    +0.000 OA
ATOM      5  C   UNL     1      28.118  26.703  22.868  0.00  0.00    +0.000 C 
ATOM      6  C   UNL     1      27.646  25.543  22.941  0.00  0.00    +0.000 C 
ATOM      7  C   UNL     1      28.152  24.444  22.128  0.00  0.00    +0.000 C 
ATOM      8  O   UNL     1      27.578  23.341  22.092  0.00  0.00    +0.000 OA
ATOM      9  C   UNL     1      29.372  24.624  21.322  0.00  0.00    +0.000 C 
ATOM     10  C   UNL     1      29.260  26.033  20.737  0.00  0.00    +0.000 C 
ATOM     11  C   UNL     1      29.254  26.956  21.897  0.00  0.00    +0.000 C 
ATOM     12  C   UNL     1      26.477  25.051  23.871  0.00  0.00    +0.000 C 
ENDROOT
BRANCH  12  13
ATOM     13  C   UNL     1      27.323  24.349  24.972  0.00  0.00    +0.000 A 
ATOM     14  C   UNL     1      26.896  23.095  25.299  0.00  0.00    +0.000 A 
ATOM     15  C   UNL     1      27.611  22.469  26.248  0.00  0.00    +0.000 A 
ATOM     16  C   UNL     1      28.664  23.103  26.791  0.00  0.00    +0.000 A 
ATOM     17  S   UNL     1      28.622  24.605  25.931  0.00  0.00    +0.000 S 
ENDBRANCH  12  13
BRANCH   1  18
ATOM     18  C   UNL     1      24.990  26.183  25.599  0.00  0.00    +0.000 C 
ATOM     19  O   UNL     1      23.829  26.048  25.200  0.00  0.00    +0.000 OA
BRANCH  18  21
ATOM     20  C   UNL     1      24.970  25.004  27.758  0.00  0.00    +0.000 C 
ATOM     21  O   UNL     1      25.202  26.148  26.974  0.00  0.00    +0.000 OA
ENDBRANCH  18  21
ENDBRANCH   1  18
TORSDOF 3
ENDMDL
MODEL 10
REMARK VINA RESULT:      -5.4     32.531     33.981
REMARK  Name = 
REMARK  3 active torsions:
REMARK  status: ('A' for Active; 'I' for Inactive)
REMARK    1  A    between atoms: O_2  and  C_3
REMARK    2  A    between atoms: C_3  and  C_5
REMARK    3  A    between atoms: C_16  and  C_17
REMARK                            x       y       z     vdW  Elec       q    Type
REMARK                         _______ _______ _______ _____ _____    ______ ____
ROOT
ATOM      1  C   UNL     1      18.499  -7.429  25.935  0.00  0.00    +0.000 C 
ATOM      2  C   UNL     1      19.053  -6.331  26.150  0.00  0.00    +0.000 C 
ATOM      3  N   UNL     1      18.263  -5.302  26.813  0.00  0.00    +0.000 NA
ATOM      4  O   UNL     1      20.343  -6.091  25.783  0.00  0.00    +0.000 OA
ATOM      5  C   UNL     1      21.062  -7.074  25.162  0.00  0.00    +0.000 C 
ATOM      6  C   UNL     1      20.573  -8.201  24.913  0.00  0.00    +0.000 C 
ATOM      7  C   UNL     1      21.336  -9.252  24.251  0.00  0.00    +0.000 C 
ATOM      8  O   UNL     1      20.798 -10.307  23.868  0.00  0.00    +0.000 OA
ATOM      9  C   UNL     1      22.781  -9.080  24.019  0.00  0.00    +0.000 C 
ATOM     10  C   UNL     1      22.945  -7.619  23.597  0.00  0.00    +0.000 C 
ATOM     11  C   UNL     1      22.497  -6.808  24.754  0.00  0.00    +0.000 C 
ATOM     12  C   UNL     1      19.118  -8.699  25.243  0.00  0.00    +0.000 C 
ENDROOT
BRANCH  12  13
ATOM     13  C   UNL     1      19.434  -9.554  26.505  0.00  0.00    +0.000 A 
ATOM     14  C   UNL     1      18.830 -10.777  26.525  0.00  0.00    +0.000 A 
ATOM     15  C   UNL     1      19.088 -11.533  27.605  0.00  0.00    +0.000 A 
ATOM     16  C   UNL     1      19.900 -11.045  28.558  0.00  0.00    +0.000 A 
ATOM     17  S   UNL     1      20.290  -9.494  27.897  0.00  0.00    +0.000 S 
ENDBRANCH  12  13
BRANCH   1  18
ATOM     18  C   UNL     1      17.090  -7.635  26.355  0.00  0.00    +0.000 C 
ATOM     19  O   UNL     1      16.824  -7.949  27.520  0.00  0.00    +0.000 OA
BRANCH  18  21
ATOM     20  C   UNL     1      15.340  -8.577  24.905  0.00  0.00    +0.000 C 
ATOM     21  O   UNL     1      16.023  -7.488  25.474  0.00  0.00    +0.000 OA
ENDBRANCH  18  21
ENDBRANCH   1  18
TORSDOF 3
ENDMDL
