MODEL 1
REMARK VINA RESULT:      -7.9      0.000      0.000
REMARK  Name = 
REMARK  2 active torsions:
REMARK  status: ('A' for Active; 'I' for Inactive)
REMARK    1  A    between atoms: O_2  and  C_3
REMARK    2  A    between atoms: C_6  and  C_7
REMARK                            x       y       z     vdW  Elec       q    Type
REMARK                         _______ _______ _______ _____ _____    ______ ____
ROOT
ATOM      1  C   UNL     1      16.124  11.156  35.179  0.00  0.00    +0.000 A 
ATOM      2  C   UNL     1      15.105  11.981  35.661  0.00  0.00    +0.000 A 
ATOM      3  C   UNL     1      14.514  13.060  35.031  0.00  0.00    +0.000 A 
ATOM      4  O   UNL     1      14.025  14.099  35.795  0.00  0.00    +0.000 OA
ATOM      5  C   UNL     1      14.357  13.209  33.674  0.00  0.00    +0.000 A 
ATOM      6  C   UNL     1      13.595  14.194  33.061  0.00  0.00    +0.000 A 
ATOM      7  C   UNL     1      12.853  15.215  33.854  0.00  0.00    +0.000 C 
ATOM      8  O   UNL     1      13.653  14.063  31.777  0.00  0.00    +0.000 OA
ATOM      9  C   UNL     1      14.425  13.023  31.474  0.00  0.00    +0.000 A 
ATOM     10  C   UNL     1      14.760  12.520  30.123  0.00  0.00    +0.000 C 
ATOM     11  C   UNL     1      14.885  12.463  32.639  0.00  0.00    +0.000 A 
ATOM     12  C   UNL     1      15.722  11.355  32.751  0.00  0.00    +0.000 A 
ATOM     13  O   UNL     1      15.860  10.686  31.675  0.00  0.00    +0.000 OA
ATOM     14  C   UNL     1      16.409  10.900  33.858  0.00  0.00    +0.000 A 
ENDROOT
BRANCH   1  18
ATOM     15  C   UNL     1      18.516   9.297  38.232  0.00  0.00    +0.000 A 
ATOM     16  C   UNL     1      17.346   9.968  38.526  0.00  0.00    +0.000 A 
ATOM     17  C   UNL     1      16.586  10.561  37.540  0.00  0.00    +0.000 A 
ATOM     18  C   UNL     1      16.941  10.522  36.207  0.00  0.00    +0.000 A 
ATOM     19  C   UNL     1      18.118   9.846  35.917  0.00  0.00    +0.000 A 
ATOM     20  C   UNL     1      18.877   9.254  36.903  0.00  0.00    +0.000 A 
BRANCH  15  22
ATOM     21  C   UNL     1      18.815   7.512  39.846  0.00  0.00    +0.000 C 
ATOM     22  O   UNL     1      19.292   8.694  39.226  0.00  0.00    +0.000 OA
ENDBRANCH  15  22
ENDBRANCH   1  18
TORSDOF 2
ENDMDL
MODEL 2
REMARK VINA RESULT:      -7.5      1.830      7.947
REMARK  Name = 
REMARK  2 active torsions:
REMARK  status: ('A' for Active; 'I' for Inactive)
REMARK    1  A    between atoms: O_2  and  C_3
REMARK    2  A    between atoms: C_6  and  C_7
REMARK                            x       y       z     vdW  Elec       q    Type
REMARK                         _______ _______ _______ _____ _____    ______ ____
ROOT
ATOM      1  C   UNL     1      17.580  10.265  36.401  0.00  0.00    +0.000 A 
ATOM      2  C   UNL     1      18.867   9.768  36.184  0.00  0.00    +0.000 A 
ATOM      3  C   UNL     1      19.930   9.743  37.067  0.00  0.00    +0.000 A 
ATOM      4  O   UNL     1      21.216   9.820  36.573  0.00  0.00    +0.000 OA
ATOM      5  C   UNL     1      19.835   9.646  38.434  0.00  0.00    +0.000 A 
ATOM      6  C   UNL     1      20.901   9.427  39.296  0.00  0.00    +0.000 A 
ATOM      7  C   UNL     1      22.296   9.272  38.791  0.00  0.00    +0.000 C 
ATOM      8  O   UNL     1      20.482   9.387  40.517  0.00  0.00    +0.000 OA
ATOM      9  C   UNL     1      19.164   9.569  40.537  0.00  0.00    +0.000 A 
ATOM     10  C   UNL     1      18.283   9.597  41.725  0.00  0.00    +0.000 C 
ATOM     11  C   UNL     1      18.724   9.736  39.249  0.00  0.00    +0.000 A 
ATOM     12  C   UNL     1      17.409   9.952  38.845  0.00  0.00    +0.000 A 
ATOM     13  O   UNL     1      16.536   9.733  39.748  0.00  0.00    +0.000 OA
ATOM     14  C   UNL     1      16.940  10.366  37.615  0.00  0.00    +0.000 A 
ENDROOT
BRANCH   1  18
ATOM     15  C   UNL     1      15.492  11.587  32.881  0.00  0.00    +0.000 A 
ATOM     16  C   UNL     1      15.141  12.016  34.146  0.00  0.00    +0.000 A 
ATOM     17  C   UNL     1      15.817  11.586  35.268  0.00  0.00    +0.000 A 
ATOM     18  C   UNL     1      16.879  10.708  35.202  0.00  0.00    +0.000 A 
ATOM     19  C   UNL     1      17.228  10.280  33.928  0.00  0.00    +0.000 A 
ATOM     20  C   UNL     1      16.552  10.710  32.808  0.00  0.00    +0.000 A 
BRANCH  15  22
ATOM     21  C   UNL     1      14.088  13.235  31.791  0.00  0.00    +0.000 C 
ATOM     22  O   UNL     1      14.812  12.018  31.739  0.00  0.00    +0.000 OA
ENDBRANCH  15  22
ENDBRANCH   1  18
TORSDOF 2
ENDMDL
MODEL 3
REMARK VINA RESULT:      -7.5      1.805      7.389
REMARK  Name = 
REMARK  2 active torsions:
REMARK  status: ('A' for Active; 'I' for Inactive)
REMARK    1  A    between atoms: O_2  and  C_3
REMARK    2  A    between atoms: C_6  and  C_7
REMARK                            x       y       z     vdW  Elec       q    Type
REMARK                         _______ _______ _______ _____ _____    ______ ____
ROOT
ATOM      1  C   UNL     1      16.949  10.701  36.185  0.00  0.00    +0.000 A 
ATOM      2  C   UNL     1      16.094  11.036  37.238  0.00  0.00    +0.000 A 
ATOM      3  C   UNL     1      16.027  10.465  38.495  0.00  0.00    +0.000 A 
ATOM      4  O   UNL     1      14.817  10.442  39.158  0.00  0.00    +0.000 OA
ATOM      5  C   UNL     1      17.077   9.899  39.176  0.00  0.00    +0.000 A 
ATOM      6  C   UNL     1      17.047   9.506  40.507  0.00  0.00    +0.000 A 
ATOM      7  C   UNL     1      15.824   9.669  41.343  0.00  0.00    +0.000 C 
ATOM      8  O   UNL     1      18.191   9.011  40.847  0.00  0.00    +0.000 OA
ATOM      9  C   UNL     1      19.016   9.047  39.804  0.00  0.00    +0.000 A 
ATOM     10  C   UNL     1      20.419   8.581  39.756  0.00  0.00    +0.000 C 
ATOM     11  C   UNL     1      18.351   9.597  38.737  0.00  0.00    +0.000 A 
ATOM     12  C   UNL     1      18.866   9.810  37.461  0.00  0.00    +0.000 A 
ATOM     13  O   UNL     1      20.133   9.693  37.377  0.00  0.00    +0.000 OA
ATOM     14  C   UNL     1      18.192  10.123  36.299  0.00  0.00    +0.000 A 
ENDROOT
BRANCH   1  18
ATOM     15  C   UNL     1      15.469  11.595  32.247  0.00  0.00    +0.000 A 
ATOM     16  C   UNL     1      16.502  10.702  32.457  0.00  0.00    +0.000 A 
ATOM     17  C   UNL     1      16.968  10.422  33.724  0.00  0.00    +0.000 A 
ATOM     18  C   UNL     1      16.440  11.010  34.855  0.00  0.00    +0.000 A 
ATOM     19  C   UNL     1      15.402  11.906  34.639  0.00  0.00    +0.000 A 
ATOM     20  C   UNL     1      14.936  12.185  33.372  0.00  0.00    +0.000 A 
BRANCH  15  22
ATOM     21  C   UNL     1      14.316  13.111  30.747  0.00  0.00    +0.000 C 
ATOM     22  O   UNL     1      14.991  11.884  30.967  0.00  0.00    +0.000 OA
ENDBRANCH  15  22
ENDBRANCH   1  18
TORSDOF 2
ENDMDL
MODEL 4
REMARK VINA RESULT:      -7.0      1.593      2.301
REMARK  Name = 
REMARK  2 active torsions:
REMARK  status: ('A' for Active; 'I' for Inactive)
REMARK    1  A    between atoms: O_2  and  C_3
REMARK    2  A    between atoms: C_6  and  C_7
REMARK                            x       y       z     vdW  Elec       q    Type
REMARK                         _______ _______ _______ _____ _____    ______ ____
ROOT
ATOM      1  C   UNL     1      17.629  10.298  36.469  0.00  0.00    +0.000 A 
ATOM      2  C   UNL     1      16.440  10.841  36.963  0.00  0.00    +0.000 A 
ATOM      3  C   UNL     1      15.615  11.772  36.362  0.00  0.00    +0.000 A 
ATOM      4  O   UNL     1      14.888  12.636  37.155  0.00  0.00    +0.000 OA
ATOM      5  C   UNL     1      15.439  11.933  35.009  0.00  0.00    +0.000 A 
ATOM      6  C   UNL     1      14.470  12.734  34.419  0.00  0.00    +0.000 A 
ATOM      7  C   UNL     1      13.501  13.519  35.236  0.00  0.00    +0.000 C 
ATOM      8  O   UNL     1      14.568  12.670  33.133  0.00  0.00    +0.000 OA
ATOM      9  C   UNL     1      15.566  11.855  32.805  0.00  0.00    +0.000 A 
ATOM     10  C   UNL     1      16.022  11.499  31.443  0.00  0.00    +0.000 C 
ATOM     11  C   UNL     1      16.137  11.374  33.957  0.00  0.00    +0.000 A 
ATOM     12  C   UNL     1      17.211  10.492  34.043  0.00  0.00    +0.000 A 
ATOM     13  O   UNL     1      17.511   9.917  32.946  0.00  0.00    +0.000 OA
ATOM     14  C   UNL     1      17.976  10.169  35.144  0.00  0.00    +0.000 A 
ENDROOT
BRANCH   1  18
ATOM     15  C   UNL     1      20.366   8.924  39.489  0.00  0.00    +0.000 A 
ATOM     16  C   UNL     1      19.000   8.756  39.606  0.00  0.00    +0.000 A 
ATOM     17  C   UNL     1      18.131   9.200  38.632  0.00  0.00    +0.000 A 
ATOM     18  C   UNL     1      18.565   9.835  37.486  0.00  0.00    +0.000 A 
ATOM     19  C   UNL     1      19.938  10.002  37.373  0.00  0.00    +0.000 A 
ATOM     20  C   UNL     1      20.805   9.557  38.347  0.00  0.00    +0.000 A 
BRANCH  15  22
ATOM     21  C   UNL     1      21.505   9.304  41.595  0.00  0.00    +0.000 C 
ATOM     22  O   UNL     1      21.253   8.477  40.472  0.00  0.00    +0.000 OA
ENDBRANCH  15  22
ENDBRANCH   1  18
TORSDOF 2
ENDMDL
MODEL 5
REMARK VINA RESULT:      -6.8     18.158     20.440
REMARK  Name = 
REMARK  2 active torsions:
REMARK  status: ('A' for Active; 'I' for Inactive)
REMARK    1  A    between atoms: O_2  and  C_3
REMARK    2  A    between atoms: C_6  and  C_7
REMARK                            x       y       z     vdW  Elec       q    Type
REMARK                         _______ _______ _______ _____ _____    ______ ____
ROOT
ATOM      1  C   UNL     1      27.126  24.510  25.543  0.00  0.00    +0.000 A 
ATOM      2  C   UNL     1      27.281  23.249  26.123  0.00  0.00    +0.000 A 
ATOM      3  C   UNL     1      27.259  22.921  27.466  0.00  0.00    +0.000 A 
ATOM      4  O   UNL     1      28.007  21.849  27.907  0.00  0.00    +0.000 OA
ATOM      5  C   UNL     1      26.545  23.576  28.440  0.00  0.00    +0.000 A 
ATOM      6  C   UNL     1      26.375  23.127  29.743  0.00  0.00    +0.000 A 
ATOM      7  C   UNL     1      26.976  21.848  30.214  0.00  0.00    +0.000 C 
ATOM      8  O   UNL     1      25.654  23.968  30.409  0.00  0.00    +0.000 OA
ATOM      9  C   UNL     1      25.316  24.983  29.618  0.00  0.00    +0.000 A 
ATOM     10  C   UNL     1      24.497  26.162  29.976  0.00  0.00    +0.000 C 
ATOM     11  C   UNL     1      25.858  24.771  28.376  0.00  0.00    +0.000 A 
ATOM     12  C   UNL     1      25.734  25.604  27.266  0.00  0.00    +0.000 A 
ATOM     13  O   UNL     1      24.841  26.506  27.380  0.00  0.00    +0.000 OA
ATOM     14  C   UNL     1      26.444  25.576  26.083  0.00  0.00    +0.000 A 
ENDROOT
BRANCH   1  18
ATOM     15  C   UNL     1      28.975  25.005  21.692  0.00  0.00    +0.000 A 
ATOM     16  C   UNL     1      27.773  25.607  22.011  0.00  0.00    +0.000 A 
ATOM     17  C   UNL     1      27.189  25.442  23.249  0.00  0.00    +0.000 A 
ATOM     18  C   UNL     1      27.761  24.673  24.241  0.00  0.00    +0.000 A 
ATOM     19  C   UNL     1      28.968  24.070  23.915  0.00  0.00    +0.000 A 
ATOM     20  C   UNL     1      29.551  24.236  22.678  0.00  0.00    +0.000 A 
BRANCH  15  22
ATOM     21  C   UNL     1      29.731  26.476  19.919  0.00  0.00    +0.000 C 
ATOM     22  O   UNL     1      29.573  25.168  20.440  0.00  0.00    +0.000 OA
ENDBRANCH  15  22
ENDBRANCH   1  18
TORSDOF 2
ENDMDL
MODEL 6
REMARK VINA RESULT:      -6.7     18.834     19.816
REMARK  Name = 
REMARK  2 active torsions:
REMARK  status: ('A' for Active; 'I' for Inactive)
REMARK    1  A    between atoms: O_2  and  C_3
REMARK    2  A    between atoms: C_6  and  C_7
REMARK                            x       y       z     vdW  Elec       q    Type
REMARK                         _______ _______ _______ _____ _____    ______ ____
ROOT
ATOM      1  C   UNL     1      29.742  22.760  26.529  0.00  0.00    +0.000 A 
ATOM      2  C   UNL     1      28.424  22.312  26.418  0.00  0.00    +0.000 A 
ATOM      3  C   UNL     1      27.433  22.783  25.578  0.00  0.00    +0.000 A 
ATOM      4  O   UNL     1      26.116  22.706  25.984  0.00  0.00    +0.000 OA
ATOM      5  C   UNL     1      27.630  23.340  24.338  0.00  0.00    +0.000 A 
ATOM      6  C   UNL     1      26.626  23.631  23.425  0.00  0.00    +0.000 A 
ATOM      7  C   UNL     1      25.192  23.354  23.723  0.00  0.00    +0.000 C 
ATOM      8  O   UNL     1      27.137  24.146  22.356  0.00  0.00    +0.000 OA
ATOM      9  C   UNL     1      28.458  24.223  22.491  0.00  0.00    +0.000 A 
ATOM     10  C   UNL     1      29.430  24.749  21.506  0.00  0.00    +0.000 C 
ATOM     11  C   UNL     1      28.803  23.727  23.722  0.00  0.00    +0.000 A 
ATOM     12  C   UNL     1      30.090  23.633  24.245  0.00  0.00    +0.000 A 
ATOM     13  O   UNL     1      31.021  23.808  23.393  0.00  0.00    +0.000 OA
ATOM     14  C   UNL     1      30.478  23.380  25.545  0.00  0.00    +0.000 A 
ENDROOT
BRANCH   1  18
ATOM     15  C   UNL     1      31.553  22.098  30.374  0.00  0.00    +0.000 A 
ATOM     16  C   UNL     1      30.309  22.683  30.241  0.00  0.00    +0.000 A 
ATOM     17  C   UNL     1      29.737  22.890  29.004  0.00  0.00    +0.000 A 
ATOM     18  C   UNL     1      30.364  22.531  27.828  0.00  0.00    +0.000 A 
ATOM     19  C   UNL     1      31.614  21.944  27.968  0.00  0.00    +0.000 A 
ATOM     20  C   UNL     1      32.184  21.737  29.204  0.00  0.00    +0.000 A 
BRANCH  15  22
ATOM     21  C   UNL     1      33.358  21.166  31.697  0.00  0.00    +0.000 C 
ATOM     22  O   UNL     1      32.139  21.885  31.624  0.00  0.00    +0.000 OA
ENDBRANCH  15  22
ENDBRANCH   1  18
TORSDOF 2
ENDMDL
MODEL 7
REMARK VINA RESULT:      -6.6      2.171      8.120
REMARK  Name = 
REMARK  2 active torsions:
REMARK  status: ('A' for Active; 'I' for Inactive)
REMARK    1  A    between atoms: O_2  and  C_3
REMARK    2  A    between atoms: C_6  and  C_7
REMARK                            x       y       z     vdW  Elec       q    Type
REMARK                         _______ _______ _______ _____ _____    ______ ____
ROOT
ATOM      1  C   UNL     1      17.458  10.035  37.955  0.00  0.00    +0.000 A 
ATOM      2  C   UNL     1      16.572  10.241  39.015  0.00  0.00    +0.000 A 
ATOM      3  C   UNL     1      16.533   9.587  40.232  0.00  0.00    +0.000 A 
ATOM      4  O   UNL     1      15.322   9.438  40.876  0.00  0.00    +0.000 OA
ATOM      5  C   UNL     1      17.614   9.051  40.889  0.00  0.00    +0.000 A 
ATOM      6  C   UNL     1      17.599   8.570  42.191  0.00  0.00    +0.000 A 
ATOM      7  C   UNL     1      16.360   8.596  43.020  0.00  0.00    +0.000 C 
ATOM      8  O   UNL     1      18.771   8.133  42.515  0.00  0.00    +0.000 OA
ATOM      9  C   UNL     1      19.600   8.293  41.487  0.00  0.00    +0.000 A 
ATOM     10  C   UNL     1      21.033   7.928  41.428  0.00  0.00    +0.000 C 
ATOM     11  C   UNL     1      18.909   8.865  40.449  0.00  0.00    +0.000 A 
ATOM     12  C   UNL     1      19.420   9.195  39.197  0.00  0.00    +0.000 A 
ATOM     13  O   UNL     1      20.693   9.170  39.122  0.00  0.00    +0.000 OA
ATOM     14  C   UNL     1      18.737   9.536  38.048  0.00  0.00    +0.000 A 
ENDROOT
BRANCH   1  18
ATOM     15  C   UNL     1      15.911  11.115  34.090  0.00  0.00    +0.000 A 
ATOM     16  C   UNL     1      15.455  11.704  35.253  0.00  0.00    +0.000 A 
ATOM     17  C   UNL     1      15.957  11.351  36.487  0.00  0.00    +0.000 A 
ATOM     18  C   UNL     1      16.940  10.394  36.640  0.00  0.00    +0.000 A 
ATOM     19  C   UNL     1      17.396   9.806  35.469  0.00  0.00    +0.000 A 
ATOM     20  C   UNL     1      16.892  10.160  34.236  0.00  0.00    +0.000 A 
BRANCH  15  22
ATOM     21  C   UNL     1      16.074  11.008  31.674  0.00  0.00    +0.000 C 
ATOM     22  O   UNL     1      15.406  11.468  32.836  0.00  0.00    +0.000 OA
ENDBRANCH  15  22
ENDBRANCH   1  18
TORSDOF 2
ENDMDL
MODEL 8
REMARK VINA RESULT:      -6.5     19.231     20.775
REMARK  Name = 
REMARK  2 active torsions:
REMARK  status: ('A' for Active; 'I' for Inactive)
REMARK    1  A    between atoms: O_2  and  C_3
REMARK    2  A    between atoms: C_6  and  C_7
REMARK                            x       y       z     vdW  Elec       q    Type
REMARK                         _______ _______ _______ _____ _____    ______ ____
ROOT
ATOM      1  C   UNL     1      34.434   5.071  35.794  0.00  0.00    +0.000 A 
ATOM      2  C   UNL     1      33.906   4.561  34.606  0.00  0.00    +0.000 A 
ATOM      3  C   UNL     1      33.870   3.245  34.185  0.00  0.00    +0.000 A 
ATOM      4  O   UNL     1      33.912   2.971  32.834  0.00  0.00    +0.000 OA
ATOM      5  C   UNL     1      33.796   2.144  35.003  0.00  0.00    +0.000 A 
ATOM      6  C   UNL     1      33.567   0.844  34.573  0.00  0.00    +0.000 A 
ATOM      7  C   UNL     1      33.374   0.519  33.131  0.00  0.00    +0.000 C 
ATOM      8  O   UNL     1      33.555   0.040  35.585  0.00  0.00    +0.000 OA
ATOM      9  C   UNL     1      33.767   0.732  36.701  0.00  0.00    +0.000 A 
ATOM     10  C   UNL     1      33.832   0.204  38.082  0.00  0.00    +0.000 C 
ATOM     11  C   UNL     1      33.923   2.055  36.375  0.00  0.00    +0.000 A 
ATOM     12  C   UNL     1      34.162   3.103  37.260  0.00  0.00    +0.000 A 
ATOM     13  O   UNL     1      33.977   2.810  38.487  0.00  0.00    +0.000 OA
ATOM     14  C   UNL     1      34.568   4.392  36.983  0.00  0.00    +0.000 A 
ENDROOT
BRANCH   1  18
ATOM     15  C   UNL     1      35.705   9.176  35.612  0.00  0.00    +0.000 A 
ATOM     16  C   UNL     1      34.533   8.799  36.236  0.00  0.00    +0.000 A 
ATOM     17  C   UNL     1      34.134   7.480  36.289  0.00  0.00    +0.000 A 
ATOM     18  C   UNL     1      34.874   6.459  35.728  0.00  0.00    +0.000 A 
ATOM     19  C   UNL     1      36.052   6.844  35.102  0.00  0.00    +0.000 A 
ATOM     20  C   UNL     1      36.449   8.162  35.050  0.00  0.00    +0.000 A 
BRANCH  15  22
ATOM     21  C   UNL     1      35.414  11.407  34.711  0.00  0.00    +0.000 C 
ATOM     22  O   UNL     1      36.116  10.510  35.554  0.00  0.00    +0.000 OA
ENDBRANCH  15  22
ENDBRANCH   1  18
TORSDOF 2
ENDMDL
MODEL 9
REMARK VINA RESULT:      -6.5      3.993      6.847
REMARK  Name = 
REMARK  2 active torsions:
REMARK  status: ('A' for Active; 'I' for Inactive)
REMARK    1  A    between atoms: O_2  and  C_3
REMARK    2  A    between atoms: C_6  and  C_7
REMARK                            x       y       z     vdW  Elec       q    Type
REMARK                         _______ _______ _______ _____ _____    ______ ____
ROOT
ATOM      1  C   UNL     1      20.041   9.749  38.007  0.00  0.00    +0.000 A 
ATOM      2  C   UNL     1      19.660   8.997  39.121  0.00  0.00    +0.000 A 
ATOM      3  C   UNL     1      18.555   9.176  39.931  0.00  0.00    +0.000 A 
ATOM      4  O   UNL     1      18.631   8.813  41.260  0.00  0.00    +0.000 OA
ATOM      5  C   UNL     1      17.347   9.697  39.536  0.00  0.00    +0.000 A 
ATOM      6  C   UNL     1      16.188   9.694  40.300  0.00  0.00    +0.000 A 
ATOM      7  C   UNL     1      16.154   9.103  41.668  0.00  0.00    +0.000 C 
ATOM      8  O   UNL     1      15.226  10.258  39.647  0.00  0.00    +0.000 OA
ATOM      9  C   UNL     1      15.673  10.651  38.457  0.00  0.00    +0.000 A 
ATOM     10  C   UNL     1      14.905  11.339  37.395  0.00  0.00    +0.000 C 
ATOM     11  C   UNL     1      16.999  10.317  38.353  0.00  0.00    +0.000 A 
ATOM     12  C   UNL     1      17.830  10.556  37.261  0.00  0.00    +0.000 A 
ATOM     13  O   UNL     1      17.218  10.901  36.197  0.00  0.00    +0.000 OA
ATOM     14  C   UNL     1      19.205  10.471  37.187  0.00  0.00    +0.000 A 
ENDROOT
BRANCH   1  18
ATOM     15  C   UNL     1      24.262   9.724  37.184  0.00  0.00    +0.000 A 
ATOM     16  C   UNL     1      23.761   9.486  38.448  0.00  0.00    +0.000 A 
ATOM     17  C   UNL     1      22.406   9.496  38.701  0.00  0.00    +0.000 A 
ATOM     18  C   UNL     1      21.470   9.742  37.718  0.00  0.00    +0.000 A 
ATOM     19  C   UNL     1      21.979   9.981  36.449  0.00  0.00    +0.000 A 
ATOM     20  C   UNL     1      23.333   9.970  36.197  0.00  0.00    +0.000 A 
BRANCH  15  22
ATOM     21  C   UNL     1      26.534  10.080  37.952  0.00  0.00    +0.000 C 
ATOM     22  O   UNL     1      25.634   9.716  36.919  0.00  0.00    +0.000 OA
ENDBRANCH  15  22
ENDBRANCH   1  18
TORSDOF 2
ENDMDL
MODEL 10
REMARK VINA RESULT:      -6.4      2.271      8.493
REMARK  Name = 
REMARK  2 active torsions:
REMARK  status: ('A' for Active; 'I' for Inactive)
REMARK    1  A    between atoms: O_2  and  C_3
REMARK    2  A    between atoms: C_6  and  C_7
REMARK                            x       y       z     vdW  Elec       q    Type
REMARK                         _______ _______ _______ _____ _____    ______ ____
ROOT
ATOM      1  C   UNL     1      17.646   9.846  38.076  0.00  0.00    +0.000 A 
ATOM      2  C   UNL     1      18.927   9.334  38.290  0.00  0.00    +0.000 A 
ATOM      3  C   UNL     1      19.665   9.347  39.459  0.00  0.00    +0.000 A 
ATOM      4  O   UNL     1      21.042   9.394  39.383  0.00  0.00    +0.000 OA
ATOM      5  C   UNL     1      19.151   9.319  40.732  0.00  0.00    +0.000 A 
ATOM      6  C   UNL     1      19.895   9.138  41.890  0.00  0.00    +0.000 A 
ATOM      7  C   UNL     1      21.373   8.953  41.849  0.00  0.00    +0.000 C 
ATOM      8  O   UNL     1      19.118   9.161  42.923  0.00  0.00    +0.000 OA
ATOM      9  C   UNL     1      17.862   9.350  42.526  0.00  0.00    +0.000 A 
ATOM     10  C   UNL     1      16.658   9.441  43.381  0.00  0.00    +0.000 C 
ATOM     11  C   UNL     1      17.844   9.454  41.158  0.00  0.00    +0.000 A 
ATOM     12  C   UNL     1      16.723   9.656  40.358  0.00  0.00    +0.000 A 
ATOM     13  O   UNL     1      15.610   9.486  40.956  0.00  0.00    +0.000 OA
ATOM     14  C   UNL     1      16.665  10.010  39.026  0.00  0.00    +0.000 A 
ENDROOT
BRANCH   1  18
ATOM     15  C   UNL     1      16.817  10.961  34.005  0.00  0.00    +0.000 A 
ATOM     16  C   UNL     1      17.569   9.847  34.321  0.00  0.00    +0.000 A 
ATOM     17  C   UNL     1      17.829   9.498  35.630  0.00  0.00    +0.000 A 
ATOM     18  C   UNL     1      17.359  10.232  36.699  0.00  0.00    +0.000 A 
ATOM     19  C   UNL     1      16.603  11.351  36.376  0.00  0.00    +0.000 A 
ATOM     20  C   UNL     1      16.344  11.698  35.069  0.00  0.00    +0.000 A 
BRANCH  15  22
ATOM     21  C   UNL     1      15.272  11.841  32.357  0.00  0.00    +0.000 C 
ATOM     22  O   UNL     1      16.549  11.321  32.682  0.00  0.00    +0.000 OA
ENDBRANCH  15  22
ENDBRANCH   1  18
TORSDOF 2
ENDMDL
