MODEL 1
REMARK VINA RESULT:      -6.0      0.000      0.000
REMARK  Name = 
REMARK  1 active torsions:
REMARK  status: ('A' for Active; 'I' for Inactive)
REMARK    1  A    between atoms: C_10  and  C_11
REMARK                            x       y       z     vdW  Elec       q    Type
REMARK                         _______ _______ _______ _____ _____    ______ ____
ROOT
ATOM      1  C   UNL     1      34.123   0.558  39.218  0.00  0.00    +0.000 C 
ATOM      2  C   UNL     1      33.876   0.712  37.737  0.00  0.00    +0.000 A 
ATOM      3  C   UNL     1      33.462  -0.424  37.018  0.00  0.00    +0.000 A 
ATOM      4  C   UNL     1      33.237  -0.289  35.681  0.00  0.00    +0.000 A 
ATOM      5  N   UNL     1      32.811  -1.424  34.939  0.00  0.00    +0.000 NA
ATOM      6  N   UNL     1      33.416   0.896  35.093  0.00  0.00    +0.000 N 
ATOM      7  N   UNL     1      33.294   1.295  33.843  0.00  0.00    +0.000 NA
ATOM      8  C   UNL     1      33.600   2.597  33.707  0.00  0.00    +0.000 A 
ATOM      9  C   UNL     1      33.557   3.340  32.418  0.00  0.00    +0.000 C 
ATOM     10  C   UNL     1      33.948   3.079  34.962  0.00  0.00    +0.000 A 
ATOM     11  C   UNL     1      33.819   1.988  35.798  0.00  0.00    +0.000 A 
ATOM     12  N   UNL     1      34.040   1.876  37.105  0.00  0.00    +0.000 NA
ENDROOT
BRANCH  10  13
ATOM     13  C   UNL     1      34.397   4.436  35.270  0.00  0.00    +0.000 A 
ATOM     14  C   UNL     1      35.747   4.645  35.441  0.00  0.00    +0.000 A 
ATOM     15  C   UNL     1      36.268   5.883  35.696  0.00  0.00    +0.000 A 
ATOM     16  C   UNL     1      35.400   6.984  35.786  0.00  0.00    +0.000 A 
ATOM     17 CL   UNL     1      36.002   8.582  36.103  0.00  0.00    +0.000 Cl
ATOM     18  C   UNL     1      34.074   6.774  35.617  0.00  0.00    +0.000 A 
ATOM     19  C   UNL     1      33.521   5.521  35.358  0.00  0.00    +0.000 A 
ENDBRANCH  10  13
TORSDOF 1
ENDMDL
MODEL 2
REMARK VINA RESULT:      -6.0     19.584     21.110
REMARK  Name = 
REMARK  1 active torsions:
REMARK  status: ('A' for Active; 'I' for Inactive)
REMARK    1  A    between atoms: C_10  and  C_11
REMARK                            x       y       z     vdW  Elec       q    Type
REMARK                         _______ _______ _______ _____ _____    ______ ____
ROOT
ATOM      1  C   UNL     1      23.314 -10.518  25.010  0.00  0.00    +0.000 C 
ATOM      2  C   UNL     1      22.524  -9.237  25.111  0.00  0.00    +0.000 A 
ATOM      3  C   UNL     1      23.031  -8.098  24.460  0.00  0.00    +0.000 A 
ATOM      4  C   UNL     1      22.320  -6.939  24.548  0.00  0.00    +0.000 A 
ATOM      5  N   UNL     1      22.813  -5.780  23.891  0.00  0.00    +0.000 NA
ATOM      6  N   UNL     1      21.180  -6.910  25.242  0.00  0.00    +0.000 N 
ATOM      7  N   UNL     1      20.322  -5.944  25.503  0.00  0.00    +0.000 NA
ATOM      8  C   UNL     1      19.308  -6.376  26.272  0.00  0.00    +0.000 A 
ATOM      9  C   UNL     1      18.180  -5.521  26.735  0.00  0.00    +0.000 C 
ATOM     10  C   UNL     1      19.523  -7.724  26.531  0.00  0.00    +0.000 A 
ATOM     11  C   UNL     1      20.699  -8.018  25.870  0.00  0.00    +0.000 A 
ATOM     12  N   UNL     1      21.378  -9.158  25.792  0.00  0.00    +0.000 NA
ENDROOT
BRANCH  10  13
ATOM     13  C   UNL     1      18.689  -8.584  27.369  0.00  0.00    +0.000 A 
ATOM     14  C   UNL     1      17.602  -9.194  26.785  0.00  0.00    +0.000 A 
ATOM     15  C   UNL     1      16.783 -10.044  27.476  0.00  0.00    +0.000 A 
ATOM     16  C   UNL     1      17.056 -10.307  28.828  0.00  0.00    +0.000 A 
ATOM     17 CL   UNL     1      16.055 -11.381  29.757  0.00  0.00    +0.000 Cl
ATOM     18  C   UNL     1      18.126  -9.705  29.398  0.00  0.00    +0.000 A 
ATOM     19  C   UNL     1      18.974  -8.835  28.714  0.00  0.00    +0.000 A 
ENDBRANCH  10  13
TORSDOF 1
ENDMDL
MODEL 3
REMARK VINA RESULT:      -5.9     22.659     24.712
REMARK  Name = 
REMARK  1 active torsions:
REMARK  status: ('A' for Active; 'I' for Inactive)
REMARK    1  A    between atoms: C_10  and  C_11
REMARK                            x       y       z     vdW  Elec       q    Type
REMARK                         _______ _______ _______ _____ _____    ______ ____
ROOT
ATOM      1  C   UNL     1      24.493  25.389  27.094  0.00  0.00    +0.000 C 
ATOM      2  C   UNL     1      25.758  24.568  27.060  0.00  0.00    +0.000 A 
ATOM      3  C   UNL     1      26.032  23.737  28.160  0.00  0.00    +0.000 A 
ATOM      4  C   UNL     1      27.174  22.992  28.133  0.00  0.00    +0.000 A 
ATOM      5  N   UNL     1      27.464  22.141  29.233  0.00  0.00    +0.000 NA
ATOM      6  N   UNL     1      27.994  23.072  27.083  0.00  0.00    +0.000 N 
ATOM      7  N   UNL     1      29.146  22.494  26.809  0.00  0.00    +0.000 NA
ATOM      8  C   UNL     1      29.631  22.894  25.621  0.00  0.00    +0.000 A 
ATOM      9  C   UNL     1      30.914  22.419  25.033  0.00  0.00    +0.000 C 
ATOM     10  C   UNL     1      28.726  23.801  25.082  0.00  0.00    +0.000 A 
ATOM     11  C   UNL     1      27.719  23.882  26.024  0.00  0.00    +0.000 A 
ATOM     12  N   UNL     1      26.608  24.613  26.032  0.00  0.00    +0.000 NA
ENDROOT
BRANCH  10  13
ATOM     13  C   UNL     1      28.877  24.522  23.820  0.00  0.00    +0.000 A 
ATOM     14  C   UNL     1      29.259  25.843  23.875  0.00  0.00    +0.000 A 
ATOM     15  C   UNL     1      29.461  26.593  22.749  0.00  0.00    +0.000 A 
ATOM     16  C   UNL     1      29.275  25.997  21.490  0.00  0.00    +0.000 A 
ATOM     17 CL   UNL     1      29.521  26.896  20.024  0.00  0.00    +0.000 Cl
ATOM     18  C   UNL     1      28.900  24.698  21.441  0.00  0.00    +0.000 A 
ATOM     19  C   UNL     1      28.687  23.916  22.575  0.00  0.00    +0.000 A 
ENDBRANCH  10  13
TORSDOF 1
ENDMDL
MODEL 4
REMARK VINA RESULT:      -5.8     23.674     26.161
REMARK  Name = 
REMARK  1 active torsions:
REMARK  status: ('A' for Active; 'I' for Inactive)
REMARK    1  A    between atoms: C_10  and  C_11
REMARK                            x       y       z     vdW  Elec       q    Type
REMARK                         _______ _______ _______ _____ _____    ______ ____
ROOT
ATOM      1  C   UNL     1      26.475  28.506  22.009  0.00  0.00    +0.000 C 
ATOM      2  C   UNL     1      27.395  27.314  22.102  0.00  0.00    +0.000 A 
ATOM      3  C   UNL     1      28.177  26.998  20.977  0.00  0.00    +0.000 A 
ATOM      4  C   UNL     1      29.010  25.922  21.056  0.00  0.00    +0.000 A 
ATOM      5  N   UNL     1      29.813  25.591  19.931  0.00  0.00    +0.000 NA
ATOM      6  N   UNL     1      29.062  25.203  22.180  0.00  0.00    +0.000 N 
ATOM      7  N   UNL     1      29.746  24.129  22.517  0.00  0.00    +0.000 NA
ATOM      8  C   UNL     1      29.460  23.733  23.770  0.00  0.00    +0.000 A 
ATOM      9  C   UNL     1      30.072  22.551  24.438  0.00  0.00    +0.000 C 
ATOM     10  C   UNL     1      28.519  24.616  24.285  0.00  0.00    +0.000 A 
ATOM     11  C   UNL     1      28.299  25.518  23.263  0.00  0.00    +0.000 A 
ATOM     12  N   UNL     1      27.483  26.566  23.204  0.00  0.00    +0.000 NA
ENDROOT
BRANCH  10  13
ATOM     13  C   UNL     1      27.892  24.534  25.602  0.00  0.00    +0.000 A 
ATOM     14  C   UNL     1      26.680  23.889  25.700  0.00  0.00    +0.000 A 
ATOM     15  C   UNL     1      26.031  23.730  26.893  0.00  0.00    +0.000 A 
ATOM     16  C   UNL     1      26.618  24.239  28.063  0.00  0.00    +0.000 A 
ATOM     17 CL   UNL     1      25.845  24.064  29.609  0.00  0.00    +0.000 Cl
ATOM     18  C   UNL     1      27.810  24.872  27.962  0.00  0.00    +0.000 A 
ATOM     19  C   UNL     1      28.488  25.047  26.757  0.00  0.00    +0.000 A 
ENDBRANCH  10  13
TORSDOF 1
ENDMDL
MODEL 5
REMARK VINA RESULT:      -5.7     20.643     22.545
REMARK  Name = 
REMARK  1 active torsions:
REMARK  status: ('A' for Active; 'I' for Inactive)
REMARK    1  A    between atoms: C_10  and  C_11
REMARK                            x       y       z     vdW  Elec       q    Type
REMARK                         _______ _______ _______ _____ _____    ______ ____
ROOT
ATOM      1  C   UNL     1      26.027  23.831  29.504  0.00  0.00    +0.000 C 
ATOM      2  C   UNL     1      26.767  23.628  28.205  0.00  0.00    +0.000 A 
ATOM      3  C   UNL     1      26.015  23.605  27.017  0.00  0.00    +0.000 A 
ATOM      4  C   UNL     1      26.679  23.423  25.841  0.00  0.00    +0.000 A 
ATOM      5  N   UNL     1      25.937  23.405  24.629  0.00  0.00    +0.000 NA
ATOM      6  N   UNL     1      28.006  23.269  25.843  0.00  0.00    +0.000 N 
ATOM      7  N   UNL     1      28.879  23.062  24.878  0.00  0.00    +0.000 NA
ATOM      8  C   UNL     1      30.129  22.948  25.358  0.00  0.00    +0.000 A 
ATOM      9  C   UNL     1      31.334  22.712  24.516  0.00  0.00    +0.000 C 
ATOM     10  C   UNL     1      30.064  23.092  26.738  0.00  0.00    +0.000 A 
ATOM     11  C   UNL     1      28.723  23.292  27.000  0.00  0.00    +0.000 A 
ATOM     12  N   UNL     1      28.092  23.471  28.156  0.00  0.00    +0.000 NA
ENDROOT
BRANCH  10  13
ATOM     13  C   UNL     1      31.187  22.991  27.669  0.00  0.00    +0.000 A 
ATOM     14  C   UNL     1      31.385  21.790  28.312  0.00  0.00    +0.000 A 
ATOM     15  C   UNL     1      32.427  21.586  29.173  0.00  0.00    +0.000 A 
ATOM     16  C   UNL     1      33.331  22.635  29.412  0.00  0.00    +0.000 A 
ATOM     17 CL   UNL     1      34.678  22.435  30.491  0.00  0.00    +0.000 Cl
ATOM     18  C   UNL     1      33.133  23.813  28.777  0.00  0.00    +0.000 A 
ATOM     19  C   UNL     1      32.077  24.044  27.897  0.00  0.00    +0.000 A 
ENDBRANCH  10  13
TORSDOF 1
ENDMDL
MODEL 6
REMARK VINA RESULT:      -5.7     16.169     17.189
REMARK  Name = 
REMARK  1 active torsions:
REMARK  status: ('A' for Active; 'I' for Inactive)
REMARK    1  A    between atoms: C_10  and  C_11
REMARK                            x       y       z     vdW  Elec       q    Type
REMARK                         _______ _______ _______ _____ _____    ______ ____
ROOT
ATOM      1  C   UNL     1      19.243   8.793  42.953  0.00  0.00    +0.000 C 
ATOM      2  C   UNL     1      18.477   9.201  41.719  0.00  0.00    +0.000 A 
ATOM      3  C   UNL     1      17.073   9.136  41.765  0.00  0.00    +0.000 A 
ATOM      4  C   UNL     1      16.377   9.505  40.653  0.00  0.00    +0.000 A 
ATOM      5  N   UNL     1      14.957   9.452  40.684  0.00  0.00    +0.000 NA
ATOM      6  N   UNL     1      17.032   9.908  39.563  0.00  0.00    +0.000 N 
ATOM      7  N   UNL     1      16.622  10.294  38.371  0.00  0.00    +0.000 NA
ATOM      8  C   UNL     1      17.656  10.597  37.566  0.00  0.00    +0.000 A 
ATOM      9  C   UNL     1      17.516  11.064  36.159  0.00  0.00    +0.000 C 
ATOM     10  C   UNL     1      18.824  10.393  38.289  0.00  0.00    +0.000 A 
ATOM     11  C   UNL     1      18.392   9.966  39.529  0.00  0.00    +0.000 A 
ATOM     12  N   UNL     1      19.087   9.613  40.606  0.00  0.00    +0.000 NA
ENDROOT
BRANCH  10  13
ATOM     13  C   UNL     1      20.187  10.557  37.787  0.00  0.00    +0.000 A 
ATOM     14  C   UNL     1      20.943  11.588  38.299  0.00  0.00    +0.000 A 
ATOM     15  C   UNL     1      22.239  11.801  37.919  0.00  0.00    +0.000 A 
ATOM     16  C   UNL     1      22.825  10.941  36.975  0.00  0.00    +0.000 A 
ATOM     17 CL   UNL     1      24.469  11.158  36.457  0.00  0.00    +0.000 Cl
ATOM     18  C   UNL     1      22.078   9.930  36.475  0.00  0.00    +0.000 A 
ATOM     19  C   UNL     1      20.756   9.694  36.846  0.00  0.00    +0.000 A 
ENDBRANCH  10  13
TORSDOF 1
ENDMDL
MODEL 7
REMARK VINA RESULT:      -5.6     25.353     26.486
REMARK  Name = 
REMARK  1 active torsions:
REMARK  status: ('A' for Active; 'I' for Inactive)
REMARK    1  A    between atoms: C_10  and  C_11
REMARK                            x       y       z     vdW  Elec       q    Type
REMARK                         _______ _______ _______ _____ _____    ______ ____
ROOT
ATOM      1  C   UNL     1      30.032  28.002  24.364  0.00  0.00    +0.000 C 
ATOM      2  C   UNL     1      29.268  26.812  23.838  0.00  0.00    +0.000 A 
ATOM      3  C   UNL     1      29.806  26.118  22.740  0.00  0.00    +0.000 A 
ATOM      4  C   UNL     1      29.119  25.042  22.262  0.00  0.00    +0.000 A 
ATOM      5  N   UNL     1      29.652  24.324  21.158  0.00  0.00    +0.000 NA
ATOM      6  N   UNL     1      27.969  24.680  22.835  0.00  0.00    +0.000 N 
ATOM      7  N   UNL     1      27.109  23.716  22.572  0.00  0.00    +0.000 NA
ATOM      8  C   UNL     1      26.063  23.743  23.415  0.00  0.00    +0.000 A 
ATOM      9  C   UNL     1      24.926  22.782  23.373  0.00  0.00    +0.000 C 
ATOM     10  C   UNL     1      26.257  24.803  24.291  0.00  0.00    +0.000 A 
ATOM     11  C   UNL     1      27.457  25.360  23.897  0.00  0.00    +0.000 A 
ATOM     12  N   UNL     1      28.115  26.411  24.378  0.00  0.00    +0.000 NA
ENDROOT
BRANCH  10  13
ATOM     13  C   UNL     1      25.338  25.228  25.346  0.00  0.00    +0.000 A 
ATOM     14  C   UNL     1      25.554  24.752  26.619  0.00  0.00    +0.000 A 
ATOM     15  C   UNL     1      24.771  25.119  27.679  0.00  0.00    +0.000 A 
ATOM     16  C   UNL     1      23.709  26.014  27.466  0.00  0.00    +0.000 A 
ATOM     17 CL   UNL     1      22.684  26.521  28.773  0.00  0.00    +0.000 Cl
ATOM     18  C   UNL     1      23.501  26.479  26.213  0.00  0.00    +0.000 A 
ATOM     19  C   UNL     1      24.284  26.118  25.118  0.00  0.00    +0.000 A 
ENDBRANCH  10  13
TORSDOF 1
ENDMDL
MODEL 8
REMARK VINA RESULT:      -5.5     22.314     24.731
REMARK  Name = 
REMARK  1 active torsions:
REMARK  status: ('A' for Active; 'I' for Inactive)
REMARK    1  A    between atoms: C_10  and  C_11
REMARK                            x       y       z     vdW  Elec       q    Type
REMARK                         _______ _______ _______ _____ _____    ______ ____
ROOT
ATOM      1  C   UNL     1      32.125  23.864  27.342  0.00  0.00    +0.000 C 
ATOM      2  C   UNL     1      30.677  23.598  27.008  0.00  0.00    +0.000 A 
ATOM      3  C   UNL     1      29.909  22.876  27.939  0.00  0.00    +0.000 A 
ATOM      4  C   UNL     1      28.602  22.634  27.642  0.00  0.00    +0.000 A 
ATOM      5  N   UNL     1      27.808  21.913  28.574  0.00  0.00    +0.000 NA
ATOM      6  N   UNL     1      28.089  23.076  26.491  0.00  0.00    +0.000 N 
ATOM      7  N   UNL     1      26.891  22.970  25.952  0.00  0.00    +0.000 NA
ATOM      8  C   UNL     1      26.835  23.565  24.748  0.00  0.00    +0.000 A 
ATOM      9  C   UNL     1      25.618  23.616  23.892  0.00  0.00    +0.000 C 
ATOM     10  C   UNL     1      28.091  24.097  24.484  0.00  0.00    +0.000 A 
ATOM     11  C   UNL     1      28.843  23.772  25.596  0.00  0.00    +0.000 A 
ATOM     12  N   UNL     1      30.120  24.020  25.871  0.00  0.00    +0.000 NA
ENDROOT
BRANCH  10  13
ATOM     13  C   UNL     1      28.493  24.792  23.262  0.00  0.00    +0.000 A 
ATOM     14  C   UNL     1      28.474  26.168  23.268  0.00  0.00    +0.000 A 
ATOM     15  C   UNL     1      28.866  26.908  22.187  0.00  0.00    +0.000 A 
ATOM     16  C   UNL     1      29.304  26.245  21.028  0.00  0.00    +0.000 A 
ATOM     17 CL   UNL     1      29.818  27.130  19.625  0.00  0.00    +0.000 Cl
ATOM     18  C   UNL     1      29.321  24.893  21.028  0.00  0.00    +0.000 A 
ATOM     19  C   UNL     1      28.925  24.118  22.117  0.00  0.00    +0.000 A 
ENDBRANCH  10  13
TORSDOF 1
ENDMDL
MODEL 9
REMARK VINA RESULT:      -5.5     22.176     24.856
REMARK  Name = 
REMARK  1 active torsions:
REMARK  status: ('A' for Active; 'I' for Inactive)
REMARK    1  A    between atoms: C_10  and  C_11
REMARK                            x       y       z     vdW  Elec       q    Type
REMARK                         _______ _______ _______ _____ _____    ______ ____
ROOT
ATOM      1  C   UNL     1      24.280  28.604  28.240  0.00  0.00    +0.000 C 
ATOM      2  C   UNL     1      24.663  27.336  28.964  0.00  0.00    +0.000 A 
ATOM      3  C   UNL     1      24.306  27.219  30.319  0.00  0.00    +0.000 A 
ATOM      4  C   UNL     1      24.650  26.076  30.977  0.00  0.00    +0.000 A 
ATOM      5  N   UNL     1      24.291  25.937  32.345  0.00  0.00    +0.000 NA
ATOM      6  N   UNL     1      25.310  25.111  30.332  0.00  0.00    +0.000 N 
ATOM      7  N   UNL     1      25.773  23.940  30.718  0.00  0.00    +0.000 NA
ATOM      8  C   UNL     1      26.401  23.301  29.716  0.00  0.00    +0.000 A 
ATOM      9  C   UNL     1      27.029  21.956  29.840  0.00  0.00    +0.000 C 
ATOM     10  C   UNL     1      26.341  24.118  28.595  0.00  0.00    +0.000 A 
ATOM     11  C   UNL     1      25.652  25.236  29.020  0.00  0.00    +0.000 A 
ATOM     12  N   UNL     1      25.322  26.344  28.362  0.00  0.00    +0.000 NA
ENDROOT
BRANCH  10  13
ATOM     13  C   UNL     1      26.939  23.837  27.290  0.00  0.00    +0.000 A 
ATOM     14  C   UNL     1      26.111  23.388  26.286  0.00  0.00    +0.000 A 
ATOM     15  C   UNL     1      26.569  23.131  25.023  0.00  0.00    +0.000 A 
ATOM     16  C   UNL     1      27.929  23.331  24.735  0.00  0.00    +0.000 A 
ATOM     17 CL   UNL     1      28.568  23.027  23.149  0.00  0.00    +0.000 Cl
ATOM     18  C   UNL     1      28.738  23.773  25.726  0.00  0.00    +0.000 A 
ATOM     19  C   UNL     1      28.295  24.040  27.020  0.00  0.00    +0.000 A 
ENDBRANCH  10  13
TORSDOF 1
ENDMDL
MODEL 10
REMARK VINA RESULT:      -5.4      3.498      5.949
REMARK  Name = 
REMARK  1 active torsions:
REMARK  status: ('A' for Active; 'I' for Inactive)
REMARK    1  A    between atoms: C_10  and  C_11
REMARK                            x       y       z     vdW  Elec       q    Type
REMARK                         _______ _______ _______ _____ _____    ______ ____
ROOT
ATOM      1  C   UNL     1      32.412   5.343  33.900  0.00  0.00    +0.000 C 
ATOM      2  C   UNL     1      33.487   5.544  34.940  0.00  0.00    +0.000 A 
ATOM      3  C   UNL     1      34.037   4.400  35.546  0.00  0.00    +0.000 A 
ATOM      4  C   UNL     1      35.009   4.577  36.486  0.00  0.00    +0.000 A 
ATOM      5  N   UNL     1      35.582   3.433  37.104  0.00  0.00    +0.000 NA
ATOM      6  N   UNL     1      35.407   5.810  36.806  0.00  0.00    +0.000 N 
ATOM      7  N   UNL     1      36.291   6.262  37.672  0.00  0.00    +0.000 NA
ATOM      8  C   UNL     1      36.347   7.605  37.669  0.00  0.00    +0.000 A 
ATOM      9  C   UNL     1      37.250   8.411  38.536  0.00  0.00    +0.000 C 
ATOM     10  C   UNL     1      35.429   8.060  36.730  0.00  0.00    +0.000 A 
ATOM     11  C   UNL     1      34.866   6.910  36.214  0.00  0.00    +0.000 A 
ATOM     12  N   UNL     1      33.919   6.756  35.293  0.00  0.00    +0.000 NA
ENDROOT
BRANCH  10  13
ATOM     13  C   UNL     1      35.125   9.458  36.430  0.00  0.00    +0.000 A 
ATOM     14  C   UNL     1      34.095  10.056  37.120  0.00  0.00    +0.000 A 
ATOM     15  C   UNL     1      33.758  11.369  36.936  0.00  0.00    +0.000 A 
ATOM     16  C   UNL     1      34.486  12.138  36.013  0.00  0.00    +0.000 A 
ATOM     17 CL   UNL     1      34.108  13.811  35.739  0.00  0.00    +0.000 Cl
ATOM     18  C   UNL     1      35.497  11.546  35.338  0.00  0.00    +0.000 A 
ATOM     19  C   UNL     1      35.858  10.210  35.508  0.00  0.00    +0.000 A 
ENDBRANCH  10  13
TORSDOF 1
ENDMDL
