MODEL 1
REMARK VINA RESULT:      -7.9      0.000      0.000
REMARK  Name = 
REMARK  7 active torsions:
REMARK  status: ('A' for Active; 'I' for Inactive)
REMARK    1  A    between atoms: O_2  and  C_3
REMARK    2  A    between atoms: C_5  and  O_6
REMARK    3  A    between atoms: C_8  and  C_9
REMARK    4  A    between atoms: C_19  and  O_20
REMARK    5  A    between atoms: O_20  and  C_21
REMARK    6  A    between atoms: C_21  and  C_22
REMARK    7  A    between atoms: C_31  and  O_32
REMARK                            x       y       z     vdW  Elec       q    Type
REMARK                         _______ _______ _______ _____ _____    ______ ____
ROOT
ATOM      1  C   UNL     1      36.383   0.347  14.401  0.00  0.00    +0.000 C 
ATOM      2  N   UNL     1      36.213  -0.162  15.897  0.00  0.00    +0.000 NA
ATOM      3  C   UNL     1      35.176   0.732  16.431  0.00  0.00    +0.000 C 
ATOM      4  C   UNL     1      35.918   1.944  16.937  0.00  0.00    +0.000 C 
ATOM      5  C   UNL     1      36.938   2.298  15.937  0.00  0.00    +0.000 A 
ATOM      6  C   UNL     1      37.212   1.639  14.775  0.00  0.00    +0.000 A 
ATOM      7  N   UNL     1      38.186   2.289  14.186  0.00  0.00    +0.000 NA
ATOM      8  C   UNL     1      38.577   3.357  14.907  0.00  0.00    +0.000 A 
ATOM      9  C   UNL     1      39.528   4.344  14.748  0.00  0.00    +0.000 A 
ATOM     10  C   UNL     1      39.721   5.341  15.659  0.00  0.00    +0.000 A 
ATOM     11  C   UNL     1      38.950   5.383  16.784  0.00  0.00    +0.000 A 
ATOM     12  C   UNL     1      37.974   4.398  16.978  0.00  0.00    +0.000 A 
ATOM     13  C   UNL     1      37.806   3.407  16.039  0.00  0.00    +0.000 A 
ENDROOT
BRANCH   1  17
ATOM     14  C   UNL     1      39.660  -2.316  13.418  0.00  0.00    +0.000 A 
ATOM     15  C   UNL     1      39.070  -1.570  12.426  0.00  0.00    +0.000 A 
ATOM     16  C   UNL     1      38.009  -0.703  12.732  0.00  0.00    +0.000 A 
ATOM     17  C   UNL     1      37.572  -0.611  14.016  0.00  0.00    +0.000 A 
ATOM     18  C   UNL     1      38.181  -1.366  14.972  0.00  0.00    +0.000 A 
ATOM     19  C   UNL     1      39.229  -2.229  14.700  0.00  0.00    +0.000 A 
BRANCH  14  21
ATOM     20  C   UNL     1      42.009  -2.638  12.916  0.00  0.00    +0.000 C 
ATOM     21  O   UNL     1      40.726  -3.193  13.134  0.00  0.00    +0.000 OA
ENDBRANCH  14  21
BRANCH  16  22
ATOM     22  O   UNL     1      37.472   0.011  11.678  0.00  0.00    +0.000 OA
ATOM     23  C   UNL     1      38.206   0.848  10.849  0.00  0.00    +0.000 C 
ENDBRANCH  16  22
BRANCH  19  24
ATOM     24  O   UNL     1      39.829  -2.984  15.696  0.00  0.00    +0.000 OA
ATOM     25  C   UNL     1      39.123  -3.172  16.931  0.00  0.00    +0.000 C 
ENDBRANCH  19  24
ENDBRANCH   1  17
BRANCH  11  26
ATOM     26  O   UNL     1      39.085   6.349  17.737  0.00  0.00    +0.000 OA
BRANCH  26  27
ATOM     27  C   UNL     1      39.459   6.049  19.040  0.00  0.00    +0.000 C 
BRANCH  27  28
ATOM     28  C   UNL     1      40.902   6.309  19.256  0.00  0.00    +0.000 A 
ATOM     29  C   UNL     1      41.356   6.241  20.565  0.00  0.00    +0.000 A 
ATOM     30  C   UNL     1      42.671   6.463  20.821  0.00  0.00    +0.000 A 
ATOM     31  C   UNL     1      43.548   6.755  19.788  0.00  0.00    +0.000 A 
ATOM     32  C   UNL     1      43.085   6.821  18.494  0.00  0.00    +0.000 A 
ATOM     33  C   UNL     1      41.765   6.596  18.244  0.00  0.00    +0.000 A 
ENDBRANCH  27  28
ENDBRANCH  26  27
ENDBRANCH  11  26
TORSDOF 7
ENDMDL
MODEL 2
REMARK VINA RESULT:      -7.5     25.713     28.754
REMARK  Name = 
REMARK  7 active torsions:
REMARK  status: ('A' for Active; 'I' for Inactive)
REMARK    1  A    between atoms: O_2  and  C_3
REMARK    2  A    between atoms: C_5  and  O_6
REMARK    3  A    between atoms: C_8  and  C_9
REMARK    4  A    between atoms: C_19  and  O_20
REMARK    5  A    between atoms: O_20  and  C_21
REMARK    6  A    between atoms: C_21  and  C_22
REMARK    7  A    between atoms: C_31  and  O_32
REMARK                            x       y       z     vdW  Elec       q    Type
REMARK                         _______ _______ _______ _____ _____    ______ ____
ROOT
ATOM      1  C   UNL     1      27.458  15.997  34.164  0.00  0.00    +0.000 C 
ATOM      2  N   UNL     1      28.579  17.059  34.541  0.00  0.00    +0.000 NA
ATOM      3  C   UNL     1      29.711  16.212  34.943  0.00  0.00    +0.000 C 
ATOM      4  C   UNL     1      29.496  15.933  36.410  0.00  0.00    +0.000 C 
ATOM      5  C   UNL     1      28.070  15.625  36.606  0.00  0.00    +0.000 A 
ATOM      6  C   UNL     1      27.090  15.630  35.656  0.00  0.00    +0.000 A 
ATOM      7  N   UNL     1      25.973  15.300  36.256  0.00  0.00    +0.000 NA
ATOM      8  C   UNL     1      26.163  15.074  37.570  0.00  0.00    +0.000 A 
ATOM      9  C   UNL     1      25.349  14.710  38.623  0.00  0.00    +0.000 A 
ATOM     10  C   UNL     1      25.812  14.544  39.895  0.00  0.00    +0.000 A 
ATOM     11  C   UNL     1      27.137  14.741  40.160  0.00  0.00    +0.000 A 
ATOM     12  C   UNL     1      27.993  15.111  39.115  0.00  0.00    +0.000 A 
ATOM     13  C   UNL     1      27.491  15.269  37.844  0.00  0.00    +0.000 A 
ENDROOT
BRANCH   1  17
ATOM     14  C   UNL     1      24.337  18.909  33.410  0.00  0.00    +0.000 A 
ATOM     15  C   UNL     1      24.338  17.720  32.720  0.00  0.00    +0.000 A 
ATOM     16  C   UNL     1      25.343  16.768  32.957  0.00  0.00    +0.000 A 
ATOM     17  C   UNL     1      26.312  17.036  33.871  0.00  0.00    +0.000 A 
ATOM     18  C   UNL     1      26.279  18.224  34.535  0.00  0.00    +0.000 A 
ATOM     19  C   UNL     1      25.301  19.181  34.323  0.00  0.00    +0.000 A 
BRANCH  14  21
ATOM     20  C   UNL     1      22.850  20.048  31.872  0.00  0.00    +0.000 C 
ATOM     21  O   UNL     1      23.339  19.879  33.189  0.00  0.00    +0.000 OA
ENDBRANCH  14  21
BRANCH  16  22
ATOM     22  O   UNL     1      25.271  15.600  32.223  0.00  0.00    +0.000 OA
ATOM     23  C   UNL     1      24.685  14.427  32.679  0.00  0.00    +0.000 C 
ENDBRANCH  16  22
BRANCH  19  24
ATOM     24  O   UNL     1      25.294  20.382  35.016  0.00  0.00    +0.000 OA
ATOM     25  C   UNL     1      26.499  21.159  35.051  0.00  0.00    +0.000 C 
ENDBRANCH  19  24
ENDBRANCH   1  17
BRANCH  11  26
ATOM     26  O   UNL     1      27.671  14.593  41.406  0.00  0.00    +0.000 OA
BRANCH  26  27
ATOM     27  C   UNL     1      27.378  13.496  42.205  0.00  0.00    +0.000 C 
BRANCH  27  28
ATOM     28  C   UNL     1      27.887  12.243  41.599  0.00  0.00    +0.000 A 
ATOM     29  C   UNL     1      26.967  11.220  41.423  0.00  0.00    +0.000 A 
ATOM     30  C   UNL     1      27.377  10.052  40.865  0.00  0.00    +0.000 A 
ATOM     31  C   UNL     1      28.696   9.883  40.477  0.00  0.00    +0.000 A 
ATOM     32  C   UNL     1      29.600  10.905  40.657  0.00  0.00    +0.000 A 
ATOM     33  C   UNL     1      29.182  12.075  41.217  0.00  0.00    +0.000 A 
ENDBRANCH  27  28
ENDBRANCH  26  27
ENDBRANCH  11  26
TORSDOF 7
ENDMDL
MODEL 3
REMARK VINA RESULT:      -7.4      1.812      2.178
REMARK  Name = 
REMARK  7 active torsions:
REMARK  status: ('A' for Active; 'I' for Inactive)
REMARK    1  A    between atoms: O_2  and  C_3
REMARK    2  A    between atoms: C_5  and  O_6
REMARK    3  A    between atoms: C_8  and  C_9
REMARK    4  A    between atoms: C_19  and  O_20
REMARK    5  A    between atoms: O_20  and  C_21
REMARK    6  A    between atoms: C_21  and  C_22
REMARK    7  A    between atoms: C_31  and  O_32
REMARK                            x       y       z     vdW  Elec       q    Type
REMARK                         _______ _______ _______ _____ _____    ______ ____
ROOT
ATOM      1  C   UNL     1      36.386   1.352  13.987  0.00  0.00    +0.000 C 
ATOM      2  N   UNL     1      36.181   0.364  15.216  0.00  0.00    +0.000 NA
ATOM      3  C   UNL     1      35.139   1.035  16.005  0.00  0.00    +0.000 C 
ATOM      4  C   UNL     1      35.879   1.990  16.909  0.00  0.00    +0.000 C 
ATOM      5  C   UNL     1      36.922   2.652  16.108  0.00  0.00    +0.000 A 
ATOM      6  C   UNL     1      37.216   2.427  14.795  0.00  0.00    +0.000 A 
ATOM      7  N   UNL     1      38.207   3.225  14.482  0.00  0.00    +0.000 NA
ATOM      8  C   UNL     1      38.590   3.977  15.532  0.00  0.00    +0.000 A 
ATOM      9  C   UNL     1      39.551   4.945  15.737  0.00  0.00    +0.000 A 
ATOM     10  C   UNL     1      39.733   5.567  16.937  0.00  0.00    +0.000 A 
ATOM     11  C   UNL     1      38.938   5.231  17.996  0.00  0.00    +0.000 A 
ATOM     12  C   UNL     1      37.951   4.253  17.824  0.00  0.00    +0.000 A 
ATOM     13  C   UNL     1      37.797   3.646  16.599  0.00  0.00    +0.000 A 
ENDROOT
BRANCH   1  17
ATOM     14  C   UNL     1      39.679  -0.841  12.215  0.00  0.00    +0.000 A 
ATOM     15  C   UNL     1      38.883  -0.051  11.420  0.00  0.00    +0.000 A 
ATOM     16  C   UNL     1      37.814   0.666  11.983  0.00  0.00    +0.000 A 
ATOM     17  C   UNL     1      37.576   0.568  13.317  0.00  0.00    +0.000 A 
ATOM     18  C   UNL     1      38.385  -0.224  14.073  0.00  0.00    +0.000 A 
ATOM     19  C   UNL     1      39.446  -0.941  13.546  0.00  0.00    +0.000 A 
BRANCH  14  21
ATOM     20  C   UNL     1      40.466  -2.710  10.889  0.00  0.00    +0.000 C 
ATOM     21  O   UNL     1      40.757  -1.568  11.672  0.00  0.00    +0.000 OA
ENDBRANCH  14  21
BRANCH  16  22
ATOM     22  O   UNL     1      37.063   1.436  11.116  0.00  0.00    +0.000 OA
ATOM     23  C   UNL     1      37.336   1.576   9.762  0.00  0.00    +0.000 C 
ENDBRANCH  16  22
BRANCH  19  24
ATOM     24  O   UNL     1      40.253  -1.740  14.343  0.00  0.00    +0.000 OA
ATOM     25  C   UNL     1      39.684  -2.330  15.520  0.00  0.00    +0.000 C 
ENDBRANCH  19  24
ENDBRANCH   1  17
BRANCH  11  26
ATOM     26  O   UNL     1      39.061   5.811  19.225  0.00  0.00    +0.000 OA
BRANCH  26  27
ATOM     27  C   UNL     1      40.234   6.435  19.628  0.00  0.00    +0.000 C 
BRANCH  27  28
ATOM     28  C   UNL     1      39.972   7.818  20.090  0.00  0.00    +0.000 A 
ATOM     29  C   UNL     1      38.664   8.117  20.444  0.00  0.00    +0.000 A 
ATOM     30  C   UNL     1      38.368   9.367  20.881  0.00  0.00    +0.000 A 
ATOM     31  C   UNL     1      39.357  10.333  20.973  0.00  0.00    +0.000 A 
ATOM     32  C   UNL     1      40.651  10.025  20.618  0.00  0.00    +0.000 A 
ATOM     33  C   UNL     1      40.942   8.768  20.181  0.00  0.00    +0.000 A 
ENDBRANCH  27  28
ENDBRANCH  26  27
ENDBRANCH  11  26
TORSDOF 7
ENDMDL
MODEL 4
REMARK VINA RESULT:      -7.4     27.804     31.727
REMARK  Name = 
REMARK  7 active torsions:
REMARK  status: ('A' for Active; 'I' for Inactive)
REMARK    1  A    between atoms: O_2  and  C_3
REMARK    2  A    between atoms: C_5  and  O_6
REMARK    3  A    between atoms: C_8  and  C_9
REMARK    4  A    between atoms: C_19  and  O_20
REMARK    5  A    between atoms: O_20  and  C_21
REMARK    6  A    between atoms: C_21  and  C_22
REMARK    7  A    between atoms: C_31  and  O_32
REMARK                            x       y       z     vdW  Elec       q    Type
REMARK                         _______ _______ _______ _____ _____    ______ ____
ROOT
ATOM      1  C   UNL     1      25.346  13.861  43.895  0.00  0.00    +0.000 C 
ATOM      2  N   UNL     1      26.524  12.806  43.734  0.00  0.00    +0.000 NA
ATOM      3  C   UNL     1      27.706  13.660  43.550  0.00  0.00    +0.000 C 
ATOM      4  C   UNL     1      27.767  13.940  42.069  0.00  0.00    +0.000 C 
ATOM      5  C   UNL     1      26.400  14.238  41.610  0.00  0.00    +0.000 A 
ATOM      6  C   UNL     1      25.261  14.226  42.360  0.00  0.00    +0.000 A 
ATOM      7  N   UNL     1      24.273  14.550  41.562  0.00  0.00    +0.000 NA
ATOM      8  C   UNL     1      24.703  14.778  40.306  0.00  0.00    +0.000 A 
ATOM      9  C   UNL     1      24.098  15.137  39.120  0.00  0.00    +0.000 A 
ATOM     10  C   UNL     1      24.790  15.307  37.957  0.00  0.00    +0.000 A 
ATOM     11  C   UNL     1      26.142  15.118  37.944  0.00  0.00    +0.000 A 
ATOM     12  C   UNL     1      26.790  14.754  39.130  0.00  0.00    +0.000 A 
ATOM     13  C   UNL     1      26.061  14.591  40.285  0.00  0.00    +0.000 A 
ENDROOT
BRANCH   1  17
ATOM     14  C   UNL     1      22.162  10.924  44.065  0.00  0.00    +0.000 A 
ATOM     15  C   UNL     1      21.954  12.182  44.579  0.00  0.00    +0.000 A 
ATOM     16  C   UNL     1      22.977  13.143  44.528  0.00  0.00    +0.000 A 
ATOM     17  C   UNL     1      24.172  12.814  43.969  0.00  0.00    +0.000 A 
ATOM     18  C   UNL     1      24.341  11.559  43.471  0.00  0.00    +0.000 A 
ATOM     19  C   UNL     1      23.351  10.592  43.507  0.00  0.00    +0.000 A 
BRANCH  14  21
ATOM     20  C   UNL     1      19.834  10.355  44.426  0.00  0.00    +0.000 C 
ATOM     21  O   UNL     1      21.149   9.944  44.105  0.00  0.00    +0.000 OA
ENDBRANCH  14  21
BRANCH  16  22
ATOM     22  O   UNL     1      22.687  14.382  45.066  0.00  0.00    +0.000 OA
ATOM     23  C   UNL     1      21.954  15.363  44.411  0.00  0.00    +0.000 C 
ENDBRANCH  16  22
BRANCH  19  24
ATOM     24  O   UNL     1      23.554   9.321  42.990  0.00  0.00    +0.000 OA
ATOM     25  C   UNL     1      24.473   8.448  43.661  0.00  0.00    +0.000 C 
ENDBRANCH  19  24
ENDBRANCH   1  17
BRANCH  11  26
ATOM     26  O   UNL     1      26.899  15.271  36.819  0.00  0.00    +0.000 OA
BRANCH  26  27
ATOM     27  C   UNL     1      26.757  16.370  35.982  0.00  0.00    +0.000 C 
BRANCH  27  28
ATOM     28  C   UNL     1      26.092  15.992  34.713  0.00  0.00    +0.000 A 
ATOM     29  C   UNL     1      25.428  17.004  34.035  0.00  0.00    +0.000 A 
ATOM     30  C   UNL     1      24.808  16.717  32.862  0.00  0.00    +0.000 A 
ATOM     31  C   UNL     1      24.836  15.430  32.348  0.00  0.00    +0.000 A 
ATOM     32  C   UNL     1      25.498  14.434  33.030  0.00  0.00    +0.000 A 
ATOM     33  C   UNL     1      26.119  14.730  34.207  0.00  0.00    +0.000 A 
ENDBRANCH  27  28
ENDBRANCH  26  27
ENDBRANCH  11  26
TORSDOF 7
ENDMDL
MODEL 5
REMARK VINA RESULT:      -7.2      2.361      8.609
REMARK  Name = 
REMARK  7 active torsions:
REMARK  status: ('A' for Active; 'I' for Inactive)
REMARK    1  A    between atoms: O_2  and  C_3
REMARK    2  A    between atoms: C_5  and  O_6
REMARK    3  A    between atoms: C_8  and  C_9
REMARK    4  A    between atoms: C_19  and  O_20
REMARK    5  A    between atoms: O_20  and  C_21
REMARK    6  A    between atoms: C_21  and  C_22
REMARK    7  A    between atoms: C_31  and  O_32
REMARK                            x       y       z     vdW  Elec       q    Type
REMARK                         _______ _______ _______ _____ _____    ______ ____
ROOT
ATOM      1  C   UNL     1      38.377   5.417  14.712  0.00  0.00    +0.000 C 
ATOM      2  N   UNL     1      39.788   4.784  15.079  0.00  0.00    +0.000 NA
ATOM      3  C   UNL     1      40.015   3.833  13.982  0.00  0.00    +0.000 C 
ATOM      4  C   UNL     1      39.340   2.556  14.418  0.00  0.00    +0.000 C 
ATOM      5  C   UNL     1      38.036   2.912  15.002  0.00  0.00    +0.000 A 
ATOM      6  C   UNL     1      37.527   4.167  15.170  0.00  0.00    +0.000 A 
ATOM      7  N   UNL     1      36.347   4.030  15.722  0.00  0.00    +0.000 NA
ATOM      8  C   UNL     1      36.042   2.735  15.932  0.00  0.00    +0.000 A 
ATOM      9  C   UNL     1      34.963   2.062  16.465  0.00  0.00    +0.000 A 
ATOM     10  C   UNL     1      34.911   0.702  16.561  0.00  0.00    +0.000 A 
ATOM     11  C   UNL     1      35.963  -0.045  16.116  0.00  0.00    +0.000 A 
ATOM     12  C   UNL     1      37.076   0.605  15.567  0.00  0.00    +0.000 A 
ATOM     13  C   UNL     1      37.094   1.978  15.486  0.00  0.00    +0.000 A 
ENDROOT
BRANCH   1  17
ATOM     14  C   UNL     1      38.026   7.809  18.310  0.00  0.00    +0.000 A 
ATOM     15  C   UNL     1      37.461   8.256  17.139  0.00  0.00    +0.000 A 
ATOM     16  C   UNL     1      37.567   7.490  15.967  0.00  0.00    +0.000 A 
ATOM     17  C   UNL     1      38.233   6.306  16.004  0.00  0.00    +0.000 A 
ATOM     18  C   UNL     1      38.780   5.896  17.181  0.00  0.00    +0.000 A 
ATOM     19  C   UNL     1      38.691   6.630  18.351  0.00  0.00    +0.000 A 
BRANCH  14  21
ATOM     20  C   UNL     1      38.741   9.716  19.624  0.00  0.00    +0.000 C 
ATOM     21  O   UNL     1      37.932   8.562  19.498  0.00  0.00    +0.000 OA
ENDBRANCH  14  21
BRANCH  16  22
ATOM     22  O   UNL     1      36.971   8.009  14.834  0.00  0.00    +0.000 OA
ATOM     23  C   UNL     1      35.609   7.948  14.571  0.00  0.00    +0.000 C 
ENDBRANCH  16  22
BRANCH  19  24
ATOM     24  O   UNL     1      39.259   6.184  19.536  0.00  0.00    +0.000 OA
ATOM     25  C   UNL     1      40.678   6.308  19.704  0.00  0.00    +0.000 C 
ENDBRANCH  19  24
ENDBRANCH   1  17
BRANCH  11  26
ATOM     26  O   UNL     1      35.981  -1.407  16.179  0.00  0.00    +0.000 OA
BRANCH  26  27
ATOM     27  C   UNL     1      36.269  -2.191  15.069  0.00  0.00    +0.000 C 
BRANCH  27  28
ATOM     28  C   UNL     1      37.724  -2.451  14.962  0.00  0.00    +0.000 A 
ATOM     29  C   UNL     1      38.285  -2.328  13.699  0.00  0.00    +0.000 A 
ATOM     30  C   UNL     1      39.616  -2.547  13.543  0.00  0.00    +0.000 A 
ATOM     31  C   UNL     1      40.404  -2.889  14.630  0.00  0.00    +0.000 A 
ATOM     32  C   UNL     1      39.835  -3.009  15.878  0.00  0.00    +0.000 A 
ATOM     33  C   UNL     1      38.499  -2.787  16.028  0.00  0.00    +0.000 A 
ENDBRANCH  27  28
ENDBRANCH  26  27
ENDBRANCH  11  26
TORSDOF 7
ENDMDL
MODEL 6
REMARK VINA RESULT:      -7.1     26.868     30.831
REMARK  Name = 
REMARK  7 active torsions:
REMARK  status: ('A' for Active; 'I' for Inactive)
REMARK    1  A    between atoms: O_2  and  C_3
REMARK    2  A    between atoms: C_5  and  O_6
REMARK    3  A    between atoms: C_8  and  C_9
REMARK    4  A    between atoms: C_19  and  O_20
REMARK    5  A    between atoms: O_20  and  C_21
REMARK    6  A    between atoms: C_21  and  C_22
REMARK    7  A    between atoms: C_31  and  O_32
REMARK                            x       y       z     vdW  Elec       q    Type
REMARK                         _______ _______ _______ _____ _____    ______ ____
ROOT
ATOM      1  C   UNL     1      25.985  13.994  43.403  0.00  0.00    +0.000 C 
ATOM      2  N   UNL     1      27.509  13.580  43.220  0.00  0.00    +0.000 NA
ATOM      3  C   UNL     1      28.198  14.877  43.175  0.00  0.00    +0.000 C 
ATOM      4  C   UNL     1      28.151  15.302  41.729  0.00  0.00    +0.000 C 
ATOM      5  C   UNL     1      26.798  15.020  41.221  0.00  0.00    +0.000 A 
ATOM      6  C   UNL     1      25.769  14.438  41.902  0.00  0.00    +0.000 A 
ATOM      7  N   UNL     1      24.751  14.378  41.080  0.00  0.00    +0.000 NA
ATOM      8  C   UNL     1      25.054  14.895  39.874  0.00  0.00    +0.000 A 
ATOM      9  C   UNL     1      24.369  15.072  38.690  0.00  0.00    +0.000 A 
ATOM     10  C   UNL     1      24.931  15.642  37.586  0.00  0.00    +0.000 A 
ATOM     11  C   UNL     1      26.229  16.063  37.633  0.00  0.00    +0.000 A 
ATOM     12  C   UNL     1      26.956  15.900  38.819  0.00  0.00    +0.000 A 
ATOM     13  C   UNL     1      26.356  15.321  39.914  0.00  0.00    +0.000 A 
ENDROOT
BRANCH   1  17
ATOM     14  C   UNL     1      24.407   9.966  43.138  0.00  0.00    +0.000 A 
ATOM     15  C   UNL     1      23.728  10.915  43.865  0.00  0.00    +0.000 A 
ATOM     16  C   UNL     1      24.229  12.224  43.957  0.00  0.00    +0.000 A 
ATOM     17  C   UNL     1      25.389  12.540  43.323  0.00  0.00    +0.000 A 
ATOM     18  C   UNL     1      26.033  11.574  42.613  0.00  0.00    +0.000 A 
ATOM     19  C   UNL     1      25.564  10.275  42.504  0.00  0.00    +0.000 A 
BRANCH  14  21
ATOM     20  C   UNL     1      23.860   7.860  44.207  0.00  0.00    +0.000 C 
ATOM     21  O   UNL     1      23.923   8.646  43.032  0.00  0.00    +0.000 OA
ENDBRANCH  14  21
BRANCH  16  22
ATOM     22  O   UNL     1      23.487  13.117  44.706  0.00  0.00    +0.000 OA
ATOM     23  C   UNL     1      22.338  13.750  44.250  0.00  0.00    +0.000 C 
ENDBRANCH  16  22
BRANCH  19  24
ATOM     24  O   UNL     1      26.243   9.313  41.772  0.00  0.00    +0.000 OA
ATOM     25  C   UNL     1      27.540   9.638  41.252  0.00  0.00    +0.000 C 
ENDBRANCH  19  24
ENDBRANCH   1  17
BRANCH  11  26
ATOM     26  O   UNL     1      26.857  16.642  36.569  0.00  0.00    +0.000 OA
BRANCH  26  27
ATOM     27  C   UNL     1      27.390  15.888  35.532  0.00  0.00    +0.000 C 
BRANCH  27  28
ATOM     28  C   UNL     1      26.428  15.763  34.413  0.00  0.00    +0.000 A 
ATOM     29  C   UNL     1      25.800  16.930  34.001  0.00  0.00    +0.000 A 
ATOM     30  C   UNL     1      24.915  16.877  32.974  0.00  0.00    +0.000 A 
ATOM     31  C   UNL     1      24.641  15.673  32.344  0.00  0.00    +0.000 A 
ATOM     32  C   UNL     1      25.270  14.522  32.761  0.00  0.00    +0.000 A 
ATOM     33  C   UNL     1      26.158  14.583  33.793  0.00  0.00    +0.000 A 
ENDBRANCH  27  28
ENDBRANCH  26  27
ENDBRANCH  11  26
TORSDOF 7
ENDMDL
MODEL 7
REMARK VINA RESULT:      -7.1      5.031      7.633
REMARK  Name = 
REMARK  7 active torsions:
REMARK  status: ('A' for Active; 'I' for Inactive)
REMARK    1  A    between atoms: O_2  and  C_3
REMARK    2  A    between atoms: C_5  and  O_6
REMARK    3  A    between atoms: C_8  and  C_9
REMARK    4  A    between atoms: C_19  and  O_20
REMARK    5  A    between atoms: O_20  and  C_21
REMARK    6  A    between atoms: C_21  and  C_22
REMARK    7  A    between atoms: C_31  and  O_32
REMARK                            x       y       z     vdW  Elec       q    Type
REMARK                         _______ _______ _______ _____ _____    ______ ____
ROOT
ATOM      1  C   UNL     1      43.460  -1.630  12.275  0.00  0.00    +0.000 C 
ATOM      2  N   UNL     1      42.795  -0.395  11.525  0.00  0.00    +0.000 NA
ATOM      3  C   UNL     1      42.962   0.701  12.489  0.00  0.00    +0.000 C 
ATOM      4  C   UNL     1      41.760   0.619  13.397  0.00  0.00    +0.000 C 
ATOM      5  C   UNL     1      41.541  -0.799  13.726  0.00  0.00    +0.000 A 
ATOM      6  C   UNL     1      42.254  -1.869  13.268  0.00  0.00    +0.000 A 
ATOM      7  N   UNL     1      41.727  -2.940  13.808  0.00  0.00    +0.000 NA
ATOM      8  C   UNL     1      40.688  -2.634  14.609  0.00  0.00    +0.000 A 
ATOM      9  C   UNL     1      39.814  -3.360  15.390  0.00  0.00    +0.000 A 
ATOM     10  C   UNL     1      38.820  -2.782  16.125  0.00  0.00    +0.000 A 
ATOM     11  C   UNL     1      38.668  -1.425  16.100  0.00  0.00    +0.000 A 
ATOM     12  C   UNL     1      39.538  -0.656  15.318  0.00  0.00    +0.000 A 
ATOM     13  C   UNL     1      40.529  -1.273  14.589  0.00  0.00    +0.000 A 
ENDROOT
BRANCH   1  17
ATOM     14  C   UNL     1      42.434  -4.567   9.257  0.00  0.00    +0.000 A 
ATOM     15  C   UNL     1      43.478  -4.813  10.117  0.00  0.00    +0.000 A 
ATOM     16  C   UNL     1      43.818  -3.870  11.100  0.00  0.00    +0.000 A 
ATOM     17  C   UNL     1      43.108  -2.715  11.189  0.00  0.00    +0.000 A 
ATOM     18  C   UNL     1      42.082  -2.506  10.320  0.00  0.00    +0.000 A 
ATOM     19  C   UNL     1      41.723  -3.417   9.341  0.00  0.00    +0.000 A 
BRANCH  14  21
ATOM     20  C   UNL     1      41.328  -6.637   8.651  0.00  0.00    +0.000 C 
ATOM     21  O   UNL     1      42.075  -5.500   8.263  0.00  0.00    +0.000 OA
ENDBRANCH  14  21
BRANCH  16  22
ATOM     22  O   UNL     1      44.878  -4.194  11.925  0.00  0.00    +0.000 OA
ATOM     23  C   UNL     1      45.937  -5.010  11.549  0.00  0.00    +0.000 C 
ENDBRANCH  16  22
BRANCH  19  24
ATOM     24  O   UNL     1      40.671  -3.175   8.470  0.00  0.00    +0.000 OA
ATOM     25  C   UNL     1      40.906  -2.339   7.329  0.00  0.00    +0.000 C 
ENDBRANCH  19  24
ENDBRANCH   1  17
BRANCH  11  26
ATOM     26  O   UNL     1      37.698  -0.778  16.808  0.00  0.00    +0.000 OA
BRANCH  26  27
ATOM     27  C   UNL     1      36.357  -0.853  16.457  0.00  0.00    +0.000 C 
BRANCH  27  28
ATOM     28  C   UNL     1      35.862   0.450  15.955  0.00  0.00    +0.000 A 
ATOM     29  C   UNL     1      36.207   0.786  14.655  0.00  0.00    +0.000 A 
ATOM     30  C   UNL     1      35.774   1.965  14.140  0.00  0.00    +0.000 A 
ATOM     31  C   UNL     1      34.998   2.823  14.904  0.00  0.00    +0.000 A 
ATOM     32  C   UNL     1      34.662   2.478  16.194  0.00  0.00    +0.000 A 
ATOM     33  C   UNL     1      35.100   1.293  16.703  0.00  0.00    +0.000 A 
ENDBRANCH  27  28
ENDBRANCH  26  27
ENDBRANCH  11  26
TORSDOF 7
ENDMDL
MODEL 8
REMARK VINA RESULT:      -7.0     26.413     30.040
REMARK  Name = 
REMARK  7 active torsions:
REMARK  status: ('A' for Active; 'I' for Inactive)
REMARK    1  A    between atoms: O_2  and  C_3
REMARK    2  A    between atoms: C_5  and  O_6
REMARK    3  A    between atoms: C_8  and  C_9
REMARK    4  A    between atoms: C_19  and  O_20
REMARK    5  A    between atoms: O_20  and  C_21
REMARK    6  A    between atoms: C_21  and  C_22
REMARK    7  A    between atoms: C_31  and  O_32
REMARK                            x       y       z     vdW  Elec       q    Type
REMARK                         _______ _______ _______ _____ _____    ______ ____
ROOT
ATOM      1  C   UNL     1      26.944  13.896  42.757  0.00  0.00    +0.000 C 
ATOM      2  N   UNL     1      28.473  14.073  42.362  0.00  0.00    +0.000 NA
ATOM      3  C   UNL     1      28.683  15.520  42.509  0.00  0.00    +0.000 C 
ATOM      4  C   UNL     1      28.282  16.117  41.182  0.00  0.00    +0.000 C 
ATOM      5  C   UNL     1      27.036  15.460  40.752  0.00  0.00    +0.000 A 
ATOM      6  C   UNL     1      26.371  14.459  41.396  0.00  0.00    +0.000 A 
ATOM      7  N   UNL     1      25.317  14.171  40.672  0.00  0.00    +0.000 NA
ATOM      8  C   UNL     1      25.248  14.939  39.568  0.00  0.00    +0.000 A 
ATOM      9  C   UNL     1      24.373  15.043  38.507  0.00  0.00    +0.000 A 
ATOM     10  C   UNL     1      24.544  15.934  37.489  0.00  0.00    +0.000 A 
ATOM     11  C   UNL     1      25.624  16.771  37.501  0.00  0.00    +0.000 A 
ATOM     12  C   UNL     1      26.533  16.693  38.563  0.00  0.00    +0.000 A 
ATOM     13  C   UNL     1      26.328  15.782  39.573  0.00  0.00    +0.000 A 
ENDROOT
BRANCH   1  17
ATOM     14  C   UNL     1      26.755   9.660  41.856  0.00  0.00    +0.000 A 
ATOM     15  C   UNL     1      25.912  10.191  42.804  0.00  0.00    +0.000 A 
ATOM     16  C   UNL     1      25.963  11.562  43.103  0.00  0.00    +0.000 A 
ATOM     17  C   UNL     1      26.852  12.354  42.449  0.00  0.00    +0.000 A 
ATOM     18  C   UNL     1      27.671  11.793  41.517  0.00  0.00    +0.000 A 
ATOM     19  C   UNL     1      27.643  10.445  41.200  0.00  0.00    +0.000 A 
BRANCH  14  21
ATOM     20  C   UNL     1      27.297   7.374  42.455  0.00  0.00    +0.000 C 
ATOM     21  O   UNL     1      26.721   8.286  41.539  0.00  0.00    +0.000 OA
ENDBRANCH  14  21
BRANCH  16  22
ATOM     22  O   UNL     1      25.084  12.016  44.067  0.00  0.00    +0.000 OA
ATOM     23  C   UNL     1      25.188  11.721  45.420  0.00  0.00    +0.000 C 
ENDBRANCH  16  22
BRANCH  19  24
ATOM     24  O   UNL     1      28.490   9.903  40.245  0.00  0.00    +0.000 OA
ATOM     25  C   UNL     1      29.806  10.454  40.106  0.00  0.00    +0.000 C 
ENDBRANCH  19  24
ENDBRANCH   1  17
BRANCH  11  26
ATOM     26  O   UNL     1      25.859  17.687  36.519  0.00  0.00    +0.000 OA
BRANCH  26  27
ATOM     27  C   UNL     1      26.747  17.438  35.480  0.00  0.00    +0.000 C 
BRANCH  27  28
ATOM     28  C   UNL     1      26.123  16.595  34.434  0.00  0.00    +0.000 A 
ATOM     29  C   UNL     1      26.467  15.251  34.433  0.00  0.00    +0.000 A 
ATOM     30  C   UNL     1      25.919  14.430  33.501  0.00  0.00    +0.000 A 
ATOM     31  C   UNL     1      25.028  14.926  32.564  0.00  0.00    +0.000 A 
ATOM     32  C   UNL     1      24.694  16.261  32.574  0.00  0.00    +0.000 A 
ATOM     33  C   UNL     1      25.248  17.080  33.513  0.00  0.00    +0.000 A 
ENDBRANCH  27  28
ENDBRANCH  26  27
ENDBRANCH  11  26
TORSDOF 7
ENDMDL
MODEL 9
REMARK VINA RESULT:      -6.9      3.957     10.296
REMARK  Name = 
REMARK  7 active torsions:
REMARK  status: ('A' for Active; 'I' for Inactive)
REMARK    1  A    between atoms: O_2  and  C_3
REMARK    2  A    between atoms: C_5  and  O_6
REMARK    3  A    between atoms: C_8  and  C_9
REMARK    4  A    between atoms: C_19  and  O_20
REMARK    5  A    between atoms: O_20  and  C_21
REMARK    6  A    between atoms: C_21  and  C_22
REMARK    7  A    between atoms: C_31  and  O_32
REMARK                            x       y       z     vdW  Elec       q    Type
REMARK                         _______ _______ _______ _____ _____    ______ ____
ROOT
ATOM      1  C   UNL     1      44.057   7.960  19.644  0.00  0.00    +0.000 C 
ATOM      2  N   UNL     1      44.979   7.046  18.726  0.00  0.00    +0.000 NA
ATOM      3  C   UNL     1      44.776   7.617  17.387  0.00  0.00    +0.000 C 
ATOM      4  C   UNL     1      43.556   6.918  16.839  0.00  0.00    +0.000 C 
ATOM      5  C   UNL     1      42.554   6.851  17.916  0.00  0.00    +0.000 A 
ATOM      6  C   UNL     1      42.695   7.293  19.198  0.00  0.00    +0.000 A 
ATOM      7  N   UNL     1      41.569   7.040  19.817  0.00  0.00    +0.000 NA
ATOM      8  C   UNL     1      40.676   6.445  19.002  0.00  0.00    +0.000 A 
ATOM      9  C   UNL     1      39.384   5.984  19.144  0.00  0.00    +0.000 A 
ATOM     10  C   UNL     1      38.688   5.404  18.125  0.00  0.00    +0.000 A 
ATOM     11  C   UNL     1      39.277   5.264  16.901  0.00  0.00    +0.000 A 
ATOM     12  C   UNL     1      40.588   5.722  16.720  0.00  0.00    +0.000 A 
ATOM     13  C   UNL     1      41.261   6.302  17.771  0.00  0.00    +0.000 A 
ENDROOT
BRANCH   1  17
ATOM     14  C   UNL     1      44.741   5.724  23.295  0.00  0.00    +0.000 A 
ATOM     15  C   UNL     1      44.264   7.012  23.366  0.00  0.00    +0.000 A 
ATOM     16  C   UNL     1      44.037   7.745  22.190  0.00  0.00    +0.000 A 
ATOM     17  C   UNL     1      44.295   7.170  20.986  0.00  0.00    +0.000 A 
ATOM     18  C   UNL     1      44.767   5.894  20.955  0.00  0.00    +0.000 A 
ATOM     19  C   UNL     1      45.000   5.147  22.097  0.00  0.00    +0.000 A 
BRANCH  14  21
ATOM     20  C   UNL     1      44.328   5.363  25.656  0.00  0.00    +0.000 C 
ATOM     21  O   UNL     1      44.977   4.969  24.461  0.00  0.00    +0.000 OA
ENDBRANCH  14  21
BRANCH  16  22
ATOM     22  O   UNL     1      43.557   9.031  22.348  0.00  0.00    +0.000 OA
ATOM     23  C   UNL     1      44.027   9.927  23.299  0.00  0.00    +0.000 C 
ENDBRANCH  16  22
BRANCH  19  24
ATOM     24  O   UNL     1      45.480   3.847  22.032  0.00  0.00    +0.000 OA
ATOM     25  C   UNL     1      46.809   3.633  21.537  0.00  0.00    +0.000 C 
ENDBRANCH  19  24
ENDBRANCH   1  17
BRANCH  11  26
ATOM     26  O   UNL     1      38.643   4.695  15.836  0.00  0.00    +0.000 OA
BRANCH  26  27
ATOM     27  C   UNL     1      37.261   4.568  15.787  0.00  0.00    +0.000 C 
BRANCH  27  28
ATOM     28  C   UNL     1      36.855   3.143  15.798  0.00  0.00    +0.000 A 
ATOM     29  C   UNL     1      37.640   2.268  15.061  0.00  0.00    +0.000 A 
ATOM     30  C   UNL     1      37.319   0.949  15.042  0.00  0.00    +0.000 A 
ATOM     31  C   UNL     1      36.222   0.482  15.748  0.00  0.00    +0.000 A 
ATOM     32  C   UNL     1      35.450   1.360  16.474  0.00  0.00    +0.000 A 
ATOM     33  C   UNL     1      35.778   2.683  16.490  0.00  0.00    +0.000 A 
ENDBRANCH  27  28
ENDBRANCH  26  27
ENDBRANCH  11  26
TORSDOF 7
ENDMDL
MODEL 10
REMARK VINA RESULT:      -6.9      2.569      4.272
REMARK  Name = 
REMARK  7 active torsions:
REMARK  status: ('A' for Active; 'I' for Inactive)
REMARK    1  A    between atoms: O_2  and  C_3
REMARK    2  A    between atoms: C_5  and  O_6
REMARK    3  A    between atoms: C_8  and  C_9
REMARK    4  A    between atoms: C_19  and  O_20
REMARK    5  A    between atoms: O_20  and  C_21
REMARK    6  A    between atoms: C_21  and  C_22
REMARK    7  A    between atoms: C_31  and  O_32
REMARK                            x       y       z     vdW  Elec       q    Type
REMARK                         _______ _______ _______ _____ _____    ______ ____
ROOT
ATOM      1  C   UNL     1      40.343  -2.696  13.789  0.00  0.00    +0.000 C 
ATOM      2  N   UNL     1      40.516  -2.736  15.369  0.00  0.00    +0.000 NA
ATOM      3  C   UNL     1      39.129  -2.691  15.851  0.00  0.00    +0.000 C 
ATOM      4  C   UNL     1      38.785  -1.225  15.936  0.00  0.00    +0.000 C 
ATOM      5  C   UNL     1      39.304  -0.570  14.724  0.00  0.00    +0.000 A 
ATOM      6  C   UNL     1      40.011  -1.153  13.714  0.00  0.00    +0.000 A 
ATOM      7  N   UNL     1      40.273  -0.214  12.838  0.00  0.00    +0.000 NA
ATOM      8  C   UNL     1      39.771   0.976  13.219  0.00  0.00    +0.000 A 
ATOM      9  C   UNL     1      39.762   2.246  12.682  0.00  0.00    +0.000 A 
ATOM     10  C   UNL     1      39.162   3.306  13.296  0.00  0.00    +0.000 A 
ATOM     11  C   UNL     1      38.535   3.123  14.495  0.00  0.00    +0.000 A 
ATOM     12  C   UNL     1      38.524   1.847  15.070  0.00  0.00    +0.000 A 
ATOM     13  C   UNL     1      39.140   0.800  14.423  0.00  0.00    +0.000 A 
ENDROOT
BRANCH   1  17
ATOM     14  C   UNL     1      44.582  -2.510  12.899  0.00  0.00    +0.000 A 
ATOM     15  C   UNL     1      43.713  -3.024  11.965  0.00  0.00    +0.000 A 
ATOM     16  C   UNL     1      42.338  -3.088  12.241  0.00  0.00    +0.000 A 
ATOM     17  C   UNL     1      41.877  -2.639  13.439  0.00  0.00    +0.000 A 
ATOM     18  C   UNL     1      42.767  -2.138  14.339  0.00  0.00    +0.000 A 
ATOM     19  C   UNL     1      44.128  -2.062  14.094  0.00  0.00    +0.000 A 
BRANCH  14  21
ATOM     20  C   UNL     1      46.388  -2.076  11.341  0.00  0.00    +0.000 C 
ATOM     21  O   UNL     1      45.966  -2.436  12.643  0.00  0.00    +0.000 OA
ENDBRANCH  14  21
BRANCH  16  22
ATOM     22  O   UNL     1      41.533  -3.616  11.250  0.00  0.00    +0.000 OA
ATOM     23  C   UNL     1      41.070  -2.898  10.156  0.00  0.00    +0.000 C 
ENDBRANCH  16  22
BRANCH  19  24
ATOM     24  O   UNL     1      45.009  -1.545  15.032  0.00  0.00    +0.000 OA
ATOM     25  C   UNL     1      45.495  -2.412  16.065  0.00  0.00    +0.000 C 
ENDBRANCH  19  24
ENDBRANCH   1  17
BRANCH  11  26
ATOM     26  O   UNL     1      37.914   4.136  15.166  0.00  0.00    +0.000 OA
BRANCH  26  27
ATOM     27  C   UNL     1      37.836   4.159  16.552  0.00  0.00    +0.000 C 
BRANCH  27  28
ATOM     28  C   UNL     1      38.923   4.982  17.134  0.00  0.00    +0.000 A 
ATOM     29  C   UNL     1      38.931   5.113  18.515  0.00  0.00    +0.000 A 
ATOM     30  C   UNL     1      39.908   5.848  19.104  0.00  0.00    +0.000 A 
ATOM     31  C   UNL     1      40.885   6.462  18.336  0.00  0.00    +0.000 A 
ATOM     32  C   UNL     1      40.866   6.325  16.966  0.00  0.00    +0.000 A 
ATOM     33  C   UNL     1      39.883   5.584  16.382  0.00  0.00    +0.000 A 
ENDBRANCH  27  28
ENDBRANCH  26  27
ENDBRANCH  11  26
TORSDOF 7
ENDMDL
