MODEL 1
REMARK VINA RESULT:      -8.3      0.000      0.000
REMARK  Name = 
REMARK  7 active torsions:
REMARK  status: ('A' for Active; 'I' for Inactive)
REMARK    1  A    between atoms: C_5  and  C_6
REMARK    2  A    between atoms: C_9  and  S_10
REMARK    3  A    between atoms: S_10  and  C_11
REMARK    4  A    between atoms: C_11  and  C_12
REMARK    5  A    between atoms: C_15  and  C_16
REMARK    6  A    between atoms: N_18  and  C_19
REMARK    7  A    between atoms: C_19  and  C_21
REMARK                            x       y       z     vdW  Elec       q    Type
REMARK                         _______ _______ _______ _____ _____    ______ ____
ROOT
ATOM      1  C   UNL     1      35.299   4.079  14.538  0.00  0.00    +0.000 C 
ENDROOT
BRANCH   1   2
ATOM      2  C   UNL     1      35.381   2.670  15.014  0.00  0.00    +0.000 A 
ATOM      3  C   UNL     1      36.037   1.661  14.384  0.00  0.00    +0.000 A 
ATOM      4  C   UNL     1      36.067   0.396  14.907  0.00  0.00    +0.000 A 
ATOM      5  C   UNL     1      35.427   0.078  16.107  0.00  0.00    +0.000 A 
ATOM      6  C   UNL     1      34.777   1.136  16.704  0.00  0.00    +0.000 A 
ATOM      7  C   UNL     1      34.739   2.403  16.195  0.00  0.00    +0.000 A 
BRANCH   5   8
ATOM      8  C   UNL     1      35.441  -1.258  16.676  0.00  0.00    +0.000 C 
ATOM      9  O   UNL     1      34.896  -1.433  17.791  0.00  0.00    +0.000 OA
ATOM     10  N   UNL     1      36.017  -2.292  16.041  0.00  0.00    +0.000 NA
BRANCH  10  11
ATOM     11  C   UNL     1      36.069  -3.752  16.598  0.00  0.00    +0.000 C 
ATOM     12  C   UNL     1      37.696  -3.993  16.555  0.00  0.00    +0.000 C 
BRANCH  11  13
ATOM     13  C   UNL     1      35.789  -4.426  15.120  0.00  0.00    +0.000 C 
ATOM     14  C   UNL     1      34.383  -4.192  14.752  0.00  0.00    +0.000 C 
ATOM     15  C   UNL     1      36.729  -3.613  14.253  0.00  0.00    +0.000 C 
ENDBRANCH  11  13
ENDBRANCH  10  11
ENDBRANCH   5   8
ENDBRANCH   1   2
BRANCH   1  16
ATOM     16  S   UNL     1      36.896   4.390  13.747  0.00  0.00    +0.000 S 
BRANCH  16  20
ATOM     17  C   UNL     1      39.720   5.687  17.139  0.00  0.00    +0.000 A 
ATOM     18  C   UNL     1      38.678   4.803  17.358  0.00  0.00    +0.000 A 
ATOM     19  C   UNL     1      37.808   4.399  16.372  0.00  0.00    +0.000 A 
ATOM     20  C   UNL     1      37.990   4.908  15.090  0.00  0.00    +0.000 A 
ATOM     21  N   UNL     1      39.005   5.757  14.912  0.00  0.00    +0.000 NA
ATOM     22  N   UNL     1      39.819   6.126  15.876  0.00  0.00    +0.000 NA
BRANCH  17  27
ATOM     23  C   UNL     1      43.429   7.244  21.166  0.00  0.00    +0.000 C 
ATOM     24  C   UNL     1      42.470   6.850  20.102  0.00  0.00    +0.000 A 
ATOM     25  C   UNL     1      41.183   6.479  20.441  0.00  0.00    +0.000 A 
ATOM     26  C   UNL     1      40.251   6.097  19.476  0.00  0.00    +0.000 A 
ATOM     27  C   UNL     1      40.666   6.106  18.168  0.00  0.00    +0.000 A 
ATOM     28  C   UNL     1      41.945   6.479  17.863  0.00  0.00    +0.000 A 
ATOM     29  C   UNL     1      42.889   6.860  18.782  0.00  0.00    +0.000 A 
ENDBRANCH  17  27
ENDBRANCH  16  20
ENDBRANCH   1  16
TORSDOF 7
ENDMDL
MODEL 2
REMARK VINA RESULT:      -8.0      1.175      1.477
REMARK  Name = 
REMARK  7 active torsions:
REMARK  status: ('A' for Active; 'I' for Inactive)
REMARK    1  A    between atoms: C_5  and  C_6
REMARK    2  A    between atoms: C_9  and  S_10
REMARK    3  A    between atoms: S_10  and  C_11
REMARK    4  A    between atoms: C_11  and  C_12
REMARK    5  A    between atoms: C_15  and  C_16
REMARK    6  A    between atoms: N_18  and  C_19
REMARK    7  A    between atoms: C_19  and  C_21
REMARK                            x       y       z     vdW  Elec       q    Type
REMARK                         _______ _______ _______ _____ _____    ______ ____
ROOT
ATOM      1  C   UNL     1      35.274   4.518  14.090  0.00  0.00    +0.000 C 
ENDROOT
BRANCH   1   2
ATOM      2  C   UNL     1      35.366   3.160  14.695  0.00  0.00    +0.000 A 
ATOM      3  C   UNL     1      35.957   2.079  14.123  0.00  0.00    +0.000 A 
ATOM      4  C   UNL     1      36.003   0.870  14.764  0.00  0.00    +0.000 A 
ATOM      5  C   UNL     1      35.447   0.686  16.033  0.00  0.00    +0.000 A 
ATOM      6  C   UNL     1      34.862   1.813  16.568  0.00  0.00    +0.000 A 
ATOM      7  C   UNL     1      34.808   3.025  15.940  0.00  0.00    +0.000 A 
BRANCH   5   8
ATOM      8  C   UNL     1      35.480  -0.589  16.728  0.00  0.00    +0.000 C 
ATOM      9  O   UNL     1      34.399  -1.058  17.155  0.00  0.00    +0.000 OA
ATOM     10  N   UNL     1      36.626  -1.262  16.919  0.00  0.00    +0.000 NA
BRANCH  10  11
ATOM     11  C   UNL     1      36.731  -2.635  17.660  0.00  0.00    +0.000 C 
ATOM     12  C   UNL     1      37.258  -2.105  19.125  0.00  0.00    +0.000 C 
BRANCH  11  13
ATOM     13  C   UNL     1      38.239  -2.945  17.072  0.00  0.00    +0.000 C 
ATOM     14  C   UNL     1      38.632  -4.306  17.471  0.00  0.00    +0.000 C 
ATOM     15  C   UNL     1      37.986  -2.859  15.581  0.00  0.00    +0.000 C 
ENDBRANCH  11  13
ENDBRANCH  10  11
ENDBRANCH   5   8
ENDBRANCH   1   2
BRANCH   1  16
ATOM     16  S   UNL     1      36.912   4.817  13.382  0.00  0.00    +0.000 S 
BRANCH  16  20
ATOM     17  C   UNL     1      39.644   5.792  16.953  0.00  0.00    +0.000 A 
ATOM     18  C   UNL     1      38.995   4.574  16.844  0.00  0.00    +0.000 A 
ATOM     19  C   UNL     1      38.164   4.249  15.797  0.00  0.00    +0.000 A 
ATOM     20  C   UNL     1      37.970   5.198  14.798  0.00  0.00    +0.000 A 
ATOM     21  N   UNL     1      38.611   6.362  14.932  0.00  0.00    +0.000 NA
ATOM     22  N   UNL     1      39.398   6.643  15.946  0.00  0.00    +0.000 NA
BRANCH  17  27
ATOM     23  C   UNL     1      43.184   7.077  21.220  0.00  0.00    +0.000 C 
ATOM     24  C   UNL     1      42.271   6.754  20.094  0.00  0.00    +0.000 A 
ATOM     25  C   UNL     1      40.951   6.436  20.351  0.00  0.00    +0.000 A 
ATOM     26  C   UNL     1      40.058   6.121  19.326  0.00  0.00    +0.000 A 
ATOM     27  C   UNL     1      40.547   6.141  18.044  0.00  0.00    +0.000 A 
ATOM     28  C   UNL     1      41.858   6.461  17.821  0.00  0.00    +0.000 A 
ATOM     29  C   UNL     1      42.764   6.775  18.800  0.00  0.00    +0.000 A 
ENDBRANCH  17  27
ENDBRANCH  16  20
ENDBRANCH   1  16
TORSDOF 7
ENDMDL
MODEL 3
REMARK VINA RESULT:      -7.8      2.626      9.851
REMARK  Name = 
REMARK  7 active torsions:
REMARK  status: ('A' for Active; 'I' for Inactive)
REMARK    1  A    between atoms: C_5  and  C_6
REMARK    2  A    between atoms: C_9  and  S_10
REMARK    3  A    between atoms: S_10  and  C_11
REMARK    4  A    between atoms: C_11  and  C_12
REMARK    5  A    between atoms: C_15  and  C_16
REMARK    6  A    between atoms: N_18  and  C_19
REMARK    7  A    between atoms: C_19  and  C_21
REMARK                            x       y       z     vdW  Elec       q    Type
REMARK                         _______ _______ _______ _____ _____    ______ ____
ROOT
ATOM      1  C   UNL     1      38.499   4.452  14.777  0.00  0.00    +0.000 C 
ENDROOT
BRANCH   1   2
ATOM      2  C   UNL     1      39.008   4.926  16.094  0.00  0.00    +0.000 A 
ATOM      3  C   UNL     1      38.438   4.669  17.299  0.00  0.00    +0.000 A 
ATOM      4  C   UNL     1      38.989   5.139  18.461  0.00  0.00    +0.000 A 
ATOM      5  C   UNL     1      40.157   5.905  18.468  0.00  0.00    +0.000 A 
ATOM      6  C   UNL     1      40.694   6.136  17.221  0.00  0.00    +0.000 A 
ATOM      7  C   UNL     1      40.156   5.674  16.053  0.00  0.00    +0.000 A 
BRANCH   5   8
ATOM      8  C   UNL     1      40.754   6.419  19.689  0.00  0.00    +0.000 C 
ATOM      9  O   UNL     1      39.995   6.914  20.555  0.00  0.00    +0.000 OA
ATOM     10  N   UNL     1      42.078   6.374  19.903  0.00  0.00    +0.000 NA
BRANCH  10  11
ATOM     11  C   UNL     1      42.783   6.911  21.192  0.00  0.00    +0.000 C 
ATOM     12  C   UNL     1      43.087   8.452  20.704  0.00  0.00    +0.000 C 
BRANCH  11  13
ATOM     13  C   UNL     1      44.258   6.328  20.741  0.00  0.00    +0.000 C 
ATOM     14  C   UNL     1      44.557   6.800  19.379  0.00  0.00    +0.000 C 
ATOM     15  C   UNL     1      45.153   6.997  21.766  0.00  0.00    +0.000 C 
ENDBRANCH  11  13
ENDBRANCH  10  11
ENDBRANCH   5   8
ENDBRANCH   1   2
BRANCH   1  16
ATOM     16  S   UNL     1      36.792   3.945  15.100  0.00  0.00    +0.000 S 
BRANCH  16  20
ATOM     17  C   UNL     1      37.064  -0.550  16.040  0.00  0.00    +0.000 A 
ATOM     18  C   UNL     1      35.879   0.152  16.176  0.00  0.00    +0.000 A 
ATOM     19  C   UNL     1      35.760   1.498  15.914  0.00  0.00    +0.000 A 
ATOM     20  C   UNL     1      36.894   2.183  15.488  0.00  0.00    +0.000 A 
ATOM     21  N   UNL     1      38.020   1.477  15.365  0.00  0.00    +0.000 NA
ATOM     22  N   UNL     1      38.102   0.191  15.625  0.00  0.00    +0.000 NA
BRANCH  17  27
ATOM     23  C   UNL     1      37.566  -6.120  17.091  0.00  0.00    +0.000 C 
ATOM     24  C   UNL     1      37.424  -4.671  16.800  0.00  0.00    +0.000 A 
ATOM     25  C   UNL     1      38.435  -3.798  17.154  0.00  0.00    +0.000 A 
ATOM     26  C   UNL     1      38.343  -2.428  16.905  0.00  0.00    +0.000 A 
ATOM     27  C   UNL     1      37.200  -1.980  16.290  0.00  0.00    +0.000 A 
ATOM     28  C   UNL     1      36.217  -2.869  15.951  0.00  0.00    +0.000 A 
ATOM     29  C   UNL     1      36.271  -4.219  16.180  0.00  0.00    +0.000 A 
ENDBRANCH  17  27
ENDBRANCH  16  20
ENDBRANCH   1  16
TORSDOF 7
ENDMDL
MODEL 4
REMARK VINA RESULT:      -7.7      2.144      2.993
REMARK  Name = 
REMARK  7 active torsions:
REMARK  status: ('A' for Active; 'I' for Inactive)
REMARK    1  A    between atoms: C_5  and  C_6
REMARK    2  A    between atoms: C_9  and  S_10
REMARK    3  A    between atoms: S_10  and  C_11
REMARK    4  A    between atoms: C_11  and  C_12
REMARK    5  A    between atoms: C_15  and  C_16
REMARK    6  A    between atoms: N_18  and  C_19
REMARK    7  A    between atoms: C_19  and  C_21
REMARK                            x       y       z     vdW  Elec       q    Type
REMARK                         _______ _______ _______ _____ _____    ______ ____
ROOT
ATOM      1  C   UNL     1      37.664   3.307  12.239  0.00  0.00    +0.000 C 
ENDROOT
BRANCH   1   2
ATOM      2  C   UNL     1      37.974   2.130  13.097  0.00  0.00    +0.000 A 
ATOM      3  C   UNL     1      37.075   1.203  13.520  0.00  0.00    +0.000 A 
ATOM      4  C   UNL     1      37.458   0.145  14.300  0.00  0.00    +0.000 A 
ATOM      5  C   UNL     1      38.784  -0.035  14.701  0.00  0.00    +0.000 A 
ATOM      6  C   UNL     1      39.654   0.932  14.245  0.00  0.00    +0.000 A 
ATOM      7  C   UNL     1      39.286   1.993  13.467  0.00  0.00    +0.000 A 
BRANCH   5   8
ATOM      8  C   UNL     1      39.210  -1.147  15.533  0.00  0.00    +0.000 C 
ATOM      9  O   UNL     1      40.322  -1.673  15.294  0.00  0.00    +0.000 OA
ATOM     10  N   UNL     1      38.448  -1.613  16.535  0.00  0.00    +0.000 NA
BRANCH  10  11
ATOM     11  C   UNL     1      38.846  -2.806  17.465  0.00  0.00    +0.000 C 
ATOM     12  C   UNL     1      38.169  -4.041  16.615  0.00  0.00    +0.000 C 
BRANCH  11  13
ATOM     13  C   UNL     1      37.547  -2.589  18.457  0.00  0.00    +0.000 C 
ATOM     14  C   UNL     1      37.651  -1.265  19.091  0.00  0.00    +0.000 C 
ATOM     15  C   UNL     1      36.413  -2.632  17.453  0.00  0.00    +0.000 C 
ENDBRANCH  11  13
ENDBRANCH  10  11
ENDBRANCH   5   8
ENDBRANCH   1   2
BRANCH   1  16
ATOM     16  S   UNL     1      36.615   4.363  13.268  0.00  0.00    +0.000 S 
BRANCH  16  20
ATOM     17  C   UNL     1      39.319   5.574  16.787  0.00  0.00    +0.000 A 
ATOM     18  C   UNL     1      38.316   4.630  16.930  0.00  0.00    +0.000 A 
ATOM     19  C   UNL     1      37.483   4.248  15.904  0.00  0.00    +0.000 A 
ATOM     20  C   UNL     1      37.661   4.846  14.661  0.00  0.00    +0.000 A 
ATOM     21  N   UNL     1      38.636   5.751  14.555  0.00  0.00    +0.000 NA
ATOM     22  N   UNL     1      39.417   6.096  15.556  0.00  0.00    +0.000 NA
BRANCH  17  27
ATOM     23  C   UNL     1      42.843   7.199  20.949  0.00  0.00    +0.000 C 
ATOM     24  C   UNL     1      41.914   6.763  19.877  0.00  0.00    +0.000 A 
ATOM     25  C   UNL     1      42.358   6.692  18.570  0.00  0.00    +0.000 A 
ATOM     26  C   UNL     1      41.520   6.293  17.530  0.00  0.00    +0.000 A 
ATOM     27  C   UNL     1      40.226   5.971  17.858  0.00  0.00    +0.000 A 
ATOM     28  C   UNL     1      39.816   6.049  19.160  0.00  0.00    +0.000 A 
ATOM     29  C   UNL     1      40.609   6.438  20.209  0.00  0.00    +0.000 A 
ENDBRANCH  17  27
ENDBRANCH  16  20
ENDBRANCH   1  16
TORSDOF 7
ENDMDL
MODEL 5
REMARK VINA RESULT:      -7.7      3.433     10.386
REMARK  Name = 
REMARK  7 active torsions:
REMARK  status: ('A' for Active; 'I' for Inactive)
REMARK    1  A    between atoms: C_5  and  C_6
REMARK    2  A    between atoms: C_9  and  S_10
REMARK    3  A    between atoms: S_10  and  C_11
REMARK    4  A    between atoms: C_11  and  C_12
REMARK    5  A    between atoms: C_15  and  C_16
REMARK    6  A    between atoms: N_18  and  C_19
REMARK    7  A    between atoms: C_19  and  C_21
REMARK                            x       y       z     vdW  Elec       q    Type
REMARK                         _______ _______ _______ _____ _____    ______ ____
ROOT
ATOM      1  C   UNL     1      38.451   5.740  17.923  0.00  0.00    +0.000 C 
ENDROOT
BRANCH   1   2
ATOM      2  C   UNL     1      39.826   6.096  18.372  0.00  0.00    +0.000 A 
ATOM      3  C   UNL     1      40.908   6.239  17.564  0.00  0.00    +0.000 A 
ATOM      4  C   UNL     1      42.133   6.582  18.069  0.00  0.00    +0.000 A 
ATOM      5  C   UNL     1      42.334   6.800  19.434  0.00  0.00    +0.000 A 
ATOM      6  C   UNL     1      41.206   6.643  20.209  0.00  0.00    +0.000 A 
ATOM      7  C   UNL     1      39.977   6.302  19.719  0.00  0.00    +0.000 A 
BRANCH   5   8
ATOM      8  C   UNL     1      43.627   7.159  19.992  0.00  0.00    +0.000 C 
ATOM      9  O   UNL     1      44.068   8.311  19.771  0.00  0.00    +0.000 OA
ATOM     10  N   UNL     1      44.346   6.294  20.725  0.00  0.00    +0.000 NA
BRANCH  10  11
ATOM     11  C   UNL     1      45.743   6.615  21.351  0.00  0.00    +0.000 C 
ATOM     12  C   UNL     1      46.646   5.479  20.575  0.00  0.00    +0.000 C 
BRANCH  11  13
ATOM     13  C   UNL     1      45.464   5.686  22.684  0.00  0.00    +0.000 C 
ATOM     14  C   UNL     1      44.364   6.285  23.457  0.00  0.00    +0.000 C 
ATOM     15  C   UNL     1      45.039   4.383  22.038  0.00  0.00    +0.000 C 
ENDBRANCH  11  13
ENDBRANCH  10  11
ENDBRANCH   5   8
ENDBRANCH   1   2
BRANCH   1  16
ATOM     16  S   UNL     1      38.632   5.334  16.169  0.00  0.00    +0.000 S 
BRANCH  16  20
ATOM     17  C   UNL     1      36.860   1.107  15.776  0.00  0.00    +0.000 A 
ATOM     18  C   UNL     1      37.728   1.623  14.829  0.00  0.00    +0.000 A 
ATOM     19  C   UNL     1      38.271   2.885  14.907  0.00  0.00    +0.000 A 
ATOM     20  C   UNL     1      37.927   3.678  15.997  0.00  0.00    +0.000 A 
ATOM     21  N   UNL     1      37.089   3.151  16.893  0.00  0.00    +0.000 NA
ATOM     22  N   UNL     1      36.586   1.941  16.790  0.00  0.00    +0.000 NA
BRANCH  17  27
ATOM     23  C   UNL     1      34.721  -4.164  15.604  0.00  0.00    +0.000 C 
ATOM     24  C   UNL     1      35.262  -2.782  15.656  0.00  0.00    +0.000 A 
ATOM     25  C   UNL     1      36.229  -2.389  14.751  0.00  0.00    +0.000 A 
ATOM     26  C   UNL     1      36.769  -1.103  14.765  0.00  0.00    +0.000 A 
ATOM     27  C   UNL     1      36.297  -0.237  15.721  0.00  0.00    +0.000 A 
ATOM     28  C   UNL     1      35.338  -0.655  16.602  0.00  0.00    +0.000 A 
ATOM     29  C   UNL     1      34.785  -1.909  16.620  0.00  0.00    +0.000 A 
ENDBRANCH  17  27
ENDBRANCH  16  20
ENDBRANCH   1  16
TORSDOF 7
ENDMDL
MODEL 6
REMARK VINA RESULT:      -7.7      6.829     11.550
REMARK  Name = 
REMARK  7 active torsions:
REMARK  status: ('A' for Active; 'I' for Inactive)
REMARK    1  A    between atoms: C_5  and  C_6
REMARK    2  A    between atoms: C_9  and  S_10
REMARK    3  A    between atoms: S_10  and  C_11
REMARK    4  A    between atoms: C_11  and  C_12
REMARK    5  A    between atoms: C_15  and  C_16
REMARK    6  A    between atoms: N_18  and  C_19
REMARK    7  A    between atoms: C_19  and  C_21
REMARK                            x       y       z     vdW  Elec       q    Type
REMARK                         _______ _______ _______ _____ _____    ______ ____
ROOT
ATOM      1  C   UNL     1      45.877   7.074  23.436  0.00  0.00    +0.000 C 
ENDROOT
BRANCH   1   2
ATOM      2  C   UNL     1      44.974   6.909  22.263  0.00  0.00    +0.000 A 
ATOM      3  C   UNL     1      43.735   6.353  22.294  0.00  0.00    +0.000 A 
ATOM      4  C   UNL     1      42.971   6.255  21.162  0.00  0.00    +0.000 A 
ATOM      5  C   UNL     1      43.423   6.719  19.924  0.00  0.00    +0.000 A 
ATOM      6  C   UNL     1      44.683   7.274  19.949  0.00  0.00    +0.000 A 
ATOM      7  C   UNL     1      45.457   7.378  21.070  0.00  0.00    +0.000 A 
BRANCH   5   8
ATOM      8  C   UNL     1      42.630   6.620  18.710  0.00  0.00    +0.000 C 
ATOM      9  O   UNL     1      43.233   6.576  17.612  0.00  0.00    +0.000 OA
ATOM     10  N   UNL     1      41.289   6.575  18.742  0.00  0.00    +0.000 NA
BRANCH  10  11
ATOM     11  C   UNL     1      40.378   6.471  17.475  0.00  0.00    +0.000 C 
ATOM     12  C   UNL     1      40.077   8.070  17.234  0.00  0.00    +0.000 C 
BRANCH  11  13
ATOM     13  C   UNL     1      39.014   6.203  18.361  0.00  0.00    +0.000 C 
ATOM     14  C   UNL     1      38.725   4.760  18.359  0.00  0.00    +0.000 C 
ATOM     15  C   UNL     1      39.467   6.674  19.728  0.00  0.00    +0.000 C 
ENDBRANCH  11  13
ENDBRANCH  10  11
ENDBRANCH   5   8
ENDBRANCH   1   2
BRANCH   1  16
ATOM     16  S   UNL     1      45.884   5.454  24.242  0.00  0.00    +0.000 S 
BRANCH  16  20
ATOM     17  C   UNL     1      42.553   5.684  27.407  0.00  0.00    +0.000 A 
ATOM     18  C   UNL     1      43.197   6.819  26.944  0.00  0.00    +0.000 A 
ATOM     19  C   UNL     1      44.203   6.789  26.006  0.00  0.00    +0.000 A 
ATOM     20  C   UNL     1      44.588   5.552  25.499  0.00  0.00    +0.000 A 
ATOM     21  N   UNL     1      43.947   4.478  25.965  0.00  0.00    +0.000 NA
ATOM     22  N   UNL     1      42.990   4.538  26.864  0.00  0.00    +0.000 NA
BRANCH  17  27
ATOM     23  C   UNL     1      38.374   5.772  31.270  0.00  0.00    +0.000 C 
ATOM     24  C   UNL     1      39.454   5.762  30.250  0.00  0.00    +0.000 A 
ATOM     25  C   UNL     1      40.258   4.646  30.114  0.00  0.00    +0.000 A 
ATOM     26  C   UNL     1      41.287   4.593  29.173  0.00  0.00    +0.000 A 
ATOM     27  C   UNL     1      41.469   5.700  28.383  0.00  0.00    +0.000 A 
ATOM     28  C   UNL     1      40.656   6.789  28.540  0.00  0.00    +0.000 A 
ATOM     29  C   UNL     1      39.637   6.879  29.452  0.00  0.00    +0.000 A 
ENDBRANCH  17  27
ENDBRANCH  16  20
ENDBRANCH   1  16
TORSDOF 7
ENDMDL
MODEL 7
REMARK VINA RESULT:      -7.7      1.851      2.593
REMARK  Name = 
REMARK  7 active torsions:
REMARK  status: ('A' for Active; 'I' for Inactive)
REMARK    1  A    between atoms: C_5  and  C_6
REMARK    2  A    between atoms: C_9  and  S_10
REMARK    3  A    between atoms: S_10  and  C_11
REMARK    4  A    between atoms: C_11  and  C_12
REMARK    5  A    between atoms: C_15  and  C_16
REMARK    6  A    between atoms: N_18  and  C_19
REMARK    7  A    between atoms: C_19  and  C_21
REMARK                            x       y       z     vdW  Elec       q    Type
REMARK                         _______ _______ _______ _____ _____    ______ ____
ROOT
ATOM      1  C   UNL     1      35.323   4.940  13.923  0.00  0.00    +0.000 C 
ENDROOT
BRANCH   1   2
ATOM      2  C   UNL     1      35.879   3.650  14.416  0.00  0.00    +0.000 A 
ATOM      3  C   UNL     1      35.750   3.166  15.679  0.00  0.00    +0.000 A 
ATOM      4  C   UNL     1      36.288   1.959  16.037  0.00  0.00    +0.000 A 
ATOM      5  C   UNL     1      36.994   1.167  15.129  0.00  0.00    +0.000 A 
ATOM      6  C   UNL     1      37.095   1.702  13.864  0.00  0.00    +0.000 A 
ATOM      7  C   UNL     1      36.564   2.905  13.492  0.00  0.00    +0.000 A 
BRANCH   5   8
ATOM      8  C   UNL     1      37.578  -0.113  15.490  0.00  0.00    +0.000 C 
ATOM      9  O   UNL     1      38.367  -0.653  14.681  0.00  0.00    +0.000 OA
ATOM     10  N   UNL     1      37.291  -0.719  16.654  0.00  0.00    +0.000 NA
BRANCH  10  11
ATOM     11  C   UNL     1      37.882  -2.096  17.102  0.00  0.00    +0.000 C 
ATOM     12  C   UNL     1      36.479  -2.924  17.329  0.00  0.00    +0.000 C 
BRANCH  11  13
ATOM     13  C   UNL     1      38.026  -1.629  18.676  0.00  0.00    +0.000 C 
ATOM     14  C   UNL     1      36.746  -1.051  19.117  0.00  0.00    +0.000 C 
ATOM     15  C   UNL     1      38.288  -2.963  19.346  0.00  0.00    +0.000 C 
ENDBRANCH  11  13
ENDBRANCH  10  11
ENDBRANCH   5   8
ENDBRANCH   1   2
BRANCH   1  16
ATOM     16  S   UNL     1      36.755   5.841  13.280  0.00  0.00    +0.000 S 
BRANCH  16  20
ATOM     17  C   UNL     1      39.692   6.132  16.809  0.00  0.00    +0.000 A 
ATOM     18  C   UNL     1      40.039   5.509  15.622  0.00  0.00    +0.000 A 
ATOM     19  C   UNL     1      39.185   5.395  14.549  0.00  0.00    +0.000 A 
ATOM     20  C   UNL     1      37.909   5.935  14.667  0.00  0.00    +0.000 A 
ATOM     21  N   UNL     1      37.606   6.530  15.824  0.00  0.00    +0.000 NA
ATOM     22  N   UNL     1      38.444   6.623  16.833  0.00  0.00    +0.000 NA
BRANCH  17  27
ATOM     23  C   UNL     1      43.213   6.643  21.250  0.00  0.00    +0.000 C 
ATOM     24  C   UNL     1      42.306   6.522  20.080  0.00  0.00    +0.000 A 
ATOM     25  C   UNL     1      40.952   6.329  20.279  0.00  0.00    +0.000 A 
ATOM     26  C   UNL     1      40.064   6.205  19.210  0.00  0.00    +0.000 A 
ATOM     27  C   UNL     1      40.592   6.284  17.946  0.00  0.00    +0.000 A 
ATOM     28  C   UNL     1      41.936   6.476  17.781  0.00  0.00    +0.000 A 
ATOM     29  C   UNL     1      42.840   6.601  18.804  0.00  0.00    +0.000 A 
ENDBRANCH  17  27
ENDBRANCH  16  20
ENDBRANCH   1  16
TORSDOF 7
ENDMDL
MODEL 8
REMARK VINA RESULT:      -7.3      2.252      3.611
REMARK  Name = 
REMARK  7 active torsions:
REMARK  status: ('A' for Active; 'I' for Inactive)
REMARK    1  A    between atoms: C_5  and  C_6
REMARK    2  A    between atoms: C_9  and  S_10
REMARK    3  A    between atoms: S_10  and  C_11
REMARK    4  A    between atoms: C_11  and  C_12
REMARK    5  A    between atoms: C_15  and  C_16
REMARK    6  A    between atoms: N_18  and  C_19
REMARK    7  A    between atoms: C_19  and  C_21
REMARK                            x       y       z     vdW  Elec       q    Type
REMARK                         _______ _______ _______ _____ _____    ______ ____
ROOT
ATOM      1  C   UNL     1      38.895   1.618  10.861  0.00  0.00    +0.000 C 
ENDROOT
BRANCH   1   2
ATOM      2  C   UNL     1      38.627   0.902  12.139  0.00  0.00    +0.000 A 
ATOM      3  C   UNL     1      39.541   0.657  13.114  0.00  0.00    +0.000 A 
ATOM      4  C   UNL     1      39.197  -0.000  14.264  0.00  0.00    +0.000 A 
ATOM      5  C   UNL     1      37.895  -0.452  14.494  0.00  0.00    +0.000 A 
ATOM      6  C   UNL     1      37.008  -0.178  13.476  0.00  0.00    +0.000 A 
ATOM      7  C   UNL     1      37.337   0.476  12.324  0.00  0.00    +0.000 A 
BRANCH   5   8
ATOM      8  C   UNL     1      37.510  -1.157  15.705  0.00  0.00    +0.000 C 
ATOM      9  O   UNL     1      38.358  -1.899  16.252  0.00  0.00    +0.000 OA
ATOM     10  N   UNL     1      36.284  -1.032  16.238  0.00  0.00    +0.000 NA
BRANCH  10  11
ATOM     11  C   UNL     1      35.806  -1.763  17.534  0.00  0.00    +0.000 C 
ATOM     12  C   UNL     1      34.342  -2.301  17.010  0.00  0.00    +0.000 C 
BRANCH  11  13
ATOM     13  C   UNL     1      35.213  -0.381  18.209  0.00  0.00    +0.000 C 
ATOM     14  C   UNL     1      36.295   0.282  18.956  0.00  0.00    +0.000 C 
ATOM     15  C   UNL     1      34.838   0.403  16.968  0.00  0.00    +0.000 C 
ENDBRANCH  11  13
ENDBRANCH  10  11
ENDBRANCH   5   8
ENDBRANCH   1   2
BRANCH   1  16
ATOM     16  S   UNL     1      37.985   3.175  11.007  0.00  0.00    +0.000 S 
BRANCH  16  20
ATOM     17  C   UNL     1      39.141   4.786  15.158  0.00  0.00    +0.000 A 
ATOM     18  C   UNL     1      37.865   4.322  14.887  0.00  0.00    +0.000 A 
ATOM     19  C   UNL     1      37.480   3.842  13.656  0.00  0.00    +0.000 A 
ATOM     20  C   UNL     1      38.426   3.823  12.636  0.00  0.00    +0.000 A 
ATOM     21  N   UNL     1      39.646   4.276  12.930  0.00  0.00    +0.000 NA
ATOM     22  N   UNL     1      39.984   4.731  14.117  0.00  0.00    +0.000 NA
BRANCH  17  27
ATOM     23  C   UNL     1      40.786   6.765  20.234  0.00  0.00    +0.000 C 
ATOM     24  C   UNL     1      40.348   6.232  18.919  0.00  0.00    +0.000 A 
ATOM     25  C   UNL     1      41.098   6.496  17.788  0.00  0.00    +0.000 A 
ATOM     26  C   UNL     1      40.723   6.021  16.531  0.00  0.00    +0.000 A 
ATOM     27  C   UNL     1      39.572   5.275  16.463  0.00  0.00    +0.000 A 
ATOM     28  C   UNL     1      38.852   5.030  17.599  0.00  0.00    +0.000 A 
ATOM     29  C   UNL     1      39.187   5.480  18.850  0.00  0.00    +0.000 A 
ENDBRANCH  17  27
ENDBRANCH  16  20
ENDBRANCH   1  16
TORSDOF 7
ENDMDL
MODEL 9
REMARK VINA RESULT:      -7.3      2.219      3.149
REMARK  Name = 
REMARK  7 active torsions:
REMARK  status: ('A' for Active; 'I' for Inactive)
REMARK    1  A    between atoms: C_5  and  C_6
REMARK    2  A    between atoms: C_9  and  S_10
REMARK    3  A    between atoms: S_10  and  C_11
REMARK    4  A    between atoms: C_11  and  C_12
REMARK    5  A    between atoms: C_15  and  C_16
REMARK    6  A    between atoms: N_18  and  C_19
REMARK    7  A    between atoms: C_19  and  C_21
REMARK                            x       y       z     vdW  Elec       q    Type
REMARK                         _______ _______ _______ _____ _____    ______ ____
ROOT
ATOM      1  C   UNL     1      38.420   2.595  11.397  0.00  0.00    +0.000 C 
ENDROOT
BRANCH   1   2
ATOM      2  C   UNL     1      38.470   1.681  12.572  0.00  0.00    +0.000 A 
ATOM      3  C   UNL     1      39.599   1.269  13.204  0.00  0.00    +0.000 A 
ATOM      4  C   UNL     1      39.543   0.434  14.288  0.00  0.00    +0.000 A 
ATOM      5  C   UNL     1      38.330  -0.035  14.797  0.00  0.00    +0.000 A 
ATOM      6  C   UNL     1      37.217   0.412  14.120  0.00  0.00    +0.000 A 
ATOM      7  C   UNL     1      37.257   1.245  13.038  0.00  0.00    +0.000 A 
BRANCH   5   8
ATOM      8  C   UNL     1      38.249  -0.926  15.941  0.00  0.00    +0.000 C 
ATOM      9  O   UNL     1      39.118  -1.822  16.056  0.00  0.00    +0.000 OA
ATOM     10  N   UNL     1      37.278  -0.811  16.861  0.00  0.00    +0.000 NA
BRANCH  10  11
ATOM     11  C   UNL     1      37.133  -1.737  18.113  0.00  0.00    +0.000 C 
ATOM     12  C   UNL     1      36.234  -2.942  17.447  0.00  0.00    +0.000 C 
BRANCH  11  13
ATOM     13  C   UNL     1      35.837  -0.902  18.698  0.00  0.00    +0.000 C 
ATOM     14  C   UNL     1      36.188   0.525  18.772  0.00  0.00    +0.000 C 
ATOM     15  C   UNL     1      34.816  -1.163  17.608  0.00  0.00    +0.000 C 
ENDBRANCH  11  13
ENDBRANCH  10  11
ENDBRANCH   5   8
ENDBRANCH   1   2
BRANCH   1  16
ATOM     16  S   UNL     1      37.527   4.054  11.987  0.00  0.00    +0.000 S 
BRANCH  16  20
ATOM     17  C   UNL     1      39.685   5.357  15.835  0.00  0.00    +0.000 A 
ATOM     18  C   UNL     1      40.316   5.381  14.603  0.00  0.00    +0.000 A 
ATOM     19  C   UNL     1      39.707   4.991  13.433  0.00  0.00    +0.000 A 
ATOM     20  C   UNL     1      38.388   4.551  13.496  0.00  0.00    +0.000 A 
ATOM     21  N   UNL     1      37.808   4.541  14.699  0.00  0.00    +0.000 NA
ATOM     22  N   UNL     1      38.417   4.919  15.801  0.00  0.00    +0.000 NA
BRANCH  17  27
ATOM     23  C   UNL     1      42.142   6.972  20.707  0.00  0.00    +0.000 C 
ATOM     24  C   UNL     1      41.511   6.565  19.426  0.00  0.00    +0.000 A 
ATOM     25  C   UNL     1      40.234   6.038  19.427  0.00  0.00    +0.000 A 
ATOM     26  C   UNL     1      39.604   5.638  18.249  0.00  0.00    +0.000 A 
ATOM     27  C   UNL     1      40.308   5.790  17.081  0.00  0.00    +0.000 A 
ATOM     28  C   UNL     1      41.570   6.316  17.111  0.00  0.00    +0.000 A 
ATOM     29  C   UNL     1      42.222   6.720  18.248  0.00  0.00    +0.000 A 
ENDBRANCH  17  27
ENDBRANCH  16  20
ENDBRANCH   1  16
TORSDOF 7
ENDMDL
MODEL 10
REMARK VINA RESULT:      -7.2      7.943     12.111
REMARK  Name = 
REMARK  7 active torsions:
REMARK  status: ('A' for Active; 'I' for Inactive)
REMARK    1  A    between atoms: C_5  and  C_6
REMARK    2  A    between atoms: C_9  and  S_10
REMARK    3  A    between atoms: S_10  and  C_11
REMARK    4  A    between atoms: C_11  and  C_12
REMARK    5  A    between atoms: C_15  and  C_16
REMARK    6  A    between atoms: N_18  and  C_19
REMARK    7  A    between atoms: C_19  and  C_21
REMARK                            x       y       z     vdW  Elec       q    Type
REMARK                         _______ _______ _______ _____ _____    ______ ____
ROOT
ATOM      1  C   UNL     1      45.561   5.068  23.017  0.00  0.00    +0.000 C 
ENDROOT
BRANCH   1   2
ATOM      2  C   UNL     1      44.672   6.046  22.331  0.00  0.00    +0.000 A 
ATOM      3  C   UNL     1      44.868   7.389  22.279  0.00  0.00    +0.000 A 
ATOM      4  C   UNL     1      43.999   8.210  21.611  0.00  0.00    +0.000 A 
ATOM      5  C   UNL     1      42.871   7.713  20.954  0.00  0.00    +0.000 A 
ATOM      6  C   UNL     1      42.719   6.347  21.038  0.00  0.00    +0.000 A 
ATOM      7  C   UNL     1      43.577   5.515  21.700  0.00  0.00    +0.000 A 
BRANCH   5   8
ATOM      8  C   UNL     1      41.934   8.568  20.246  0.00  0.00    +0.000 C 
ATOM      9  O   UNL     1      42.386   9.566  19.638  0.00  0.00    +0.000 OA
ATOM     10  N   UNL     1      40.616   8.313  20.232  0.00  0.00    +0.000 NA
BRANCH  10  11
ATOM     11  C   UNL     1      39.554   9.192  19.493  0.00  0.00    +0.000 C 
ATOM     12  C   UNL     1      39.141  10.200  20.725  0.00  0.00    +0.000 C 
BRANCH  11  13
ATOM     13  C   UNL     1      38.333   8.121  19.773  0.00  0.00    +0.000 C 
ATOM     14  C   UNL     1      37.047   8.827  19.651  0.00  0.00    +0.000 C 
ATOM     15  C   UNL     1      38.539   7.149  18.629  0.00  0.00    +0.000 C 
ENDBRANCH  11  13
ENDBRANCH  10  11
ENDBRANCH   5   8
ENDBRANCH   1   2
BRANCH   1  16
ATOM     16  S   UNL     1      46.207   5.961  24.452  0.00  0.00    +0.000 S 
BRANCH  16  20
ATOM     17  C   UNL     1      42.719   5.980  27.452  0.00  0.00    +0.000 A 
ATOM     18  C   UNL     1      43.544   7.080  27.287  0.00  0.00    +0.000 A 
ATOM     19  C   UNL     1      44.601   7.109  26.407  0.00  0.00    +0.000 A 
ATOM     20  C   UNL     1      44.849   5.971  25.646  0.00  0.00    +0.000 A 
ATOM     21  N   UNL     1      44.036   4.928  25.828  0.00  0.00    +0.000 NA
ATOM     22  N   UNL     1      43.034   4.931  26.678  0.00  0.00    +0.000 NA
BRANCH  17  27
ATOM     23  C   UNL     1      38.226   5.815  30.940  0.00  0.00    +0.000 C 
ATOM     24  C   UNL     1      39.408   5.844  30.042  0.00  0.00    +0.000 A 
ATOM     25  C   UNL     1      39.711   6.998  29.344  0.00  0.00    +0.000 A 
ATOM     26  C   UNL     1      40.808   7.070  28.486  0.00  0.00    +0.000 A 
ATOM     27  C   UNL     1      41.580   5.942  28.362  0.00  0.00    +0.000 A 
ATOM     28  C   UNL     1      41.256   4.816  29.066  0.00  0.00    +0.000 A 
ATOM     29  C   UNL     1      40.187   4.706  29.918  0.00  0.00    +0.000 A 
ENDBRANCH  17  27
ENDBRANCH  16  20
ENDBRANCH   1  16
TORSDOF 7
ENDMDL
