MODEL 1
REMARK VINA RESULT:      -5.6      0.000      0.000
REMARK  Name = 
REMARK  2 active torsions:
REMARK  status: ('A' for Active; 'I' for Inactive)
REMARK    1  A    between atoms: C_6  and  C_8
REMARK    2  A    between atoms: C_16  and  C_17
REMARK                            x       y       z     vdW  Elec       q    Type
REMARK                         _______ _______ _______ _____ _____    ______ ____
ROOT
ATOM      1  C   UNL     1      26.046  -8.228  23.355  0.00  0.00    +0.000 C 
ATOM      2  C   UNL     1      24.626  -8.646  23.019  0.00  0.00    +0.000 A 
ATOM      3  N   UNL     1      23.605  -8.253  23.712  0.00  0.00    +0.000 NA
ATOM      4  C   UNL     1      22.387  -8.648  23.376  0.00  0.00    +0.000 A 
ATOM      5  N   UNL     1      21.174  -8.299  24.040  0.00  0.00    +0.000 NA
ATOM      6  C   UNL     1      21.213  -7.448  25.176  0.00  0.00    +0.000 C 
ATOM      7  O   UNL     1      22.369  -7.036  25.543  0.00  0.00    +0.000 OA
ATOM      8  S   UNL     1      22.686  -9.627  22.013  0.00  0.00    +0.000 S 
ATOM      9  C   UNL     1      24.395  -9.469  21.951  0.00  0.00    +0.000 A 
ENDROOT
BRANCH   6  10
ATOM     10  C   UNL     1      20.037  -7.041  25.910  0.00  0.00    +0.000 A 
ATOM     11  C   UNL     1      19.652  -5.733  25.933  0.00  0.00    +0.000 A 
ATOM     12  C   UNL     1      18.515  -5.330  26.642  0.00  0.00    +0.000 A 
ATOM     13  C   UNL     1      17.790  -6.289  27.318  0.00  0.00    +0.000 A 
ATOM     14  C   UNL     1      18.189  -7.597  27.286  0.00  0.00    +0.000 A 
ATOM     15  C   UNL     1      19.310  -7.979  26.584  0.00  0.00    +0.000 A 
ATOM     16  O   UNL     1      19.639  -9.332  26.609  0.00  0.00    +0.000 OA
ENDBRANCH   6  10
BRANCH   9  17
ATOM     17  C   UNL     1      25.390 -10.063  20.996  0.00  0.00    +0.000 C 
ATOM     18  C   UNL     1      25.609 -11.527  21.303  0.00  0.00    +0.000 C 
ATOM     19  C   UNL     1      24.898  -9.876  19.584  0.00  0.00    +0.000 C 
ENDBRANCH   9  17
TORSDOF 2
ENDMDL
MODEL 2
REMARK VINA RESULT:      -5.6     33.496     34.197
REMARK  Name = 
REMARK  2 active torsions:
REMARK  status: ('A' for Active; 'I' for Inactive)
REMARK    1  A    between atoms: C_6  and  C_8
REMARK    2  A    between atoms: C_16  and  C_17
REMARK                            x       y       z     vdW  Elec       q    Type
REMARK                         _______ _______ _______ _____ _____    ______ ____
ROOT
ATOM      1  C   UNL     1      34.332  21.080   8.701  0.00  0.00    +0.000 C 
ATOM      2  C   UNL     1      32.830  20.878   8.601  0.00  0.00    +0.000 A 
ATOM      3  N   UNL     1      32.004  21.385   9.459  0.00  0.00    +0.000 NA
ATOM      4  C   UNL     1      30.704  21.178   9.326  0.00  0.00    +0.000 A 
ATOM      5  N   UNL     1      29.678  21.670  10.187  0.00  0.00    +0.000 NA
ATOM      6  C   UNL     1      30.025  22.464  11.312  0.00  0.00    +0.000 C 
ATOM      7  O   UNL     1      31.273  22.695  11.487  0.00  0.00    +0.000 OA
ATOM      8  S   UNL     1      30.631  20.218   7.919  0.00  0.00    +0.000 S 
ATOM      9  C   UNL     1      32.312  20.136   7.576  0.00  0.00    +0.000 A 
ENDROOT
BRANCH   6  10
ATOM     10  C   UNL     1      29.056  23.005  12.237  0.00  0.00    +0.000 A 
ATOM     11  C   UNL     1      29.459  23.735  13.316  0.00  0.00    +0.000 A 
ATOM     12  C   UNL     1      28.527  24.262  14.218  0.00  0.00    +0.000 A 
ATOM     13  C   UNL     1      27.187  24.025  13.988  0.00  0.00    +0.000 A 
ATOM     14  C   UNL     1      26.799  23.290  12.901  0.00  0.00    +0.000 A 
ATOM     15  C   UNL     1      27.727  22.778  12.023  0.00  0.00    +0.000 A 
ATOM     16  O   UNL     1      27.237  22.044  10.946  0.00  0.00    +0.000 OA
ENDBRANCH   6  10
BRANCH   9  17
ATOM     17  C   UNL     1      33.042  19.444   6.460  0.00  0.00    +0.000 C 
ATOM     18  C   UNL     1      32.445  18.079   6.206  0.00  0.00    +0.000 C 
ATOM     19  C   UNL     1      32.980  20.298   5.220  0.00  0.00    +0.000 C 
ENDBRANCH   9  17
TORSDOF 2
ENDMDL
MODEL 3
REMARK VINA RESULT:      -5.5     16.204     17.796
REMARK  Name = 
REMARK  2 active torsions:
REMARK  status: ('A' for Active; 'I' for Inactive)
REMARK    1  A    between atoms: C_6  and  C_8
REMARK    2  A    between atoms: C_16  and  C_17
REMARK                            x       y       z     vdW  Elec       q    Type
REMARK                         _______ _______ _______ _____ _____    ______ ____
ROOT
ATOM      1  C   UNL     1      33.603  -4.122  32.430  0.00  0.00    +0.000 C 
ATOM      2  C   UNL     1      33.214  -3.400  33.708  0.00  0.00    +0.000 A 
ATOM      3  N   UNL     1      33.310  -2.116  33.837  0.00  0.00    +0.000 NA
ATOM      4  C   UNL     1      32.958  -1.537  34.974  0.00  0.00    +0.000 A 
ATOM      5  N   UNL     1      33.007  -0.141  35.261  0.00  0.00    +0.000 NA
ATOM      6  C   UNL     1      33.472   0.765  34.271  0.00  0.00    +0.000 C 
ATOM      7  O   UNL     1      33.826   0.256  33.150  0.00  0.00    +0.000 OA
ATOM      8  S   UNL     1      32.462  -2.867  35.919  0.00  0.00    +0.000 S 
ATOM      9  C   UNL     1      32.743  -4.116  34.774  0.00  0.00    +0.000 A 
ENDROOT
BRANCH   6  10
ATOM     10  C   UNL     1      33.556   2.193  34.473  0.00  0.00    +0.000 A 
ATOM     11  C   UNL     1      33.296   3.055  33.447  0.00  0.00    +0.000 A 
ATOM     12  C   UNL     1      33.377   4.439  33.633  0.00  0.00    +0.000 A 
ATOM     13  C   UNL     1      33.725   4.914  34.881  0.00  0.00    +0.000 A 
ATOM     14  C   UNL     1      33.983   4.036  35.899  0.00  0.00    +0.000 A 
ATOM     15  C   UNL     1      33.900   2.677  35.702  0.00  0.00    +0.000 A 
ATOM     16  O   UNL     1      34.180   1.863  36.796  0.00  0.00    +0.000 OA
ENDBRANCH   6  10
BRANCH   9  17
ATOM     17  C   UNL     1      32.537  -5.600  34.888  0.00  0.00    +0.000 C 
ATOM     18  C   UNL     1      33.522  -6.197  35.867  0.00  0.00    +0.000 C 
ATOM     19  C   UNL     1      31.118  -5.874  35.316  0.00  0.00    +0.000 C 
ENDBRANCH   9  17
TORSDOF 2
ENDMDL
MODEL 4
REMARK VINA RESULT:      -5.5     31.937     32.679
REMARK  Name = 
REMARK  2 active torsions:
REMARK  status: ('A' for Active; 'I' for Inactive)
REMARK    1  A    between atoms: C_6  and  C_8
REMARK    2  A    between atoms: C_16  and  C_17
REMARK                            x       y       z     vdW  Elec       q    Type
REMARK                         _______ _______ _______ _____ _____    ______ ____
ROOT
ATOM      1  C   UNL     1      32.561  21.246  28.991  0.00  0.00    +0.000 C 
ATOM      2  C   UNL     1      31.299  22.090  28.954  0.00  0.00    +0.000 A 
ATOM      3  N   UNL     1      30.667  22.345  27.854  0.00  0.00    +0.000 NA
ATOM      4  C   UNL     1      29.572  23.087  27.878  0.00  0.00    +0.000 A 
ATOM      5  N   UNL     1      28.773  23.450  26.753  0.00  0.00    +0.000 NA
ATOM      6  C   UNL     1      29.139  23.002  25.456  0.00  0.00    +0.000 C 
ATOM      7  O   UNL     1      30.194  22.279  25.377  0.00  0.00    +0.000 OA
ATOM      8  S   UNL     1      29.415  23.449  29.536  0.00  0.00    +0.000 S 
ATOM      9  C   UNL     1      30.796  22.609  30.116  0.00  0.00    +0.000 A 
ENDROOT
BRANCH   6  10
ATOM     10  C   UNL     1      28.392  23.319  24.261  0.00  0.00    +0.000 A 
ATOM     11  C   UNL     1      29.031  23.767  23.142  0.00  0.00    +0.000 A 
ATOM     12  C   UNL     1      28.315  24.077  21.981  0.00  0.00    +0.000 A 
ATOM     13  C   UNL     1      26.944  23.919  21.994  0.00  0.00    +0.000 A 
ATOM     14  C   UNL     1      26.318  23.470  23.124  0.00  0.00    +0.000 A 
ATOM     15  C   UNL     1      27.036  23.168  24.260  0.00  0.00    +0.000 A 
ATOM     16  O   UNL     1      26.313  22.717  25.361  0.00  0.00    +0.000 OA
ENDBRANCH   6  10
BRANCH   9  17
ATOM     17  C   UNL     1      31.330  22.467  31.512  0.00  0.00    +0.000 C 
ATOM     18  C   UNL     1      31.660  23.823  32.092  0.00  0.00    +0.000 C 
ATOM     19  C   UNL     1      30.315  21.749  32.363  0.00  0.00    +0.000 C 
ENDBRANCH   9  17
TORSDOF 2
ENDMDL
MODEL 5
REMARK VINA RESULT:      -5.4     34.876     36.204
REMARK  Name = 
REMARK  2 active torsions:
REMARK  status: ('A' for Active; 'I' for Inactive)
REMARK    1  A    between atoms: C_6  and  C_8
REMARK    2  A    between atoms: C_16  and  C_17
REMARK                            x       y       z     vdW  Elec       q    Type
REMARK                         _______ _______ _______ _____ _____    ______ ____
ROOT
ATOM      1  C   UNL     1      28.745  30.528  18.763  0.00  0.00    +0.000 C 
ATOM      2  C   UNL     1      29.290  29.133  18.512  0.00  0.00    +0.000 A 
ATOM      3  N   UNL     1      29.270  28.207  19.417  0.00  0.00    +0.000 NA
ATOM      4  C   UNL     1      29.759  27.008  19.147  0.00  0.00    +0.000 A 
ATOM      5  N   UNL     1      29.805  25.894  20.038  0.00  0.00    +0.000 NA
ATOM      6  C   UNL     1      29.291  26.026  21.356  0.00  0.00    +0.000 C 
ATOM      7  O   UNL     1      28.805  27.169  21.669  0.00  0.00    +0.000 OA
ATOM      8  S   UNL     1      30.278  27.183  17.533  0.00  0.00    +0.000 S 
ATOM      9  C   UNL     1      29.827  28.823  17.293  0.00  0.00    +0.000 A 
ENDROOT
BRANCH   6  10
ATOM     10  C   UNL     1      29.295  24.954  22.325  0.00  0.00    +0.000 A 
ATOM     11  C   UNL     1      30.335  24.812  23.196  0.00  0.00    +0.000 A 
ATOM     12  C   UNL     1      30.348  23.776  24.137  0.00  0.00    +0.000 A 
ATOM     13  C   UNL     1      29.281  22.901  24.163  0.00  0.00    +0.000 A 
ATOM     14  C   UNL     1      28.246  23.058  23.282  0.00  0.00    +0.000 A 
ATOM     15  C   UNL     1      28.247  24.081  22.362  0.00  0.00    +0.000 A 
ATOM     16  O   UNL     1      27.151  24.161  21.507  0.00  0.00    +0.000 OA
ENDBRANCH   6  10
BRANCH   9  17
ATOM     17  C   UNL     1      29.972  29.702  16.084  0.00  0.00    +0.000 C 
ATOM     18  C   UNL     1      31.305  30.415  16.106  0.00  0.00    +0.000 C 
ATOM     19  C   UNL     1      29.830  28.865  14.839  0.00  0.00    +0.000 C 
ENDBRANCH   9  17
TORSDOF 2
ENDMDL
MODEL 6
REMARK VINA RESULT:      -5.3      5.440      9.256
REMARK  Name = 
REMARK  2 active torsions:
REMARK  status: ('A' for Active; 'I' for Inactive)
REMARK    1  A    between atoms: C_6  and  C_8
REMARK    2  A    between atoms: C_16  and  C_17
REMARK                            x       y       z     vdW  Elec       q    Type
REMARK                         _______ _______ _______ _____ _____    ______ ____
ROOT
ATOM      1  C   UNL     1      13.620 -12.104  27.282  0.00  0.00    +0.000 C 
ATOM      2  C   UNL     1      13.554 -10.716  26.669  0.00  0.00    +0.000 A 
ATOM      3  N   UNL     1      14.586  -9.937  26.604  0.00  0.00    +0.000 NA
ATOM      4  C   UNL     1      14.474  -8.736  26.060  0.00  0.00    +0.000 A 
ATOM      5  N   UNL     1      15.516  -7.773  25.918  0.00  0.00    +0.000 NA
ATOM      6  C   UNL     1      16.823  -8.076  26.387  0.00  0.00    +0.000 C 
ATOM      7  O   UNL     1      16.985  -9.228  26.923  0.00  0.00    +0.000 OA
ATOM      8  S   UNL     1      12.829  -8.693  25.613  0.00  0.00    +0.000 S 
ATOM      9  C   UNL     1      12.371 -10.254  26.163  0.00  0.00    +0.000 A 
ENDROOT
BRANCH   6  10
ATOM     10  C   UNL     1      17.938  -7.164  26.286  0.00  0.00    +0.000 A 
ATOM     11  C   UNL     1      17.839  -5.891  26.767  0.00  0.00    +0.000 A 
ATOM     12  C   UNL     1      18.915  -5.000  26.672  0.00  0.00    +0.000 A 
ATOM     13  C   UNL     1      20.080  -5.441  26.080  0.00  0.00    +0.000 A 
ATOM     14  C   UNL     1      20.163  -6.720  25.601  0.00  0.00    +0.000 A 
ATOM     15  C   UNL     1      19.097  -7.585  25.701  0.00  0.00    +0.000 A 
ATOM     16  O   UNL     1      19.275  -8.867  25.187  0.00  0.00    +0.000 OA
ENDBRANCH   6  10
BRANCH   9  17
ATOM     17  C   UNL     1      11.039 -10.947  26.115  0.00  0.00    +0.000 C 
ATOM     18  C   UNL     1      10.170 -10.503  27.270  0.00  0.00    +0.000 C 
ATOM     19  C   UNL     1      10.372 -10.654  24.796  0.00  0.00    +0.000 C 
ENDBRANCH   9  17
TORSDOF 2
ENDMDL
MODEL 7
REMARK VINA RESULT:      -5.2     22.498     23.449
REMARK  Name = 
REMARK  2 active torsions:
REMARK  status: ('A' for Active; 'I' for Inactive)
REMARK    1  A    between atoms: C_6  and  C_8
REMARK    2  A    between atoms: C_16  and  C_17
REMARK                            x       y       z     vdW  Elec       q    Type
REMARK                         _______ _______ _______ _____ _____    ______ ____
ROOT
ATOM      1  C   UNL     1      24.710   9.091  39.668  0.00  0.00    +0.000 C 
ATOM      2  C   UNL     1      23.450   9.663  39.042  0.00  0.00    +0.000 A 
ATOM      3  N   UNL     1      22.266   9.371  39.476  0.00  0.00    +0.000 NA
ATOM      4  C   UNL     1      21.200   9.896  38.894  0.00  0.00    +0.000 A 
ATOM      5  N   UNL     1      19.840   9.670  39.259  0.00  0.00    +0.000 NA
ATOM      6  C   UNL     1      19.538   8.805  40.345  0.00  0.00    +0.000 C 
ATOM      7  O   UNL     1      20.535   8.270  40.945  0.00  0.00    +0.000 OA
ATOM      8  S   UNL     1      21.893  10.855  37.667  0.00  0.00    +0.000 S 
ATOM      9  C   UNL     1      23.548  10.518  37.980  0.00  0.00    +0.000 A 
ENDROOT
BRANCH   6  10
ATOM     10  C   UNL     1      18.193   8.517  40.786  0.00  0.00    +0.000 A 
ATOM     11  C   UNL     1      17.389   9.514  41.256  0.00  0.00    +0.000 A 
ATOM     12  C   UNL     1      16.084   9.244  41.685  0.00  0.00    +0.000 A 
ATOM     13  C   UNL     1      15.630   7.943  41.622  0.00  0.00    +0.000 A 
ATOM     14  C   UNL     1      16.449   6.954  41.149  0.00  0.00    +0.000 A 
ATOM     15  C   UNL     1      17.730   7.235  40.730  0.00  0.00    +0.000 A 
ATOM     16  O   UNL     1      18.489   6.165  40.264  0.00  0.00    +0.000 OA
ENDBRANCH   6  10
BRANCH   9  17
ATOM     17  C   UNL     1      24.786  11.014  37.289  0.00  0.00    +0.000 C 
ATOM     18  C   UNL     1      24.845  10.493  35.871  0.00  0.00    +0.000 C 
ATOM     19  C   UNL     1      24.799  12.520  37.310  0.00  0.00    +0.000 C 
ENDBRANCH   9  17
TORSDOF 2
ENDMDL
MODEL 8
REMARK VINA RESULT:      -5.2     15.922     17.551
REMARK  Name = 
REMARK  2 active torsions:
REMARK  status: ('A' for Active; 'I' for Inactive)
REMARK    1  A    between atoms: C_6  and  C_8
REMARK    2  A    between atoms: C_16  and  C_17
REMARK                            x       y       z     vdW  Elec       q    Type
REMARK                         _______ _______ _______ _____ _____    ______ ____
ROOT
ATOM      1  C   UNL     1      32.347  -4.566  36.675  0.00  0.00    +0.000 C 
ATOM      2  C   UNL     1      32.814  -3.932  35.377  0.00  0.00    +0.000 A 
ATOM      3  N   UNL     1      32.969  -2.653  35.247  0.00  0.00    +0.000 NA
ATOM      4  C   UNL     1      33.377  -2.151  34.092  0.00  0.00    +0.000 A 
ATOM      5  N   UNL     1      33.593  -0.772  33.800  0.00  0.00    +0.000 NA
ATOM      6  C   UNL     1      33.363   0.204  34.806  0.00  0.00    +0.000 C 
ATOM      7  O   UNL     1      32.966  -0.229  35.944  0.00  0.00    +0.000 OA
ATOM      8  S   UNL     1      33.555  -3.549  33.132  0.00  0.00    +0.000 S 
ATOM      9  C   UNL     1      33.084  -4.722  34.295  0.00  0.00    +0.000 A 
ENDROOT
BRANCH   6  10
ATOM     10  C   UNL     1      33.555   1.622  34.601  0.00  0.00    +0.000 A 
ATOM     11  C   UNL     1      33.353   2.178  33.373  0.00  0.00    +0.000 A 
ATOM     12  C   UNL     1      33.537   3.550  33.165  0.00  0.00    +0.000 A 
ATOM     13  C   UNL     1      33.929   4.328  34.235  0.00  0.00    +0.000 A 
ATOM     14  C   UNL     1      34.128   3.754  35.461  0.00  0.00    +0.000 A 
ATOM     15  C   UNL     1      33.943   2.404  35.651  0.00  0.00    +0.000 A 
ATOM     16  O   UNL     1      34.169   1.910  36.933  0.00  0.00    +0.000 OA
ENDBRANCH   6  10
BRANCH   9  17
ATOM     17  C   UNL     1      32.986  -6.217  34.180  0.00  0.00    +0.000 C 
ATOM     18  C   UNL     1      31.705  -6.609  33.478  0.00  0.00    +0.000 C 
ATOM     19  C   UNL     1      34.189  -6.739  33.437  0.00  0.00    +0.000 C 
ENDBRANCH   9  17
TORSDOF 2
ENDMDL
MODEL 9
REMARK VINA RESULT:      -5.2      5.395      9.113
REMARK  Name = 
REMARK  2 active torsions:
REMARK  status: ('A' for Active; 'I' for Inactive)
REMARK    1  A    between atoms: C_6  and  C_8
REMARK    2  A    between atoms: C_16  and  C_17
REMARK                            x       y       z     vdW  Elec       q    Type
REMARK                         _______ _______ _______ _____ _____    ______ ____
ROOT
ATOM      1  C   UNL     1      14.827 -12.744  29.531  0.00  0.00    +0.000 C 
ATOM      2  C   UNL     1      15.984 -11.916  30.064  0.00  0.00    +0.000 A 
ATOM      3  N   UNL     1      16.525 -10.959  29.380  0.00  0.00    +0.000 NA
ATOM      4  C   UNL     1      17.532 -10.269  29.891  0.00  0.00    +0.000 A 
ATOM      5  N   UNL     1      18.224  -9.193  29.260  0.00  0.00    +0.000 NA
ATOM      6  C   UNL     1      17.841  -8.778  27.957  0.00  0.00    +0.000 C 
ATOM      7  O   UNL     1      16.870  -9.414  27.416  0.00  0.00    +0.000 OA
ATOM      8  S   UNL     1      17.735 -11.000  31.418  0.00  0.00    +0.000 S 
ATOM      9  C   UNL     1      16.487 -12.176  31.308  0.00  0.00    +0.000 A 
ENDROOT
BRANCH   6  10
ATOM     10  C   UNL     1      18.483  -7.699  27.242  0.00  0.00    +0.000 A 
ATOM     11  C   UNL     1      17.999  -6.427  27.325  0.00  0.00    +0.000 A 
ATOM     12  C   UNL     1      18.614  -5.376  26.635  0.00  0.00    +0.000 A 
ATOM     13  C   UNL     1      19.726  -5.658  25.868  0.00  0.00    +0.000 A 
ATOM     14  C   UNL     1      20.199  -6.940  25.794  0.00  0.00    +0.000 A 
ATOM     15  C   UNL     1      19.583  -7.964  26.479  0.00  0.00    +0.000 A 
ATOM     16  O   UNL     1      20.137  -9.234  26.344  0.00  0.00    +0.000 OA
ENDBRANCH   6  10
BRANCH   9  17
ATOM     17  C   UNL     1      16.048 -13.219  32.296  0.00  0.00    +0.000 C 
ATOM     18  C   UNL     1      16.732 -14.537  32.012  0.00  0.00    +0.000 C 
ATOM     19  C   UNL     1      16.355 -12.743  33.692  0.00  0.00    +0.000 C 
ENDBRANCH   9  17
TORSDOF 2
ENDMDL
MODEL 10
REMARK VINA RESULT:      -5.1     32.234     33.168
REMARK  Name = 
REMARK  2 active torsions:
REMARK  status: ('A' for Active; 'I' for Inactive)
REMARK    1  A    between atoms: C_6  and  C_8
REMARK    2  A    between atoms: C_16  and  C_17
REMARK                            x       y       z     vdW  Elec       q    Type
REMARK                         _______ _______ _______ _____ _____    ______ ____
ROOT
ATOM      1  C   UNL     1      28.915  26.621  25.030  0.00  0.00    +0.000 C 
ATOM      2  C   UNL     1      29.240  25.138  25.047  0.00  0.00    +0.000 A 
ATOM      3  N   UNL     1      29.814  24.565  26.056  0.00  0.00    +0.000 NA
ATOM      4  C   UNL     1      30.075  23.268  26.019  0.00  0.00    +0.000 A 
ATOM      5  N   UNL     1      30.699  22.503  27.049  0.00  0.00    +0.000 NA
ATOM      6  C   UNL     1      31.101  23.140  28.253  0.00  0.00    +0.000 C 
ATOM      7  O   UNL     1      30.870  24.396  28.340  0.00  0.00    +0.000 OA
ATOM      8  S   UNL     1      29.484  22.823  24.483  0.00  0.00    +0.000 S 
ATOM      9  C   UNL     1      28.923  24.362  23.966  0.00  0.00    +0.000 A 
ENDROOT
BRANCH   6  10
ATOM     10  C   UNL     1      31.738  22.446  29.348  0.00  0.00    +0.000 A 
ATOM     11  C   UNL     1      33.062  22.123  29.288  0.00  0.00    +0.000 A 
ATOM     12  C   UNL     1      33.687  21.450  30.344  0.00  0.00    +0.000 A 
ATOM     13  C   UNL     1      32.932  21.121  31.450  0.00  0.00    +0.000 A 
ATOM     14  C   UNL     1      31.604  21.450  31.495  0.00  0.00    +0.000 A 
ATOM     15  C   UNL     1      31.002  22.112  30.449  0.00  0.00    +0.000 A 
ATOM     16  O   UNL     1      29.649  22.406  30.585  0.00  0.00    +0.000 OA
ENDBRANCH   6  10
BRANCH   9  17
ATOM     17  C   UNL     1      28.262  24.772  22.682  0.00  0.00    +0.000 C 
ATOM     18  C   UNL     1      29.260  24.755  21.546  0.00  0.00    +0.000 C 
ATOM     19  C   UNL     1      27.107  23.847  22.398  0.00  0.00    +0.000 C 
ENDBRANCH   9  17
TORSDOF 2
ENDMDL
