MODEL 1
REMARK VINA RESULT:      -8.0      0.000      0.000
REMARK  Name = 
REMARK  6 active torsions:
REMARK  status: ('A' for Active; 'I' for Inactive)
REMARK    1  A    between atoms: C_2  and  C_3
REMARK    2  A    between atoms: C_6  and  O_7
REMARK    3  A    between atoms: C_9  and  C_10
REMARK    4  A    between atoms: C_20  and  O_21
REMARK    5  A    between atoms: O_21  and  C_22
REMARK    6  A    between atoms: C_22  and  C_23
REMARK                            x       y       z     vdW  Elec       q    Type
REMARK                         _______ _______ _______ _____ _____    ______ ____
ROOT
ATOM      1  C   UNL     1      37.035  -2.209  14.007  0.00  0.00    +0.000 C 
ATOM      2  N   UNL     1      38.230  -2.897  14.773  0.00  0.00    +0.000 NA
ATOM      3  C   UNL     1      38.583  -2.122  15.884  0.00  0.00    +0.000 C 
ATOM      4  C   UNL     1      39.483  -0.995  15.425  0.00  0.00    +0.000 C 
ATOM      5  C   UNL     1      38.662  -0.239  14.455  0.00  0.00    +0.000 A 
ATOM      6  C   UNL     1      37.626  -0.758  13.857  0.00  0.00    +0.000 A 
ATOM      7  N   UNL     1      37.100   0.158  13.049  0.00  0.00    +0.000 NA
ATOM      8  C   UNL     1      37.805   1.306  13.116  0.00  0.00    +0.000 A 
ATOM      9  C   UNL     1      37.726   2.554  12.519  0.00  0.00    +0.000 A 
ATOM     10  C   UNL     1      38.626   3.557  12.800  0.00  0.00    +0.000 A 
ATOM     11  C   UNL     1      39.639   3.320  13.703  0.00  0.00    +0.000 A 
ATOM     12  C   UNL     1      39.707   2.077  14.291  0.00  0.00    +0.000 A 
ATOM     13  C   UNL     1      38.816   1.077  14.014  0.00  0.00    +0.000 A 
ENDROOT
BRANCH   1  18
ATOM     14  C   UNL     1      35.108  -0.423  16.798  0.00  0.00    +0.000 A 
ATOM     15  C   UNL     1      34.351  -1.447  17.299  0.00  0.00    +0.000 A 
ATOM     16  C   UNL     1      34.437  -2.724  16.755  0.00  0.00    +0.000 A 
ATOM     17  C   UNL     1      35.293  -2.989  15.692  0.00  0.00    +0.000 A 
ATOM     18  C   UNL     1      36.042  -1.974  15.198  0.00  0.00    +0.000 A 
ATOM     19  C   UNL     1      35.967  -0.730  15.718  0.00  0.00    +0.000 A 
BRANCH  14  21
ATOM     20  C   UNL     1      36.089   1.785  16.579  0.00  0.00    +0.000 C 
ATOM     21  C   UNL     1      35.080   0.970  17.318  0.00  0.00    +0.000 C 
ENDBRANCH  14  21
BRANCH  17  22
ATOM     22  O   UNL     1      35.400  -4.239  15.136  0.00  0.00    +0.000 OA
ATOM     23  C   UNL     1      34.249  -4.891  14.602  0.00  0.00    +0.000 C 
ENDBRANCH  17  22
ENDBRANCH   1  18
BRANCH  11  24
ATOM     24  O   UNL     1      40.581   4.323  14.019  0.00  0.00    +0.000 OA
BRANCH  24  25
ATOM     25  C   UNL     1      40.180   5.525  14.574  0.00  0.00    +0.000 C 
BRANCH  25  26
ATOM     26  C   UNL     1      39.876   5.497  16.024  0.00  0.00    +0.000 A 
ATOM     27  C   UNL     1      38.781   4.864  16.569  0.00  0.00    +0.000 A 
ATOM     28  C   UNL     1      38.514   4.851  17.923  0.00  0.00    +0.000 A 
ATOM     29  C   UNL     1      39.357   5.487  18.800  0.00  0.00    +0.000 A 
ATOM     30  C   UNL     1      40.463   6.132  18.289  0.00  0.00    +0.000 A 
ATOM     31  C   UNL     1      40.719   6.139  16.931  0.00  0.00    +0.000 A 
ENDBRANCH  25  26
ENDBRANCH  24  25
ENDBRANCH  11  24
TORSDOF 6
ENDMDL
MODEL 2
REMARK VINA RESULT:      -7.8      1.306      1.698
REMARK  Name = 
REMARK  6 active torsions:
REMARK  status: ('A' for Active; 'I' for Inactive)
REMARK    1  A    between atoms: C_2  and  C_3
REMARK    2  A    between atoms: C_6  and  O_7
REMARK    3  A    between atoms: C_9  and  C_10
REMARK    4  A    between atoms: C_20  and  O_21
REMARK    5  A    between atoms: O_21  and  C_22
REMARK    6  A    between atoms: C_22  and  C_23
REMARK                            x       y       z     vdW  Elec       q    Type
REMARK                         _______ _______ _______ _____ _____    ______ ____
ROOT
ATOM      1  C   UNL     1      37.413  -0.561  13.242  0.00  0.00    +0.000 C 
ATOM      2  N   UNL     1      38.772  -1.214  13.706  0.00  0.00    +0.000 NA
ATOM      3  C   UNL     1      39.132  -0.705  14.960  0.00  0.00    +0.000 C 
ATOM      4  C   UNL     1      39.805   0.637  14.766  0.00  0.00    +0.000 C 
ATOM      5  C   UNL     1      38.782   1.470  14.098  0.00  0.00    +0.000 A 
ATOM      6  C   UNL     1      37.771   0.957  13.453  0.00  0.00    +0.000 A 
ATOM      7  N   UNL     1      37.033   1.949  12.964  0.00  0.00    +0.000 NA
ATOM      8  C   UNL     1      37.570   3.142  13.294  0.00  0.00    +0.000 A 
ATOM      9  C   UNL     1      37.248   4.471  13.066  0.00  0.00    +0.000 A 
ATOM     10  C   UNL     1      38.021   5.503  13.548  0.00  0.00    +0.000 A 
ATOM     11  C   UNL     1      39.151   5.213  14.281  0.00  0.00    +0.000 A 
ATOM     12  C   UNL     1      39.461   3.890  14.501  0.00  0.00    +0.000 A 
ATOM     13  C   UNL     1      38.697   2.862  14.023  0.00  0.00    +0.000 A 
ENDROOT
BRANCH   1  18
ATOM     14  C   UNL     1      35.348   0.140  16.394  0.00  0.00    +0.000 A 
ATOM     15  C   UNL     1      35.008  -1.129  16.779  0.00  0.00    +0.000 A 
ATOM     16  C   UNL     1      35.427  -2.230  16.041  0.00  0.00    +0.000 A 
ATOM     17  C   UNL     1      36.200  -2.068  14.897  0.00  0.00    +0.000 A 
ATOM     18  C   UNL     1      36.535  -0.812  14.517  0.00  0.00    +0.000 A 
ATOM     19  C   UNL     1      36.134   0.266  15.226  0.00  0.00    +0.000 A 
BRANCH  14  21
ATOM     20  C   UNL     1      35.063   2.541  16.202  0.00  0.00    +0.000 C 
ATOM     21  C   UNL     1      34.944   1.372  17.123  0.00  0.00    +0.000 C 
ENDBRANCH  14  21
BRANCH  17  22
ATOM     22  O   UNL     1      36.629  -3.136  14.149  0.00  0.00    +0.000 OA
ATOM     23  C   UNL     1      36.653  -4.446  14.712  0.00  0.00    +0.000 C 
ENDBRANCH  17  22
ENDBRANCH   1  18
BRANCH  11  24
ATOM     24  O   UNL     1      39.969   6.243  14.793  0.00  0.00    +0.000 OA
BRANCH  24  25
ATOM     25  C   UNL     1      41.042   5.956  15.618  0.00  0.00    +0.000 C 
BRANCH  25  26
ATOM     26  C   UNL     1      40.788   6.074  17.072  0.00  0.00    +0.000 A 
ATOM     27  C   UNL     1      39.574   5.807  17.667  0.00  0.00    +0.000 A 
ATOM     28  C   UNL     1      39.356   5.925  19.023  0.00  0.00    +0.000 A 
ATOM     29  C   UNL     1      40.373   6.325  19.855  0.00  0.00    +0.000 A 
ATOM     30  C   UNL     1      41.601   6.601  19.295  0.00  0.00    +0.000 A 
ATOM     31  C   UNL     1      41.807   6.480  17.934  0.00  0.00    +0.000 A 
ENDBRANCH  25  26
ENDBRANCH  24  25
ENDBRANCH  11  24
TORSDOF 6
ENDMDL
MODEL 3
REMARK VINA RESULT:      -7.8      3.600      5.446
REMARK  Name = 
REMARK  6 active torsions:
REMARK  status: ('A' for Active; 'I' for Inactive)
REMARK    1  A    between atoms: C_2  and  C_3
REMARK    2  A    between atoms: C_6  and  O_7
REMARK    3  A    between atoms: C_9  and  C_10
REMARK    4  A    between atoms: C_20  and  O_21
REMARK    5  A    between atoms: O_21  and  C_22
REMARK    6  A    between atoms: C_22  and  C_23
REMARK                            x       y       z     vdW  Elec       q    Type
REMARK                         _______ _______ _______ _____ _____    ______ ____
ROOT
ATOM      1  C   UNL     1      36.244  -2.918  15.594  0.00  0.00    +0.000 C 
ATOM      2  N   UNL     1      36.666  -3.461  17.013  0.00  0.00    +0.000 NA
ATOM      3  C   UNL     1      37.661  -2.637  17.553  0.00  0.00    +0.000 C 
ATOM      4  C   UNL     1      38.997  -3.038  16.965  0.00  0.00    +0.000 C 
ATOM      5  C   UNL     1      38.835  -2.838  15.509  0.00  0.00    +0.000 A 
ATOM      6  C   UNL     1      37.666  -2.789  14.933  0.00  0.00    +0.000 A 
ATOM      7  N   UNL     1      37.844  -2.603  13.629  0.00  0.00    +0.000 NA
ATOM      8  C   UNL     1      39.160  -2.529  13.339  0.00  0.00    +0.000 A 
ATOM      9  C   UNL     1      39.912  -2.351  12.189  0.00  0.00    +0.000 A 
ATOM     10  C   UNL     1      41.289  -2.320  12.213  0.00  0.00    +0.000 A 
ATOM     11  C   UNL     1      41.944  -2.470  13.416  0.00  0.00    +0.000 A 
ATOM     12  C   UNL     1      41.186  -2.646  14.552  0.00  0.00    +0.000 A 
ATOM     13  C   UNL     1      39.820  -2.678  14.532  0.00  0.00    +0.000 A 
ENDROOT
BRANCH   1  18
ATOM     14  C   UNL     1      36.613   0.896  15.650  0.00  0.00    +0.000 A 
ATOM     15  C   UNL     1      35.596   1.251  16.495  0.00  0.00    +0.000 A 
ATOM     16  C   UNL     1      34.772   0.283  17.059  0.00  0.00    +0.000 A 
ATOM     17  C   UNL     1      34.962  -1.064  16.779  0.00  0.00    +0.000 A 
ATOM     18  C   UNL     1      35.969  -1.414  15.943  0.00  0.00    +0.000 A 
ATOM     19  C   UNL     1      36.776  -0.484  15.389  0.00  0.00    +0.000 A 
BRANCH  14  21
ATOM     20  C   UNL     1      38.754   1.132  14.535  0.00  0.00    +0.000 C 
ATOM     21  C   UNL     1      37.540   1.863  15.004  0.00  0.00    +0.000 C 
ENDBRANCH  14  21
BRANCH  17  22
ATOM     22  O   UNL     1      34.166  -2.042  17.321  0.00  0.00    +0.000 OA
ATOM     23  C   UNL     1      32.773  -1.808  17.521  0.00  0.00    +0.000 C 
ENDBRANCH  17  22
ENDBRANCH   1  18
BRANCH  11  24
ATOM     24  O   UNL     1      43.354  -2.444  13.483  0.00  0.00    +0.000 OA
BRANCH  24  25
ATOM     25  C   UNL     1      44.029  -1.278  13.796  0.00  0.00    +0.000 C 
BRANCH  25  26
ATOM     26  C   UNL     1      44.749  -1.275  15.090  0.00  0.00    +0.000 A 
ATOM     27  C   UNL     1      44.914  -0.157  15.877  0.00  0.00    +0.000 A 
ATOM     28  C   UNL     1      45.589  -0.174  17.080  0.00  0.00    +0.000 A 
ATOM     29  C   UNL     1      46.138  -1.343  17.549  0.00  0.00    +0.000 A 
ATOM     30  C   UNL     1      45.993  -2.481  16.786  0.00  0.00    +0.000 A 
ATOM     31  C   UNL     1      45.314  -2.452  15.583  0.00  0.00    +0.000 A 
ENDBRANCH  25  26
ENDBRANCH  24  25
ENDBRANCH  11  24
TORSDOF 6
ENDMDL
MODEL 4
REMARK VINA RESULT:      -7.4     26.553     29.397
REMARK  Name = 
REMARK  6 active torsions:
REMARK  status: ('A' for Active; 'I' for Inactive)
REMARK    1  A    between atoms: C_2  and  C_3
REMARK    2  A    between atoms: C_6  and  O_7
REMARK    3  A    between atoms: C_9  and  C_10
REMARK    4  A    between atoms: C_20  and  O_21
REMARK    5  A    between atoms: O_21  and  C_22
REMARK    6  A    between atoms: C_22  and  C_23
REMARK                            x       y       z     vdW  Elec       q    Type
REMARK                         _______ _______ _______ _____ _____    ______ ____
ROOT
ATOM      1  C   UNL     1      24.878  18.788  36.000  0.00  0.00    +0.000 C 
ATOM      2  N   UNL     1      26.278  19.500  35.858  0.00  0.00    +0.000 NA
ATOM      3  C   UNL     1      27.244  18.562  35.472  0.00  0.00    +0.000 C 
ATOM      4  C   UNL     1      27.713  17.813  36.701  0.00  0.00    +0.000 C 
ATOM      5  C   UNL     1      26.491  17.171  37.230  0.00  0.00    +0.000 A 
ATOM      6  C   UNL     1      25.292  17.587  36.930  0.00  0.00    +0.000 A 
ATOM      7  N   UNL     1      24.407  16.817  37.554  0.00  0.00    +0.000 NA
ATOM      8  C   UNL     1      25.036  15.872  38.282  0.00  0.00    +0.000 A 
ATOM      9  C   UNL     1      24.642  14.831  39.109  0.00  0.00    +0.000 A 
ATOM     10  C   UNL     1      25.552  14.009  39.735  0.00  0.00    +0.000 A 
ATOM     11  C   UNL     1      26.898  14.222  39.537  0.00  0.00    +0.000 A 
ATOM     12  C   UNL     1      27.279  15.258  38.714  0.00  0.00    +0.000 A 
ATOM     13  C   UNL     1      26.378  16.077  38.091  0.00  0.00    +0.000 A 
ENDROOT
BRANCH   1  18
ATOM     14  C   UNL     1      25.164  16.004  33.380  0.00  0.00    +0.000 A 
ATOM     15  C   UNL     1      24.733  16.651  32.254  0.00  0.00    +0.000 A 
ATOM     16  C   UNL     1      24.340  17.984  32.308  0.00  0.00    +0.000 A 
ATOM     17  C   UNL     1      24.376  18.688  33.506  0.00  0.00    +0.000 A 
ATOM     18  C   UNL     1      24.803  18.047  34.619  0.00  0.00    +0.000 A 
ATOM     19  C   UNL     1      25.188  16.753  34.580  0.00  0.00    +0.000 A 
BRANCH  14  21
ATOM     20  C   UNL     1      26.604  14.410  34.508  0.00  0.00    +0.000 C 
ATOM     21  C   UNL     1      25.603  14.583  33.413  0.00  0.00    +0.000 C 
ENDBRANCH  14  21
BRANCH  17  22
ATOM     22  O   UNL     1      23.995  20.004  33.589  0.00  0.00    +0.000 OA
ATOM     23  C   UNL     1      23.302  20.624  32.508  0.00  0.00    +0.000 C 
ENDBRANCH  17  22
ENDBRANCH   1  18
BRANCH  11  24
ATOM     24  O   UNL     1      27.863  13.401  40.161  0.00  0.00    +0.000 OA
BRANCH  24  25
ATOM     25  C   UNL     1      27.483  12.305  40.914  0.00  0.00    +0.000 C 
BRANCH  25  26
ATOM     26  C   UNL     1      28.418  11.157  40.902  0.00  0.00    +0.000 A 
ATOM     27  C   UNL     1      29.740  11.245  40.524  0.00  0.00    +0.000 A 
ATOM     28  C   UNL     1      30.597  10.163  40.517  0.00  0.00    +0.000 A 
ATOM     29  C   UNL     1      30.147   8.923  40.899  0.00  0.00    +0.000 A 
ATOM     30  C   UNL     1      28.830   8.798  41.283  0.00  0.00    +0.000 A 
ATOM     31  C   UNL     1      27.981   9.889  41.285  0.00  0.00    +0.000 A 
ENDBRANCH  25  26
ENDBRANCH  24  25
ENDBRANCH  11  24
TORSDOF 6
ENDMDL
MODEL 5
REMARK VINA RESULT:      -6.8      3.868      6.477
REMARK  Name = 
REMARK  6 active torsions:
REMARK  status: ('A' for Active; 'I' for Inactive)
REMARK    1  A    between atoms: C_2  and  C_3
REMARK    2  A    between atoms: C_6  and  O_7
REMARK    3  A    between atoms: C_9  and  C_10
REMARK    4  A    between atoms: C_20  and  O_21
REMARK    5  A    between atoms: O_21  and  C_22
REMARK    6  A    between atoms: C_22  and  C_23
REMARK                            x       y       z     vdW  Elec       q    Type
REMARK                         _______ _______ _______ _____ _____    ______ ____
ROOT
ATOM      1  C   UNL     1      38.511  -1.736  16.656  0.00  0.00    +0.000 C 
ATOM      2  N   UNL     1      37.438  -0.891  17.445  0.00  0.00    +0.000 NA
ATOM      3  C   UNL     1      36.210  -0.950  16.775  0.00  0.00    +0.000 C 
ATOM      4  C   UNL     1      36.222   0.058  15.646  0.00  0.00    +0.000 C 
ATOM      5  C   UNL     1      37.349  -0.364  14.787  0.00  0.00    +0.000 A 
ATOM      6  C   UNL     1      38.316  -1.124  15.219  0.00  0.00    +0.000 A 
ATOM      7  N   UNL     1      39.173  -1.327  14.224  0.00  0.00    +0.000 NA
ATOM      8  C   UNL     1      38.762  -0.687  13.110  0.00  0.00    +0.000 A 
ATOM      9  C   UNL     1      39.236  -0.545  11.816  0.00  0.00    +0.000 A 
ATOM     10  C   UNL     1      38.570   0.201  10.870  0.00  0.00    +0.000 A 
ATOM     11  C   UNL     1      37.393   0.829  11.215  0.00  0.00    +0.000 A 
ATOM     12  C   UNL     1      36.930   0.681  12.503  0.00  0.00    +0.000 A 
ATOM     13  C   UNL     1      37.589  -0.059  13.445  0.00  0.00    +0.000 A 
ENDROOT
BRANCH   1  18
ATOM     14  C   UNL     1      35.940  -4.278  15.384  0.00  0.00    +0.000 A 
ATOM     15  C   UNL     1      36.277  -5.387  16.112  0.00  0.00    +0.000 A 
ATOM     16  C   UNL     1      37.330  -5.347  17.019  0.00  0.00    +0.000 A 
ATOM     17  C   UNL     1      38.064  -4.181  17.206  0.00  0.00    +0.000 A 
ATOM     18  C   UNL     1      37.730  -3.085  16.485  0.00  0.00    +0.000 A 
ATOM     19  C   UNL     1      36.708  -3.111  15.601  0.00  0.00    +0.000 A 
BRANCH  14  21
ATOM     20  C   UNL     1      33.539  -4.480  15.102  0.00  0.00    +0.000 C 
ATOM     21  C   UNL     1      34.830  -4.231  14.395  0.00  0.00    +0.000 C 
ENDBRANCH  14  21
BRANCH  17  22
ATOM     22  O   UNL     1      39.108  -4.112  18.094  0.00  0.00    +0.000 OA
ATOM     23  C   UNL     1      38.861  -3.895  19.482  0.00  0.00    +0.000 C 
ENDBRANCH  17  22
ENDBRANCH   1  18
BRANCH  11  24
ATOM     24  O   UNL     1      36.679   1.602  10.274  0.00  0.00    +0.000 OA
BRANCH  24  25
ATOM     25  C   UNL     1      37.341   2.306   9.284  0.00  0.00    +0.000 C 
BRANCH  25  26
ATOM     26  C   UNL     1      36.786   2.175   7.917  0.00  0.00    +0.000 A 
ATOM     27  C   UNL     1      36.862   1.025   7.161  0.00  0.00    +0.000 A 
ATOM     28  C   UNL     1      36.340   0.923   5.889  0.00  0.00    +0.000 A 
ATOM     29  C   UNL     1      35.706   1.997   5.313  0.00  0.00    +0.000 A 
ATOM     30  C   UNL     1      35.612   3.164   6.040  0.00  0.00    +0.000 A 
ATOM     31  C   UNL     1      36.140   3.254   7.314  0.00  0.00    +0.000 A 
ENDBRANCH  25  26
ENDBRANCH  24  25
ENDBRANCH  11  24
TORSDOF 6
ENDMDL
MODEL 6
REMARK VINA RESULT:      -6.8     26.575     29.137
REMARK  Name = 
REMARK  6 active torsions:
REMARK  status: ('A' for Active; 'I' for Inactive)
REMARK    1  A    between atoms: C_2  and  C_3
REMARK    2  A    between atoms: C_6  and  O_7
REMARK    3  A    between atoms: C_9  and  C_10
REMARK    4  A    between atoms: C_20  and  O_21
REMARK    5  A    between atoms: O_21  and  C_22
REMARK    6  A    between atoms: C_22  and  C_23
REMARK                            x       y       z     vdW  Elec       q    Type
REMARK                         _______ _______ _______ _____ _____    ______ ____
ROOT
ATOM      1  C   UNL     1      24.829  18.831  36.104  0.00  0.00    +0.000 C 
ATOM      2  N   UNL     1      26.207  19.590  35.982  0.00  0.00    +0.000 NA
ATOM      3  C   UNL     1      27.206  18.687  35.598  0.00  0.00    +0.000 C 
ATOM      4  C   UNL     1      27.687  17.943  36.825  0.00  0.00    +0.000 C 
ATOM      5  C   UNL     1      26.481  17.257  37.336  0.00  0.00    +0.000 A 
ATOM      6  C   UNL     1      25.273  17.637  37.028  0.00  0.00    +0.000 A 
ATOM      7  N   UNL     1      24.407  16.833  37.637  0.00  0.00    +0.000 NA
ATOM      8  C   UNL     1      25.059  15.902  38.363  0.00  0.00    +0.000 A 
ATOM      9  C   UNL     1      24.691  14.843  39.177  0.00  0.00    +0.000 A 
ATOM     10  C   UNL     1      25.620  14.045  39.805  0.00  0.00    +0.000 A 
ATOM     11  C   UNL     1      26.961  14.303  39.623  0.00  0.00    +0.000 A 
ATOM     12  C   UNL     1      27.316  15.358  38.812  0.00  0.00    +0.000 A 
ATOM     13  C   UNL     1      26.396  16.152  38.187  0.00  0.00    +0.000 A 
ENDROOT
BRANCH   1  18
ATOM     14  C   UNL     1      25.194  16.068  33.472  0.00  0.00    +0.000 A 
ATOM     15  C   UNL     1      24.786  16.722  32.340  0.00  0.00    +0.000 A 
ATOM     16  C   UNL     1      24.385  18.052  32.394  0.00  0.00    +0.000 A 
ATOM     17  C   UNL     1      24.389  18.748  33.597  0.00  0.00    +0.000 A 
ATOM     18  C   UNL     1      24.792  18.100  34.716  0.00  0.00    +0.000 A 
ATOM     19  C   UNL     1      25.185  16.809  34.677  0.00  0.00    +0.000 A 
BRANCH  14  21
ATOM     20  C   UNL     1      26.640  14.481  34.600  0.00  0.00    +0.000 C 
ATOM     21  C   UNL     1      25.639  14.650  33.505  0.00  0.00    +0.000 C 
ENDBRANCH  14  21
BRANCH  17  22
ATOM     22  O   UNL     1      23.999  20.061  33.681  0.00  0.00    +0.000 OA
ATOM     23  C   UNL     1      24.680  21.065  32.931  0.00  0.00    +0.000 C 
ENDBRANCH  17  22
ENDBRANCH   1  18
BRANCH  11  24
ATOM     24  O   UNL     1      27.946  13.508  40.249  0.00  0.00    +0.000 OA
BRANCH  24  25
ATOM     25  C   UNL     1      29.226  13.991  40.452  0.00  0.00    +0.000 C 
BRANCH  25  26
ATOM     26  C   UNL     1      30.301  13.311  39.693  0.00  0.00    +0.000 A 
ATOM     27  C   UNL     1      30.852  12.101  40.054  0.00  0.00    +0.000 A 
ATOM     28  C   UNL     1      31.854  11.483  39.335  0.00  0.00    +0.000 A 
ATOM     29  C   UNL     1      32.352  12.072  38.199  0.00  0.00    +0.000 A 
ATOM     30  C   UNL     1      31.826  13.284  37.808  0.00  0.00    +0.000 A 
ATOM     31  C   UNL     1      30.822  13.893  38.537  0.00  0.00    +0.000 A 
ENDBRANCH  25  26
ENDBRANCH  24  25
ENDBRANCH  11  24
TORSDOF 6
ENDMDL
MODEL 7
REMARK VINA RESULT:      -6.8      3.877      6.150
REMARK  Name = 
REMARK  6 active torsions:
REMARK  status: ('A' for Active; 'I' for Inactive)
REMARK    1  A    between atoms: C_2  and  C_3
REMARK    2  A    between atoms: C_6  and  O_7
REMARK    3  A    between atoms: C_9  and  C_10
REMARK    4  A    between atoms: C_20  and  O_21
REMARK    5  A    between atoms: O_21  and  C_22
REMARK    6  A    between atoms: C_22  and  C_23
REMARK                            x       y       z     vdW  Elec       q    Type
REMARK                         _______ _______ _______ _____ _____    ______ ____
ROOT
ATOM      1  C   UNL     1      36.891  -1.265  14.400  0.00  0.00    +0.000 C 
ATOM      2  N   UNL     1      37.042  -1.865  15.850  0.00  0.00    +0.000 NA
ATOM      3  C   UNL     1      38.279  -1.489  16.387  0.00  0.00    +0.000 C 
ATOM      4  C   UNL     1      39.345  -2.422  15.854  0.00  0.00    +0.000 C 
ATOM      5  C   UNL     1      39.294  -2.242  14.388  0.00  0.00    +0.000 A 
ATOM      6  C   UNL     1      38.252  -1.752  13.776  0.00  0.00    +0.000 A 
ATOM      7  N   UNL     1      38.504  -1.715  12.471  0.00  0.00    +0.000 NA
ATOM      8  C   UNL     1      39.740  -2.193  12.218  0.00  0.00    +0.000 A 
ATOM      9  C   UNL     1      40.513  -2.388  11.084  0.00  0.00    +0.000 A 
ATOM     10  C   UNL     1      41.784  -2.915  11.148  0.00  0.00    +0.000 A 
ATOM     11  C   UNL     1      42.309  -3.260  12.374  0.00  0.00    +0.000 A 
ATOM     12  C   UNL     1      41.532  -3.061  13.493  0.00  0.00    +0.000 A 
ATOM     13  C   UNL     1      40.270  -2.539  13.434  0.00  0.00    +0.000 A 
ENDROOT
BRANCH   1  18
ATOM     14  C   UNL     1      38.836   2.038  14.432  0.00  0.00    +0.000 A 
ATOM     15  C   UNL     1      37.981   2.845  15.132  0.00  0.00    +0.000 A 
ATOM     16  C   UNL     1      36.768   2.354  15.604  0.00  0.00    +0.000 A 
ATOM     17  C   UNL     1      36.398   1.034  15.375  0.00  0.00    +0.000 A 
ATOM     18  C   UNL     1      37.245   0.237  14.682  0.00  0.00    +0.000 A 
ATOM     19  C   UNL     1      38.425   0.701  14.220  0.00  0.00    +0.000 A 
BRANCH  14  21
ATOM     20  C   UNL     1      40.913   1.280  13.434  0.00  0.00    +0.000 C 
ATOM     21  C   UNL     1      40.150   2.478  13.893  0.00  0.00    +0.000 C 
ENDBRANCH  14  21
BRANCH  17  22
ATOM     22  O   UNL     1      35.208   0.522  15.829  0.00  0.00    +0.000 OA
ATOM     23  C   UNL     1      34.793   0.745  17.175  0.00  0.00    +0.000 C 
ENDBRANCH  17  22
ENDBRANCH   1  18
BRANCH  11  24
ATOM     24  O   UNL     1      43.608  -3.802  12.481  0.00  0.00    +0.000 OA
BRANCH  24  25
ATOM     25  C   UNL     1      44.722  -2.982  12.491  0.00  0.00    +0.000 C 
BRANCH  25  26
ATOM     26  C   UNL     1      44.906  -2.156  13.706  0.00  0.00    +0.000 A 
ATOM     27  C   UNL     1      45.479  -2.616  14.871  0.00  0.00    +0.000 A 
ATOM     28  C   UNL     1      45.640  -1.831  15.994  0.00  0.00    +0.000 A 
ATOM     29  C   UNL     1      45.221  -0.523  15.989  0.00  0.00    +0.000 A 
ATOM     30  C   UNL     1      44.642  -0.029  14.841  0.00  0.00    +0.000 A 
ATOM     31  C   UNL     1      44.486  -0.826  13.722  0.00  0.00    +0.000 A 
ENDBRANCH  25  26
ENDBRANCH  24  25
ENDBRANCH  11  24
TORSDOF 6
ENDMDL
MODEL 8
REMARK VINA RESULT:      -6.8      3.099      4.903
REMARK  Name = 
REMARK  6 active torsions:
REMARK  status: ('A' for Active; 'I' for Inactive)
REMARK    1  A    between atoms: C_2  and  C_3
REMARK    2  A    between atoms: C_6  and  O_7
REMARK    3  A    between atoms: C_9  and  C_10
REMARK    4  A    between atoms: C_20  and  O_21
REMARK    5  A    between atoms: O_21  and  C_22
REMARK    6  A    between atoms: C_22  and  C_23
REMARK                            x       y       z     vdW  Elec       q    Type
REMARK                         _______ _______ _______ _____ _____    ______ ____
ROOT
ATOM      1  C   UNL     1      39.037   0.861  10.932  0.00  0.00    +0.000 C 
ATOM      2  N   UNL     1      40.402   1.614  10.691  0.00  0.00    +0.000 NA
ATOM      3  C   UNL     1      41.212   1.492  11.827  0.00  0.00    +0.000 C 
ATOM      4  C   UNL     1      40.783   2.527  12.844  0.00  0.00    +0.000 C 
ATOM      5  C   UNL     1      39.369   2.202  13.128  0.00  0.00    +0.000 A 
ATOM      6  C   UNL     1      38.634   1.496  12.315  0.00  0.00    +0.000 A 
ATOM      7  N   UNL     1      37.418   1.375  12.839  0.00  0.00    +0.000 NA
ATOM      8  C   UNL     1      37.351   2.016  14.024  0.00  0.00    +0.000 A 
ATOM      9  C   UNL     1      36.373   2.222  14.985  0.00  0.00    +0.000 A 
ATOM     10  C   UNL     1      36.615   2.947  16.130  0.00  0.00    +0.000 A 
ATOM     11  C   UNL     1      37.866   3.487  16.333  0.00  0.00    +0.000 A 
ATOM     12  C   UNL     1      38.830   3.276  15.372  0.00  0.00    +0.000 A 
ATOM     13  C   UNL     1      38.593   2.557  14.234  0.00  0.00    +0.000 A 
ENDROOT
BRANCH   1  18
ATOM     14  C   UNL     1      40.047  -1.993  13.284  0.00  0.00    +0.000 A 
ATOM     15  C   UNL     1      40.499  -2.927  12.391  0.00  0.00    +0.000 A 
ATOM     16  C   UNL     1      40.488  -2.668  11.025  0.00  0.00    +0.000 A 
ATOM     17  C   UNL     1      40.018  -1.455  10.535  0.00  0.00    +0.000 A 
ATOM     18  C   UNL     1      39.571  -0.531  11.419  0.00  0.00    +0.000 A 
ATOM     19  C   UNL     1      39.577  -0.771  12.748  0.00  0.00    +0.000 A 
BRANCH  14  21
ATOM     20  C   UNL     1      39.159  -1.135  15.371  0.00  0.00    +0.000 C 
ATOM     21  C   UNL     1      40.024  -2.186  14.758  0.00  0.00    +0.000 C 
ENDBRANCH  14  21
BRANCH  17  22
ATOM     22  O   UNL     1      39.995  -1.170   9.193  0.00  0.00    +0.000 OA
ATOM     23  C   UNL     1      40.827  -1.894   8.288  0.00  0.00    +0.000 C 
ENDBRANCH  17  22
ENDBRANCH   1  18
BRANCH  11  24
ATOM     24  O   UNL     1      38.154   4.237  17.494  0.00  0.00    +0.000 OA
BRANCH  24  25
ATOM     25  C   UNL     1      38.499   5.574  17.410  0.00  0.00    +0.000 C 
BRANCH  25  26
ATOM     26  C   UNL     1      39.781   5.952  18.049  0.00  0.00    +0.000 A 
ATOM     27  C   UNL     1      39.936   6.152  19.404  0.00  0.00    +0.000 A 
ATOM     28  C   UNL     1      41.138   6.505  19.981  0.00  0.00    +0.000 A 
ATOM     29  C   UNL     1      42.256   6.675  19.202  0.00  0.00    +0.000 A 
ATOM     30  C   UNL     1      42.137   6.484  17.842  0.00  0.00    +0.000 A 
ATOM     31  C   UNL     1      40.927   6.131  17.275  0.00  0.00    +0.000 A 
ENDBRANCH  25  26
ENDBRANCH  24  25
ENDBRANCH  11  24
TORSDOF 6
ENDMDL
MODEL 9
REMARK VINA RESULT:      -6.7      4.342      7.807
REMARK  Name = 
REMARK  6 active torsions:
REMARK  status: ('A' for Active; 'I' for Inactive)
REMARK    1  A    between atoms: C_2  and  C_3
REMARK    2  A    between atoms: C_6  and  O_7
REMARK    3  A    between atoms: C_9  and  C_10
REMARK    4  A    between atoms: C_20  and  O_21
REMARK    5  A    between atoms: O_21  and  C_22
REMARK    6  A    between atoms: C_22  and  C_23
REMARK                            x       y       z     vdW  Elec       q    Type
REMARK                         _______ _______ _______ _____ _____    ______ ____
ROOT
ATOM      1  C   UNL     1      37.751   1.818  14.832  0.00  0.00    +0.000 C 
ATOM      2  N   UNL     1      36.901   2.032  13.521  0.00  0.00    +0.000 NA
ATOM      3  C   UNL     1      36.375   0.805  13.098  0.00  0.00    +0.000 C 
ATOM      4  C   UNL     1      37.440   0.059  12.325  0.00  0.00    +0.000 C 
ATOM      5  C   UNL     1      38.547  -0.111  13.291  0.00  0.00    +0.000 A 
ATOM      6  C   UNL     1      38.674   0.637  14.352  0.00  0.00    +0.000 A 
ATOM      7  N   UNL     1      39.756   0.248  15.018  0.00  0.00    +0.000 NA
ATOM      8  C   UNL     1      40.356  -0.779  14.382  0.00  0.00    +0.000 A 
ATOM      9  C   UNL     1      41.479  -1.561  14.603  0.00  0.00    +0.000 A 
ATOM     10  C   UNL     1      41.848  -2.570  13.742  0.00  0.00    +0.000 A 
ATOM     11  C   UNL     1      41.080  -2.816  12.625  0.00  0.00    +0.000 A 
ATOM     12  C   UNL     1      39.967  -2.034  12.416  0.00  0.00    +0.000 A 
ATOM     13  C   UNL     1      39.598  -1.030  13.268  0.00  0.00    +0.000 A 
ENDROOT
BRANCH   1  18
ATOM     14  C   UNL     1      36.080  -1.100  16.671  0.00  0.00    +0.000 A 
ATOM     15  C   UNL     1      34.975  -0.487  17.197  0.00  0.00    +0.000 A 
ATOM     16  C   UNL     1      34.743   0.867  16.980  0.00  0.00    +0.000 A 
ATOM     17  C   UNL     1      35.627   1.627  16.223  0.00  0.00    +0.000 A 
ATOM     18  C   UNL     1      36.720   1.019  15.703  0.00  0.00    +0.000 A 
ATOM     19  C   UNL     1      36.956  -0.295  15.907  0.00  0.00    +0.000 A 
BRANCH  14  21
ATOM     20  C   UNL     1      37.782  -2.659  17.417  0.00  0.00    +0.000 C 
ATOM     21  C   UNL     1      36.404  -2.540  16.853  0.00  0.00    +0.000 C 
ENDBRANCH  14  21
BRANCH  17  22
ATOM     22  O   UNL     1      35.424   2.964  15.991  0.00  0.00    +0.000 OA
ATOM     23  C   UNL     1      34.197   3.420  15.426  0.00  0.00    +0.000 C 
ENDBRANCH  17  22
ENDBRANCH   1  18
BRANCH  11  24
ATOM     24  O   UNL     1      41.424  -3.842  11.718  0.00  0.00    +0.000 OA
BRANCH  24  25
ATOM     25  C   UNL     1      42.115  -3.560  10.553  0.00  0.00    +0.000 C 
BRANCH  25  26
ATOM     26  C   UNL     1      41.776  -4.399   9.381  0.00  0.00    +0.000 A 
ATOM     27  C   UNL     1      41.183  -3.919   8.235  0.00  0.00    +0.000 A 
ATOM     28  C   UNL     1      40.873  -4.717   7.153  0.00  0.00    +0.000 A 
ATOM     29  C   UNL     1      41.155  -6.061   7.183  0.00  0.00    +0.000 A 
ATOM     30  C   UNL     1      41.748  -6.577   8.315  0.00  0.00    +0.000 A 
ATOM     31  C   UNL     1      42.053  -5.767   9.392  0.00  0.00    +0.000 A 
ENDBRANCH  25  26
ENDBRANCH  24  25
ENDBRANCH  11  24
TORSDOF 6
ENDMDL
MODEL 10
REMARK VINA RESULT:      -6.6      4.491      8.038
REMARK  Name = 
REMARK  6 active torsions:
REMARK  status: ('A' for Active; 'I' for Inactive)
REMARK    1  A    between atoms: C_2  and  C_3
REMARK    2  A    between atoms: C_6  and  O_7
REMARK    3  A    between atoms: C_9  and  C_10
REMARK    4  A    between atoms: C_20  and  O_21
REMARK    5  A    between atoms: O_21  and  C_22
REMARK    6  A    between atoms: C_22  and  C_23
REMARK                            x       y       z     vdW  Elec       q    Type
REMARK                         _______ _______ _______ _____ _____    ______ ____
ROOT
ATOM      1  C   UNL     1      43.400  -1.101  12.097  0.00  0.00    +0.000 C 
ATOM      2  N   UNL     1      42.943   0.279  11.484  0.00  0.00    +0.000 NA
ATOM      3  C   UNL     1      42.726   1.201  12.516  0.00  0.00    +0.000 C 
ATOM      4  C   UNL     1      41.349   0.965  13.097  0.00  0.00    +0.000 C 
ATOM      5  C   UNL     1      41.391  -0.427  13.592  0.00  0.00    +0.000 A 
ATOM      6  C   UNL     1      42.261  -1.299  13.165  0.00  0.00    +0.000 A 
ATOM      7  N   UNL     1      42.048  -2.453  13.789  0.00  0.00    +0.000 NA
ATOM      8  C   UNL     1      41.012  -2.339  14.647  0.00  0.00    +0.000 A 
ATOM      9  C   UNL     1      40.362  -3.184  15.532  0.00  0.00    +0.000 A 
ATOM     10  C   UNL     1      39.297  -2.763  16.297  0.00  0.00    +0.000 A 
ATOM     11  C   UNL     1      38.861  -1.461  16.183  0.00  0.00    +0.000 A 
ATOM     12  C   UNL     1      39.514  -0.631  15.301  0.00  0.00    +0.000 A 
ATOM     13  C   UNL     1      40.571  -1.046  14.540  0.00  0.00    +0.000 A 
ENDROOT
BRANCH   1  18
ATOM     14  C   UNL     1      45.333  -0.201  15.282  0.00  0.00    +0.000 A 
ATOM     15  C   UNL     1      46.525   0.224  14.761  0.00  0.00    +0.000 A 
ATOM     16  C   UNL     1      46.737   0.229  13.386  0.00  0.00    +0.000 A 
ATOM     17  C   UNL     1      45.744  -0.197  12.512  0.00  0.00    +0.000 A 
ATOM     18  C   UNL     1      44.565  -0.617  13.029  0.00  0.00    +0.000 A 
ATOM     19  C   UNL     1      44.347  -0.626  14.362  0.00  0.00    +0.000 A 
BRANCH  14  21
ATOM     20  C   UNL     1      46.255  -0.618  17.487  0.00  0.00    +0.000 C 
ATOM     21  C   UNL     1      45.021  -0.239  16.736  0.00  0.00    +0.000 C 
ENDBRANCH  14  21
BRANCH  17  22
ATOM     22  O   UNL     1      45.924  -0.202  11.152  0.00  0.00    +0.000 OA
ATOM     23  C   UNL     1      47.219  -0.422  10.597  0.00  0.00    +0.000 C 
ENDBRANCH  17  22
ENDBRANCH   1  18
BRANCH  11  24
ATOM     24  O   UNL     1      37.773  -0.990  16.950  0.00  0.00    +0.000 OA
BRANCH  24  25
ATOM     25  C   UNL     1      36.483  -1.020  16.448  0.00  0.00    +0.000 C 
BRANCH  25  26
ATOM     26  C   UNL     1      35.962   0.265  15.930  0.00  0.00    +0.000 A 
ATOM     27  C   UNL     1      36.171   0.720  14.646  0.00  0.00    +0.000 A 
ATOM     28  C   UNL     1      35.678   1.921  14.182  0.00  0.00    +0.000 A 
ATOM     29  C   UNL     1      34.939   2.731  15.009  0.00  0.00    +0.000 A 
ATOM     30  C   UNL     1      34.710   2.309  16.300  0.00  0.00    +0.000 A 
ATOM     31  C   UNL     1      35.210   1.103  16.754  0.00  0.00    +0.000 A 
ENDBRANCH  25  26
ENDBRANCH  24  25
ENDBRANCH  11  24
TORSDOF 6
ENDMDL
