MODEL 1
REMARK VINA RESULT:      -7.3      0.000      0.000
REMARK  Name = 
REMARK  7 active torsions:
REMARK  status: ('A' for Active; 'I' for Inactive)
REMARK    1  A    between atoms: O_2  and  C_3
REMARK    2  A    between atoms: C_6  and  N_7
REMARK    3  A    between atoms: C_10  and  N_11
REMARK    4  A    between atoms: N_11  and  C_12
REMARK    5  A    between atoms: C_15  and  C_16
REMARK    6  A    between atoms: C_21  and  S_22
REMARK    7  A    between atoms: S_22  and  C_23
REMARK                            x       y       z     vdW  Elec       q    Type
REMARK                         _______ _______ _______ _____ _____    ______ ____
ROOT
ATOM      1  N   UNL     1      38.289   4.370  16.083  0.00  0.00    +0.000 N 
ATOM      2  C   UNL     1      37.251   3.410  15.984  0.00  0.00    +0.000 C 
ATOM      3  O   UNL     1      36.292   3.270  16.830  0.00  0.00    +0.000 OA
ATOM      4  C   UNL     1      37.478   2.642  14.780  0.00  0.00    +0.000 C 
ATOM      5  C   UNL     1      38.564   3.103  14.199  0.00  0.00    +0.000 C 
ATOM      6  C   UNL     1      39.138   4.196  14.960  0.00  0.00    +0.000 C 
ATOM      7  O   UNL     1      40.186   4.879  14.702  0.00  0.00    +0.000 OA
ENDROOT
BRANCH   1  11
ATOM      8  C   UNL     1      38.873   7.205  19.109  0.00  0.00    +0.000 A 
ATOM      9  C   UNL     1      39.363   5.927  19.256  0.00  0.00    +0.000 A 
ATOM     10  C   UNL     1      39.159   5.014  18.248  0.00  0.00    +0.000 A 
ATOM     11  C   UNL     1      38.479   5.345  17.100  0.00  0.00    +0.000 A 
ATOM     12  C   UNL     1      37.993   6.594  16.945  0.00  0.00    +0.000 A 
ATOM     13  C   UNL     1      38.184   7.530  17.940  0.00  0.00    +0.000 A 
BRANCH   8  15
ATOM     14  C   UNL     1      38.064   9.024  20.520  0.00  0.00    +0.000 C 
ATOM     15  O   UNL     1      39.077   8.130  20.126  0.00  0.00    +0.000 OA
ENDBRANCH   8  15
ENDBRANCH   1  11
BRANCH   4  16
ATOM     16  N   UNL     1      36.681   1.570  14.273  0.00  0.00    +0.000 NA
BRANCH  16  17
ATOM     17  C   UNL     1      36.993   0.255  14.688  0.00  0.00    +0.000 A 
ATOM     18  C   UNL     1      37.439  -0.029  15.965  0.00  0.00    +0.000 A 
ATOM     19  C   UNL     1      37.725  -1.329  16.314  0.00  0.00    +0.000 A 
ATOM     20  C   UNL     1      37.592  -2.386  15.457  0.00  0.00    +0.000 A 
ATOM     21  C   UNL     1      37.142  -2.115  14.160  0.00  0.00    +0.000 A 
ATOM     22  C   UNL     1      36.856  -0.796  13.817  0.00  0.00    +0.000 A 
BRANCH  20  23
ATOM     23  C   UNL     1      37.898  -3.787  15.827  0.00  0.00    +0.000 C 
ATOM     24  C   UNL     1      36.637  -4.539  16.121  0.00  0.00    +0.000 C 
ATOM     25  C   UNL     1      38.854  -3.799  17.018  0.00  0.00    +0.000 C 
ENDBRANCH  20  23
ENDBRANCH  16  17
ENDBRANCH   4  16
BRANCH   5  26
ATOM     26  S   UNL     1      39.241   2.451  12.660  0.00  0.00    +0.000 S 
BRANCH  26  27
ATOM     27  C   UNL     1      39.912   0.846  13.003  0.00  0.00    +0.000 A 
ATOM     28  C   UNL     1      39.785  -0.108  12.010  0.00  0.00    +0.000 A 
ATOM     29  C   UNL     1      40.264  -1.374  12.155  0.00  0.00    +0.000 A 
ATOM     30  C   UNL     1      40.907  -1.738  13.335  0.00  0.00    +0.000 A 
ATOM     31  C   UNL     1      41.449  -3.129  13.521  0.00  0.00    +0.000 C 
ATOM     32  C   UNL     1      41.025  -0.776  14.314  0.00  0.00    +0.000 A 
ATOM     33  C   UNL     1      40.541   0.507  14.171  0.00  0.00    +0.000 A 
ENDBRANCH  26  27
ENDBRANCH   5  26
TORSDOF 7
ENDMDL
MODEL 2
REMARK VINA RESULT:      -7.2      4.033      6.221
REMARK  Name = 
REMARK  7 active torsions:
REMARK  status: ('A' for Active; 'I' for Inactive)
REMARK    1  A    between atoms: O_2  and  C_3
REMARK    2  A    between atoms: C_6  and  N_7
REMARK    3  A    between atoms: C_10  and  N_11
REMARK    4  A    between atoms: N_11  and  C_12
REMARK    5  A    between atoms: C_15  and  C_16
REMARK    6  A    between atoms: C_21  and  S_22
REMARK    7  A    between atoms: S_22  and  C_23
REMARK                            x       y       z     vdW  Elec       q    Type
REMARK                         _______ _______ _______ _____ _____    ______ ____
ROOT
ATOM      1  N   UNL     1      35.612   7.822  14.639  0.00  0.00    +0.000 N 
ATOM      2  C   UNL     1      35.047   6.688  14.005  0.00  0.00    +0.000 C 
ATOM      3  O   UNL     1      33.848   6.619  13.545  0.00  0.00    +0.000 OA
ATOM      4  C   UNL     1      36.057   5.653  13.980  0.00  0.00    +0.000 C 
ATOM      5  C   UNL     1      37.143   6.126  14.552  0.00  0.00    +0.000 C 
ATOM      6  C   UNL     1      36.944   7.492  14.996  0.00  0.00    +0.000 C 
ATOM      7  O   UNL     1      37.773   8.263  15.588  0.00  0.00    +0.000 OA
ENDROOT
BRANCH   1  11
ATOM      8  C   UNL     1      33.807  11.539  15.320  0.00  0.00    +0.000 A 
ATOM      9  C   UNL     1      34.407  11.275  14.109  0.00  0.00    +0.000 A 
ATOM     10  C   UNL     1      34.993  10.046  13.910  0.00  0.00    +0.000 A 
ATOM     11  C   UNL     1      34.993   9.079  14.887  0.00  0.00    +0.000 A 
ATOM     12  C   UNL     1      34.409   9.327  16.077  0.00  0.00    +0.000 A 
ATOM     13  C   UNL     1      33.814  10.551  16.304  0.00  0.00    +0.000 A 
BRANCH   8  15
ATOM     14  C   UNL     1      32.617  13.493  14.470  0.00  0.00    +0.000 C 
ATOM     15  O   UNL     1      33.215  12.779  15.525  0.00  0.00    +0.000 OA
ENDBRANCH   8  15
ENDBRANCH   1  11
BRANCH   4  16
ATOM     16  N   UNL     1      35.937   4.338  13.434  0.00  0.00    +0.000 NA
BRANCH  16  17
ATOM     17  C   UNL     1      35.732   3.262  14.328  0.00  0.00    +0.000 A 
ATOM     18  C   UNL     1      36.407   2.061  14.203  0.00  0.00    +0.000 A 
ATOM     19  C   UNL     1      36.170   1.049  15.105  0.00  0.00    +0.000 A 
ATOM     20  C   UNL     1      35.286   1.157  16.143  0.00  0.00    +0.000 A 
ATOM     21  C   UNL     1      34.595   2.365  16.282  0.00  0.00    +0.000 A 
ATOM     22  C   UNL     1      34.843   3.383  15.364  0.00  0.00    +0.000 A 
BRANCH  20  23
ATOM     23  C   UNL     1      35.027   0.071  17.116  0.00  0.00    +0.000 C 
ATOM     24  C   UNL     1      35.873   0.250  18.339  0.00  0.00    +0.000 C 
ATOM     25  C   UNL     1      35.277  -1.279  16.448  0.00  0.00    +0.000 C 
ENDBRANCH  20  23
ENDBRANCH  16  17
ENDBRANCH   4  16
BRANCH   5  26
ATOM     26  S   UNL     1      38.671   5.188  14.751  0.00  0.00    +0.000 S 
BRANCH  26  27
ATOM     27  C   UNL     1      39.278   5.489  16.389  0.00  0.00    +0.000 A 
ATOM     28  C   UNL     1      40.516   6.096  16.493  0.00  0.00    +0.000 A 
ATOM     29  C   UNL     1      41.086   6.382  17.695  0.00  0.00    +0.000 A 
ATOM     30  C   UNL     1      40.413   6.060  18.871  0.00  0.00    +0.000 A 
ATOM     31  C   UNL     1      41.018   6.367  20.214  0.00  0.00    +0.000 C 
ATOM     32  C   UNL     1      39.182   5.455  18.751  0.00  0.00    +0.000 A 
ATOM     33  C   UNL     1      38.602   5.164  17.534  0.00  0.00    +0.000 A 
ENDBRANCH  26  27
ENDBRANCH   5  26
TORSDOF 7
ENDMDL
MODEL 3
REMARK VINA RESULT:      -7.2      3.996      8.499
REMARK  Name = 
REMARK  7 active torsions:
REMARK  status: ('A' for Active; 'I' for Inactive)
REMARK    1  A    between atoms: O_2  and  C_3
REMARK    2  A    between atoms: C_6  and  N_7
REMARK    3  A    between atoms: C_10  and  N_11
REMARK    4  A    between atoms: N_11  and  C_12
REMARK    5  A    between atoms: C_15  and  C_16
REMARK    6  A    between atoms: C_21  and  S_22
REMARK    7  A    between atoms: S_22  and  C_23
REMARK                            x       y       z     vdW  Elec       q    Type
REMARK                         _______ _______ _______ _____ _____    ______ ____
ROOT
ATOM      1  N   UNL     1      36.406   2.474  15.288  0.00  0.00    +0.000 N 
ATOM      2  C   UNL     1      35.531   3.550  14.998  0.00  0.00    +0.000 C 
ATOM      3  O   UNL     1      34.248   3.467  14.953  0.00  0.00    +0.000 OA
ATOM      4  C   UNL     1      36.342   4.724  14.769  0.00  0.00    +0.000 C 
ATOM      5  C   UNL     1      37.605   4.383  14.910  0.00  0.00    +0.000 C 
ATOM      6  C   UNL     1      37.731   2.977  15.238  0.00  0.00    +0.000 C 
ATOM      7  O   UNL     1      38.796   2.303  15.446  0.00  0.00    +0.000 OA
ENDROOT
BRANCH   1  11
ATOM      8  C   UNL     1      35.415  -1.511  16.110  0.00  0.00    +0.000 A 
ATOM      9  C   UNL     1      36.187  -1.204  15.011  0.00  0.00    +0.000 A 
ATOM     10  C   UNL     1      36.498   0.112  14.763  0.00  0.00    +0.000 A 
ATOM     11  C   UNL     1      36.061   1.126  15.582  0.00  0.00    +0.000 A 
ATOM     12  C   UNL     1      35.304   0.837  16.661  0.00  0.00    +0.000 A 
ATOM     13  C   UNL     1      34.976  -0.475  16.934  0.00  0.00    +0.000 A 
BRANCH   8  15
ATOM     14  C   UNL     1      34.566  -3.674  15.362  0.00  0.00    +0.000 C 
ATOM     15  O   UNL     1      35.097  -2.840  16.364  0.00  0.00    +0.000 OA
ENDBRANCH   8  15
ENDBRANCH   1  11
BRANCH   4  16
ATOM     16  N   UNL     1      35.890   6.042  14.449  0.00  0.00    +0.000 NA
BRANCH  16  17
ATOM     17  C   UNL     1      35.492   6.305  13.119  0.00  0.00    +0.000 A 
ATOM     18  C   UNL     1      36.307   6.028  12.037  0.00  0.00    +0.000 A 
ATOM     19  C   UNL     1      35.865   6.303  10.763  0.00  0.00    +0.000 A 
ATOM     20  C   UNL     1      34.640   6.846  10.491  0.00  0.00    +0.000 A 
ATOM     21  C   UNL     1      33.803   7.132  11.575  0.00  0.00    +0.000 A 
ATOM     22  C   UNL     1      34.260   6.850  12.861  0.00  0.00    +0.000 A 
BRANCH  20  23
ATOM     23  C   UNL     1      34.159   7.143   9.122  0.00  0.00    +0.000 C 
ATOM     24  C   UNL     1      34.591   6.071   8.170  0.00  0.00    +0.000 C 
ATOM     25  C   UNL     1      34.667   8.518   8.694  0.00  0.00    +0.000 C 
ENDBRANCH  20  23
ENDBRANCH  16  17
ENDBRANCH   4  16
BRANCH   5  26
ATOM     26  S   UNL     1      38.987   5.526  14.717  0.00  0.00    +0.000 S 
BRANCH  26  27
ATOM     27  C   UNL     1      39.686   5.803  16.323  0.00  0.00    +0.000 A 
ATOM     28  C   UNL     1      38.869   5.547  17.410  0.00  0.00    +0.000 A 
ATOM     29  C   UNL     1      39.293   5.717  18.691  0.00  0.00    +0.000 A 
ATOM     30  C   UNL     1      40.590   6.163  18.936  0.00  0.00    +0.000 A 
ATOM     31  C   UNL     1      41.086   6.358  20.343  0.00  0.00    +0.000 C 
ATOM     32  C   UNL     1      41.389   6.414  17.843  0.00  0.00    +0.000 A 
ATOM     33  C   UNL     1      40.963   6.243  16.543  0.00  0.00    +0.000 A 
ENDBRANCH  26  27
ENDBRANCH   5  26
TORSDOF 7
ENDMDL
MODEL 4
REMARK VINA RESULT:      -7.1      3.318      8.435
REMARK  Name = 
REMARK  7 active torsions:
REMARK  status: ('A' for Active; 'I' for Inactive)
REMARK    1  A    between atoms: O_2  and  C_3
REMARK    2  A    between atoms: C_6  and  N_7
REMARK    3  A    between atoms: C_10  and  N_11
REMARK    4  A    between atoms: N_11  and  C_12
REMARK    5  A    between atoms: C_15  and  C_16
REMARK    6  A    between atoms: C_21  and  S_22
REMARK    7  A    between atoms: S_22  and  C_23
REMARK                            x       y       z     vdW  Elec       q    Type
REMARK                         _______ _______ _______ _____ _____    ______ ____
ROOT
ATOM      1  N   UNL     1      37.007   1.471  14.708  0.00  0.00    +0.000 N 
ATOM      2  C   UNL     1      38.240   2.154  14.855  0.00  0.00    +0.000 C 
ATOM      3  O   UNL     1      39.374   1.591  15.078  0.00  0.00    +0.000 OA
ATOM      4  C   UNL     1      37.976   3.569  14.711  0.00  0.00    +0.000 C 
ATOM      5  C   UNL     1      36.688   3.725  14.493  0.00  0.00    +0.000 C 
ATOM      6  C   UNL     1      36.004   2.448  14.477  0.00  0.00    +0.000 C 
ATOM      7  O   UNL     1      34.761   2.215  14.295  0.00  0.00    +0.000 OA
ENDROOT
BRANCH   1  11
ATOM      8  C   UNL     1      36.298  -2.650  14.938  0.00  0.00    +0.000 A 
ATOM      9  C   UNL     1      35.777  -1.805  15.893  0.00  0.00    +0.000 A 
ATOM     10  C   UNL     1      36.024  -0.456  15.795  0.00  0.00    +0.000 A 
ATOM     11  C   UNL     1      36.775   0.070  14.770  0.00  0.00    +0.000 A 
ATOM     12  C   UNL     1      37.290  -0.748  13.829  0.00  0.00    +0.000 A 
ATOM     13  C   UNL     1      37.059  -2.106  13.903  0.00  0.00    +0.000 A 
BRANCH   8  15
ATOM     14  C   UNL     1      36.429  -4.752  16.171  0.00  0.00    +0.000 C 
ATOM     15  O   UNL     1      36.052  -4.014  15.034  0.00  0.00    +0.000 OA
ENDBRANCH   8  15
ENDBRANCH   1  11
BRANCH   4  16
ATOM     16  N   UNL     1      38.922   4.638  14.779  0.00  0.00    +0.000 NA
BRANCH  16  17
ATOM     17  C   UNL     1      39.330   5.086  16.057  0.00  0.00    +0.000 A 
ATOM     18  C   UNL     1      40.466   5.850  16.242  0.00  0.00    +0.000 A 
ATOM     19  C   UNL     1      40.813   6.260  17.509  0.00  0.00    +0.000 A 
ATOM     20  C   UNL     1      40.087   5.952  18.626  0.00  0.00    +0.000 A 
ATOM     21  C   UNL     1      38.934   5.178  18.456  0.00  0.00    +0.000 A 
ATOM     22  C   UNL     1      38.592   4.769  17.168  0.00  0.00    +0.000 A 
BRANCH  20  23
ATOM     23  C   UNL     1      40.455   6.390  19.991  0.00  0.00    +0.000 C 
ATOM     24  C   UNL     1      39.569   7.511  20.440  0.00  0.00    +0.000 C 
ATOM     25  C   UNL     1      41.929   6.791  20.015  0.00  0.00    +0.000 C 
ENDBRANCH  20  23
ENDBRANCH  16  17
ENDBRANCH   4  16
BRANCH   5  26
ATOM     26  S   UNL     1      35.892   5.326  14.249  0.00  0.00    +0.000 S 
BRANCH  26  27
ATOM     27  C   UNL     1      35.807   5.624  12.504  0.00  0.00    +0.000 A 
ATOM     28  C   UNL     1      34.906   6.585  12.080  0.00  0.00    +0.000 A 
ATOM     29  C   UNL     1      34.753   6.905  10.766  0.00  0.00    +0.000 A 
ATOM     30  C   UNL     1      35.521   6.256   9.803  0.00  0.00    +0.000 A 
ATOM     31  C   UNL     1      35.374   6.593   8.344  0.00  0.00    +0.000 C 
ATOM     32  C   UNL     1      36.412   5.302  10.241  0.00  0.00    +0.000 A 
ATOM     33  C   UNL     1      36.570   4.975  11.571  0.00  0.00    +0.000 A 
ENDBRANCH  26  27
ENDBRANCH   5  26
TORSDOF 7
ENDMDL
MODEL 5
REMARK VINA RESULT:      -7.1      3.351      8.887
REMARK  Name = 
REMARK  7 active torsions:
REMARK  status: ('A' for Active; 'I' for Inactive)
REMARK    1  A    between atoms: O_2  and  C_3
REMARK    2  A    between atoms: C_6  and  N_7
REMARK    3  A    between atoms: C_10  and  N_11
REMARK    4  A    between atoms: N_11  and  C_12
REMARK    5  A    between atoms: C_15  and  C_16
REMARK    6  A    between atoms: C_21  and  S_22
REMARK    7  A    between atoms: S_22  and  C_23
REMARK                            x       y       z     vdW  Elec       q    Type
REMARK                         _______ _______ _______ _____ _____    ______ ____
ROOT
ATOM      1  N   UNL     1      36.687   3.539  15.302  0.00  0.00    +0.000 N 
ATOM      2  C   UNL     1      35.961   4.575  14.664  0.00  0.00    +0.000 C 
ATOM      3  O   UNL     1      34.735   4.491  14.283  0.00  0.00    +0.000 OA
ATOM      4  C   UNL     1      36.845   5.711  14.529  0.00  0.00    +0.000 C 
ATOM      5  C   UNL     1      38.011   5.386  15.046  0.00  0.00    +0.000 C 
ATOM      6  C   UNL     1      37.994   4.029  15.556  0.00  0.00    +0.000 C 
ATOM      7  O   UNL     1      38.939   3.381  16.121  0.00  0.00    +0.000 OA
ENDROOT
BRANCH   1  11
ATOM      8  C   UNL     1      35.363  -0.314  16.271  0.00  0.00    +0.000 A 
ATOM      9  C   UNL     1      36.228  -0.126  15.216  0.00  0.00    +0.000 A 
ATOM     10  C   UNL     1      36.649   1.149  14.918  0.00  0.00    +0.000 A 
ATOM     11  C   UNL     1      36.228   2.238  15.645  0.00  0.00    +0.000 A 
ATOM     12  C   UNL     1      35.380   2.065  16.680  0.00  0.00    +0.000 A 
ATOM     13  C   UNL     1      34.942   0.798  17.001  0.00  0.00    +0.000 A 
BRANCH   8  15
ATOM     14  C   UNL     1      35.839  -2.602  16.974  0.00  0.00    +0.000 C 
ATOM     15  O   UNL     1      34.935  -1.600  16.574  0.00  0.00    +0.000 OA
ENDBRANCH   8  15
ENDBRANCH   1  11
BRANCH   4  16
ATOM     16  N   UNL     1      36.542   6.981  13.949  0.00  0.00    +0.000 NA
BRANCH  16  17
ATOM     17  C   UNL     1      35.729   7.872  14.686  0.00  0.00    +0.000 A 
ATOM     18  C   UNL     1      34.366   7.971  14.476  0.00  0.00    +0.000 A 
ATOM     19  C   UNL     1      33.623   8.855  15.225  0.00  0.00    +0.000 A 
ATOM     20  C   UNL     1      34.160   9.662  16.188  0.00  0.00    +0.000 A 
ATOM     21  C   UNL     1      35.537   9.575  16.413  0.00  0.00    +0.000 A 
ATOM     22  C   UNL     1      36.280   8.677  15.649  0.00  0.00    +0.000 A 
BRANCH  20  23
ATOM     23  C   UNL     1      33.365  10.614  16.997  0.00  0.00    +0.000 C 
ATOM     24  C   UNL     1      34.228  11.738  17.483  0.00  0.00    +0.000 C 
ATOM     25  C   UNL     1      32.704   9.868  18.155  0.00  0.00    +0.000 C 
ENDBRANCH  20  23
ENDBRANCH  16  17
ENDBRANCH   4  16
BRANCH   5  26
ATOM     26  S   UNL     1      39.433   6.493  15.104  0.00  0.00    +0.000 S 
BRANCH  26  27
ATOM     27  C   UNL     1      40.084   6.448  16.753  0.00  0.00    +0.000 A 
ATOM     28  C   UNL     1      41.461   6.450  16.879  0.00  0.00    +0.000 A 
ATOM     29  C   UNL     1      42.079   6.422  18.092  0.00  0.00    +0.000 A 
ATOM     30  C   UNL     1      41.314   6.390  19.255  0.00  0.00    +0.000 A 
ATOM     31  C   UNL     1      41.969   6.361  20.609  0.00  0.00    +0.000 C 
ATOM     32  C   UNL     1      39.944   6.387  19.112  0.00  0.00    +0.000 A 
ATOM     33  C   UNL     1      39.315   6.416  17.885  0.00  0.00    +0.000 A 
ENDBRANCH  26  27
ENDBRANCH   5  26
TORSDOF 7
ENDMDL
MODEL 6
REMARK VINA RESULT:      -7.0      0.991      3.483
REMARK  Name = 
REMARK  7 active torsions:
REMARK  status: ('A' for Active; 'I' for Inactive)
REMARK    1  A    between atoms: O_2  and  C_3
REMARK    2  A    between atoms: C_6  and  N_7
REMARK    3  A    between atoms: C_10  and  N_11
REMARK    4  A    between atoms: N_11  and  C_12
REMARK    5  A    between atoms: C_15  and  C_16
REMARK    6  A    between atoms: C_21  and  S_22
REMARK    7  A    between atoms: S_22  and  C_23
REMARK                            x       y       z     vdW  Elec       q    Type
REMARK                         _______ _______ _______ _____ _____    ______ ____
ROOT
ATOM      1  N   UNL     1      38.278   4.252  15.995  0.00  0.00    +0.000 N 
ATOM      2  C   UNL     1      39.059   3.968  14.847  0.00  0.00    +0.000 C 
ATOM      3  O   UNL     1      40.107   4.621  14.488  0.00  0.00    +0.000 OA
ATOM      4  C   UNL     1      38.461   2.833  14.180  0.00  0.00    +0.000 C 
ATOM      5  C   UNL     1      37.405   2.462  14.871  0.00  0.00    +0.000 C 
ATOM      6  C   UNL     1      37.219   3.308  16.033  0.00  0.00    +0.000 C 
ATOM      7  O   UNL     1      36.306   3.245  16.924  0.00  0.00    +0.000 OA
ENDROOT
BRANCH   1  11
ATOM      8  C   UNL     1      38.867   7.314  18.790  0.00  0.00    +0.000 A 
ATOM      9  C   UNL     1      38.330   7.600  17.556  0.00  0.00    +0.000 A 
ATOM     10  C   UNL     1      38.146   6.577  16.655  0.00  0.00    +0.000 A 
ATOM     11  C   UNL     1      38.484   5.279  16.956  0.00  0.00    +0.000 A 
ATOM     12  C   UNL     1      39.012   4.987  18.163  0.00  0.00    +0.000 A 
ATOM     13  C   UNL     1      39.208   5.993  19.085  0.00  0.00    +0.000 A 
BRANCH   8  15
ATOM     14  C   UNL     1      38.007   8.803  20.522  0.00  0.00    +0.000 C 
ATOM     15  O   UNL     1      39.056   8.345  19.703  0.00  0.00    +0.000 OA
ENDBRANCH   8  15
ENDBRANCH   1  11
BRANCH   4  16
ATOM     16  N   UNL     1      38.912   2.195  12.984  0.00  0.00    +0.000 NA
BRANCH  16  17
ATOM     17  C   UNL     1      39.651   0.996  13.107  0.00  0.00    +0.000 A 
ATOM     18  C   UNL     1      40.368   0.685  14.248  0.00  0.00    +0.000 A 
ATOM     19  C   UNL     1      41.067  -0.498  14.312  0.00  0.00    +0.000 A 
ATOM     20  C   UNL     1      41.099  -1.410  13.294  0.00  0.00    +0.000 A 
ATOM     21  C   UNL     1      40.380  -1.111  12.133  0.00  0.00    +0.000 A 
ATOM     22  C   UNL     1      39.675   0.090  12.078  0.00  0.00    +0.000 A 
BRANCH  20  23
ATOM     23  C   UNL     1      41.850  -2.685  13.359  0.00  0.00    +0.000 C 
ATOM     24  C   UNL     1      43.325  -2.429  13.332  0.00  0.00    +0.000 C 
ATOM     25  C   UNL     1      41.413  -3.589  12.208  0.00  0.00    +0.000 C 
ENDBRANCH  20  23
ENDBRANCH  16  17
ENDBRANCH   4  16
BRANCH   5  26
ATOM     26  S   UNL     1      36.337   1.081  14.419  0.00  0.00    +0.000 S 
BRANCH  26  27
ATOM     27  C   UNL     1      37.051  -0.395  15.092  0.00  0.00    +0.000 A 
ATOM     28  C   UNL     1      37.199  -1.465  14.228  0.00  0.00    +0.000 A 
ATOM     29  C   UNL     1      37.739  -2.650  14.626  0.00  0.00    +0.000 A 
ATOM     30  C   UNL     1      38.162  -2.808  15.943  0.00  0.00    +0.000 A 
ATOM     31  C   UNL     1      38.764  -4.105  16.410  0.00  0.00    +0.000 C 
ATOM     32  C   UNL     1      38.007  -1.733  16.791  0.00  0.00    +0.000 A 
ATOM     33  C   UNL     1      37.461  -0.532  16.391  0.00  0.00    +0.000 A 
ENDBRANCH  26  27
ENDBRANCH   5  26
TORSDOF 7
ENDMDL
MODEL 7
REMARK VINA RESULT:      -6.9      4.065      9.216
REMARK  Name = 
REMARK  7 active torsions:
REMARK  status: ('A' for Active; 'I' for Inactive)
REMARK    1  A    between atoms: O_2  and  C_3
REMARK    2  A    between atoms: C_6  and  N_7
REMARK    3  A    between atoms: C_10  and  N_11
REMARK    4  A    between atoms: N_11  and  C_12
REMARK    5  A    between atoms: C_15  and  C_16
REMARK    6  A    between atoms: C_21  and  S_22
REMARK    7  A    between atoms: S_22  and  C_23
REMARK                            x       y       z     vdW  Elec       q    Type
REMARK                         _______ _______ _______ _____ _____    ______ ____
ROOT
ATOM      1  N   UNL     1      35.935  -3.026  15.781  0.00  0.00    +0.000 N 
ATOM      2  C   UNL     1      37.208  -2.592  15.333  0.00  0.00    +0.000 C 
ATOM      3  O   UNL     1      37.990  -3.264  14.565  0.00  0.00    +0.000 OA
ATOM      4  C   UNL     1      37.447  -1.282  15.898  0.00  0.00    +0.000 C 
ATOM      5  C   UNL     1      36.402  -0.953  16.626  0.00  0.00    +0.000 C 
ATOM      6  C   UNL     1      35.401  -2.001  16.604  0.00  0.00    +0.000 C 
ATOM      7  O   UNL     1      34.267  -2.029  17.191  0.00  0.00    +0.000 OA
ENDROOT
BRANCH   1  11
ATOM      8  C   UNL     1      34.032  -6.658  14.933  0.00  0.00    +0.000 A 
ATOM      9  C   UNL     1      35.008  -6.600  15.903  0.00  0.00    +0.000 A 
ATOM     10  C   UNL     1      35.618  -5.395  16.163  0.00  0.00    +0.000 A 
ATOM     11  C   UNL     1      35.278  -4.251  15.481  0.00  0.00    +0.000 A 
ATOM     12  C   UNL     1      34.325  -4.296  14.528  0.00  0.00    +0.000 A 
ATOM     13  C   UNL     1      33.696  -5.491  14.246  0.00  0.00    +0.000 A 
BRANCH   8  15
ATOM     14  C   UNL     1      34.119  -8.946  14.088  0.00  0.00    +0.000 C 
ATOM     15  O   UNL     1      33.414  -7.874  14.666  0.00  0.00    +0.000 OA
ENDBRANCH   8  15
ENDBRANCH   1  11
BRANCH   4  16
ATOM     16  N   UNL     1      38.599  -0.456  15.715  0.00  0.00    +0.000 NA
BRANCH  16  17
ATOM     17  C   UNL     1      38.608   0.444  14.625  0.00  0.00    +0.000 A 
ATOM     18  C   UNL     1      37.806   0.263  13.513  0.00  0.00    +0.000 A 
ATOM     19  C   UNL     1      37.854   1.173  12.483  0.00  0.00    +0.000 A 
ATOM     20  C   UNL     1      38.665   2.274  12.488  0.00  0.00    +0.000 A 
ATOM     21  C   UNL     1      39.483   2.471  13.605  0.00  0.00    +0.000 A 
ATOM     22  C   UNL     1      39.426   1.543  14.643  0.00  0.00    +0.000 A 
BRANCH  20  23
ATOM     23  C   UNL     1      38.721   3.257  11.382  0.00  0.00    +0.000 C 
ATOM     24  C   UNL     1      39.173   4.592  11.888  0.00  0.00    +0.000 C 
ATOM     25  C   UNL     1      37.353   3.342  10.709  0.00  0.00    +0.000 C 
ENDBRANCH  20  23
ENDBRANCH  16  17
ENDBRANCH   4  16
BRANCH   5  26
ATOM     26  S   UNL     1      36.248   0.602  17.527  0.00  0.00    +0.000 S 
BRANCH  26  27
ATOM     27  C   UNL     1      36.059   1.900  16.334  0.00  0.00    +0.000 A 
ATOM     28  C   UNL     1      36.858   3.017  16.497  0.00  0.00    +0.000 A 
ATOM     29  C   UNL     1      36.807   4.076  15.644  0.00  0.00    +0.000 A 
ATOM     30  C   UNL     1      35.928   4.051  14.564  0.00  0.00    +0.000 A 
ATOM     31  C   UNL     1      35.853   5.206  13.604  0.00  0.00    +0.000 C 
ATOM     32  C   UNL     1      35.139   2.932  14.417  0.00  0.00    +0.000 A 
ATOM     33  C   UNL     1      35.188   1.858  15.279  0.00  0.00    +0.000 A 
ENDBRANCH  26  27
ENDBRANCH   5  26
TORSDOF 7
ENDMDL
MODEL 8
REMARK VINA RESULT:      -6.7      3.974      6.842
REMARK  Name = 
REMARK  7 active torsions:
REMARK  status: ('A' for Active; 'I' for Inactive)
REMARK    1  A    between atoms: O_2  and  C_3
REMARK    2  A    between atoms: C_6  and  N_7
REMARK    3  A    between atoms: C_10  and  N_11
REMARK    4  A    between atoms: N_11  and  C_12
REMARK    5  A    between atoms: C_15  and  C_16
REMARK    6  A    between atoms: C_21  and  S_22
REMARK    7  A    between atoms: S_22  and  C_23
REMARK                            x       y       z     vdW  Elec       q    Type
REMARK                         _______ _______ _______ _____ _____    ______ ____
ROOT
ATOM      1  N   UNL     1      42.569  -0.308  13.693  0.00  0.00    +0.000 N 
ATOM      2  C   UNL     1      41.677  -1.398  13.849  0.00  0.00    +0.000 C 
ATOM      3  O   UNL     1      41.988  -2.541  14.349  0.00  0.00    +0.000 OA
ATOM      4  C   UNL     1      40.386  -0.983  13.346  0.00  0.00    +0.000 C 
ATOM      5  C   UNL     1      40.492   0.259  12.923  0.00  0.00    +0.000 C 
ATOM      6  C   UNL     1      41.840   0.759  13.107  0.00  0.00    +0.000 C 
ATOM      7  O   UNL     1      42.306   1.911  12.814  0.00  0.00    +0.000 OA
ENDROOT
BRANCH   1  11
ATOM      8  C   UNL     1      46.606  -0.138  14.794  0.00  0.00    +0.000 A 
ATOM      9  C   UNL     1      45.627  -0.177  15.762  0.00  0.00    +0.000 A 
ATOM     10  C   UNL     1      44.309  -0.232  15.375  0.00  0.00    +0.000 A 
ATOM     11  C   UNL     1      43.944  -0.251  14.049  0.00  0.00    +0.000 A 
ATOM     12  C   UNL     1      44.895  -0.213  13.092  0.00  0.00    +0.000 A 
ATOM     13  C   UNL     1      46.225  -0.157  13.452  0.00  0.00    +0.000 A 
BRANCH   8  15
ATOM     14  C   UNL     1      48.506  -1.062  16.016  0.00  0.00    +0.000 C 
ATOM     15  O   UNL     1      47.939  -0.081  15.181  0.00  0.00    +0.000 OA
ENDBRANCH   8  15
ENDBRANCH   1  11
BRANCH   4  16
ATOM     16  N   UNL     1      39.183  -1.753  13.305  0.00  0.00    +0.000 NA
BRANCH  16  17
ATOM     17  C   UNL     1      38.329  -1.714  14.431  0.00  0.00    +0.000 A 
ATOM     18  C   UNL     1      38.797  -1.441  15.703  0.00  0.00    +0.000 A 
ATOM     19  C   UNL     1      37.918  -1.414  16.761  0.00  0.00    +0.000 A 
ATOM     20  C   UNL     1      36.577  -1.644  16.633  0.00  0.00    +0.000 A 
ATOM     21  C   UNL     1      36.087  -1.921  15.352  0.00  0.00    +0.000 A 
ATOM     22  C   UNL     1      36.985  -1.947  14.287  0.00  0.00    +0.000 A 
BRANCH  20  23
ATOM     23  C   UNL     1      35.626  -1.615  17.768  0.00  0.00    +0.000 C 
ATOM     24  C   UNL     1      34.224  -1.431  17.275  0.00  0.00    +0.000 C 
ATOM     25  C   UNL     1      36.032  -0.510  18.741  0.00  0.00    +0.000 C 
ENDBRANCH  20  23
ENDBRANCH  16  17
ENDBRANCH   4  16
BRANCH   5  26
ATOM     26  S   UNL     1      39.130   1.202  12.210  0.00  0.00    +0.000 S 
BRANCH  26  27
ATOM     27  C   UNL     1      37.962   1.525  13.504  0.00  0.00    +0.000 A 
ATOM     28  C   UNL     1      36.627   1.325  13.203  0.00  0.00    +0.000 A 
ATOM     29  C   UNL     1      35.639   1.535  14.114  0.00  0.00    +0.000 A 
ATOM     30  C   UNL     1      35.963   1.965  15.398  0.00  0.00    +0.000 A 
ATOM     31  C   UNL     1      34.892   2.203  16.427  0.00  0.00    +0.000 C 
ATOM     32  C   UNL     1      37.297   2.160  15.682  0.00  0.00    +0.000 A 
ATOM     33  C   UNL     1      38.301   1.948  14.761  0.00  0.00    +0.000 A 
ENDBRANCH  26  27
ENDBRANCH   5  26
TORSDOF 7
ENDMDL
MODEL 9
REMARK VINA RESULT:      -6.7      3.274      8.424
REMARK  Name = 
REMARK  7 active torsions:
REMARK  status: ('A' for Active; 'I' for Inactive)
REMARK    1  A    between atoms: O_2  and  C_3
REMARK    2  A    between atoms: C_6  and  N_7
REMARK    3  A    between atoms: C_10  and  N_11
REMARK    4  A    between atoms: N_11  and  C_12
REMARK    5  A    between atoms: C_15  and  C_16
REMARK    6  A    between atoms: C_21  and  S_22
REMARK    7  A    between atoms: S_22  and  C_23
REMARK                            x       y       z     vdW  Elec       q    Type
REMARK                         _______ _______ _______ _____ _____    ______ ____
ROOT
ATOM      1  N   UNL     1      40.647  -1.602  14.282  0.00  0.00    +0.000 N 
ATOM      2  C   UNL     1      39.934  -0.478  13.793  0.00  0.00    +0.000 C 
ATOM      3  O   UNL     1      40.320   0.277  12.827  0.00  0.00    +0.000 OA
ATOM      4  C   UNL     1      38.724  -0.354  14.575  0.00  0.00    +0.000 C 
ATOM      5  C   UNL     1      38.708  -1.325  15.462  0.00  0.00    +0.000 C 
ATOM      6  C   UNL     1      39.887  -2.158  15.344  0.00  0.00    +0.000 C 
ATOM      7  O   UNL     1      40.208  -3.184  16.034  0.00  0.00    +0.000 OA
ENDROOT
BRANCH   1  11
ATOM      8  C   UNL     1      44.337  -3.073  12.958  0.00  0.00    +0.000 A 
ATOM      9  C   UNL     1      44.285  -2.179  14.003  0.00  0.00    +0.000 A 
ATOM     10  C   UNL     1      43.061  -1.710  14.420  0.00  0.00    +0.000 A 
ATOM     11  C   UNL     1      41.891  -2.112  13.820  0.00  0.00    +0.000 A 
ATOM     12  C   UNL     1      41.929  -2.988  12.795  0.00  0.00    +0.000 A 
ATOM     13  C   UNL     1      43.144  -3.474  12.356  0.00  0.00    +0.000 A 
BRANCH   8  15
ATOM     14  C   UNL     1      46.476  -4.149  13.429  0.00  0.00    +0.000 C 
ATOM     15  O   UNL     1      45.572  -3.548  12.534  0.00  0.00    +0.000 OA
ENDBRANCH   8  15
ENDBRANCH   1  11
BRANCH   4  16
ATOM     16  N   UNL     1      37.699   0.632  14.434  0.00  0.00    +0.000 NA
BRANCH  16  17
ATOM     17  C   UNL     1      37.854   1.857  15.123  0.00  0.00    +0.000 A 
ATOM     18  C   UNL     1      38.891   2.730  14.853  0.00  0.00    +0.000 A 
ATOM     19  C   UNL     1      38.989   3.909  15.554  0.00  0.00    +0.000 A 
ATOM     20  C   UNL     1      38.105   4.283  16.527  0.00  0.00    +0.000 A 
ATOM     21  C   UNL     1      37.050   3.411  16.813  0.00  0.00    +0.000 A 
ATOM     22  C   UNL     1      36.959   2.219  16.097  0.00  0.00    +0.000 A 
BRANCH  20  23
ATOM     23  C   UNL     1      38.206   5.552  17.285  0.00  0.00    +0.000 C 
ATOM     24  C   UNL     1      38.804   6.627  16.431  0.00  0.00    +0.000 C 
ATOM     25  C   UNL     1      39.021   5.320  18.555  0.00  0.00    +0.000 C 
ENDBRANCH  20  23
ENDBRANCH  16  17
ENDBRANCH   4  16
BRANCH   5  26
ATOM     26  S   UNL     1      37.385  -1.573  16.663  0.00  0.00    +0.000 S 
BRANCH  26  27
ATOM     27  C   UNL     1      36.481  -3.019  16.177  0.00  0.00    +0.000 A 
ATOM     28  C   UNL     1      35.383  -2.822  15.359  0.00  0.00    +0.000 A 
ATOM     29  C   UNL     1      34.613  -3.854  14.917  0.00  0.00    +0.000 A 
ATOM     30  C   UNL     1      34.928  -5.158  15.289  0.00  0.00    +0.000 A 
ATOM     31  C   UNL     1      34.096  -6.318  14.813  0.00  0.00    +0.000 C 
ATOM     32  C   UNL     1      36.024  -5.337  16.104  0.00  0.00    +0.000 A 
ATOM     33  C   UNL     1      36.806  -4.295  16.554  0.00  0.00    +0.000 A 
ENDBRANCH  26  27
ENDBRANCH   5  26
TORSDOF 7
ENDMDL
MODEL 10
REMARK VINA RESULT:      -6.6      3.376      6.304
REMARK  Name = 
REMARK  7 active torsions:
REMARK  status: ('A' for Active; 'I' for Inactive)
REMARK    1  A    between atoms: O_2  and  C_3
REMARK    2  A    between atoms: C_6  and  N_7
REMARK    3  A    between atoms: C_10  and  N_11
REMARK    4  A    between atoms: N_11  and  C_12
REMARK    5  A    between atoms: C_15  and  C_16
REMARK    6  A    between atoms: C_21  and  S_22
REMARK    7  A    between atoms: S_22  and  C_23
REMARK                            x       y       z     vdW  Elec       q    Type
REMARK                         _______ _______ _______ _____ _____    ______ ____
ROOT
ATOM      1  N   UNL     1      38.243   5.540  16.204  0.00  0.00    +0.000 N 
ATOM      2  C   UNL     1      37.759   4.240  15.917  0.00  0.00    +0.000 C 
ATOM      3  O   UNL     1      38.121   3.166  16.524  0.00  0.00    +0.000 OA
ATOM      4  C   UNL     1      36.807   4.357  14.835  0.00  0.00    +0.000 C 
ATOM      5  C   UNL     1      36.723   5.626  14.498  0.00  0.00    +0.000 C 
ATOM      6  C   UNL     1      37.599   6.440  15.316  0.00  0.00    +0.000 C 
ATOM      7  O   UNL     1      37.779   7.704  15.273  0.00  0.00    +0.000 OA
ENDROOT
BRANCH   1  11
ATOM      8  C   UNL     1      41.081   6.646  19.077  0.00  0.00    +0.000 A 
ATOM      9  C   UNL     1      41.458   6.481  17.763  0.00  0.00    +0.000 A 
ATOM     10  C   UNL     1      40.506   6.117  16.839  0.00  0.00    +0.000 A 
ATOM     11  C   UNL     1      39.193   5.916  17.193  0.00  0.00    +0.000 A 
ATOM     12  C   UNL     1      38.813   6.075  18.477  0.00  0.00    +0.000 A 
ATOM     13  C   UNL     1      39.746   6.439  19.426  0.00  0.00    +0.000 A 
BRANCH   8  15
ATOM     14  C   UNL     1      43.408   6.759  19.806  0.00  0.00    +0.000 C 
ATOM     15  O   UNL     1      42.039   7.013  20.015  0.00  0.00    +0.000 OA
ENDBRANCH   8  15
ENDBRANCH   1  11
BRANCH   4  16
ATOM     16  N   UNL     1      36.063   3.304  14.217  0.00  0.00    +0.000 NA
BRANCH  16  17
ATOM     17  C   UNL     1      35.766   2.157  14.988  0.00  0.00    +0.000 A 
ATOM     18  C   UNL     1      34.922   2.202  16.083  0.00  0.00    +0.000 A 
ATOM     19  C   UNL     1      34.668   1.053  16.795  0.00  0.00    +0.000 A 
ATOM     20  C   UNL     1      35.209  -0.163  16.481  0.00  0.00    +0.000 A 
ATOM     21  C   UNL     1      36.065  -0.226  15.377  0.00  0.00    +0.000 A 
ATOM     22  C   UNL     1      36.316   0.944  14.663  0.00  0.00    +0.000 A 
BRANCH  20  23
ATOM     23  C   UNL     1      34.937  -1.403  17.244  0.00  0.00    +0.000 C 
ATOM     24  C   UNL     1      35.953  -1.585  18.329  0.00  0.00    +0.000 C 
ATOM     25  C   UNL     1      34.915  -2.592  16.286  0.00  0.00    +0.000 C 
ENDBRANCH  20  23
ENDBRANCH  16  17
ENDBRANCH   4  16
BRANCH   5  26
ATOM     26  S   UNL     1      35.653   6.255  13.189  0.00  0.00    +0.000 S 
BRANCH  26  27
ATOM     27  C   UNL     1      35.033   7.832  13.711  0.00  0.00    +0.000 A 
ATOM     28  C   UNL     1      35.472   8.938  13.006  0.00  0.00    +0.000 A 
ATOM     29  C   UNL     1      35.063  10.200  13.309  0.00  0.00    +0.000 A 
ATOM     30  C   UNL     1      34.174  10.404  14.360  0.00  0.00    +0.000 A 
ATOM     31  C   UNL     1      33.703  11.788  14.716  0.00  0.00    +0.000 C 
ATOM     32  C   UNL     1      33.748   9.292  15.053  0.00  0.00    +0.000 A 
ATOM     33  C   UNL     1      34.159   8.012  14.749  0.00  0.00    +0.000 A 
ENDBRANCH  26  27
ENDBRANCH   5  26
TORSDOF 7
ENDMDL
