MODEL 1
REMARK VINA RESULT:      -7.5      0.000      0.000
REMARK  Name = 
REMARK  10 active torsions:
REMARK  status: ('A' for Active; 'I' for Inactive)
REMARK    1  A    between atoms: C_2  and  O_3
REMARK    2  A    between atoms: O_3  and  C_4
REMARK    3  A    between atoms: C_4  and  C_6
REMARK    4  A    between atoms: C_9  and  C_10
REMARK    5  A    between atoms: C_10  and  N_11
REMARK    6  A    between atoms: N_11  and  C_12
REMARK    7  A    between atoms: C_12  and  C_13
REMARK    8  A    between atoms: C_17  and  O_18
REMARK    9  A    between atoms: O_18  and  C_19
REMARK   10  A    between atoms: C_19  and  C_20
REMARK                            x       y       z     vdW  Elec       q    Type
REMARK                         _______ _______ _______ _____ _____    ______ ____
ROOT
ATOM      1  C   UNL     1      39.928   2.057  14.194  0.00  0.00    +0.000 C 
ENDROOT
BRANCH   1   2
ATOM      2  C   UNL     1      40.244   0.616  14.391  0.00  0.00    +0.000 A 
ATOM      3  C   UNL     1      41.486   0.170  13.991  0.00  0.00    +0.000 A 
ATOM      4  C   UNL     1      41.845  -1.163  14.148  0.00  0.00    +0.000 A 
ATOM      5  C   UNL     1      40.916  -1.998  14.709  0.00  0.00    +0.000 A 
ATOM      6  C   UNL     1      39.676  -1.627  15.124  0.00  0.00    +0.000 A 
ATOM      7  C   UNL     1      39.357  -0.273  14.947  0.00  0.00    +0.000 A 
BRANCH   6   8
ATOM      8  O   UNL     1      38.725  -2.449  15.691  0.00  0.00    +0.000 OA
BRANCH   8   9
ATOM      9  C   UNL     1      37.361  -2.130  15.578  0.00  0.00    +0.000 C 
BRANCH   9  10
ATOM     10  C   UNL     1      36.885  -1.587  16.868  0.00  0.00    +0.000 A 
ATOM     11  C   UNL     1      35.725  -0.842  16.878  0.00  0.00    +0.000 A 
ATOM     12  C   UNL     1      35.184  -0.278  18.011  0.00  0.00    +0.000 A 
ATOM     13  C   UNL     1      35.815  -0.452  19.220  0.00  0.00    +0.000 A 
ATOM     14  C   UNL     1      36.976  -1.192  19.243  0.00  0.00    +0.000 A 
ATOM     15  C   UNL     1      37.513  -1.759  18.081  0.00  0.00    +0.000 A 
ENDBRANCH   9  10
ENDBRANCH   8   9
ENDBRANCH   6   8
ENDBRANCH   1   2
BRANCH   1  16
ATOM     16  N   UNL     1      38.779   2.359  15.052  0.00  0.00    +0.000 NA
BRANCH  16  17
ATOM     17  C   UNL     1      38.510   3.776  14.913  0.00  0.00    +0.000 C 
BRANCH  17  21
ATOM     18  C   UNL     1      39.612   5.764  18.527  0.00  0.00    +0.000 A 
ATOM     19  C   UNL     1      40.220   6.043  17.322  0.00  0.00    +0.000 A 
ATOM     20  C   UNL     1      39.880   5.414  16.147  0.00  0.00    +0.000 A 
ATOM     21  C   UNL     1      38.892   4.458  16.141  0.00  0.00    +0.000 A 
ATOM     22  C   UNL     1      38.269   4.160  17.327  0.00  0.00    +0.000 A 
ATOM     23  C   UNL     1      38.622   4.798  18.492  0.00  0.00    +0.000 A 
BRANCH  18  24
ATOM     24  C   UNL     1      39.997   6.451  19.762  0.00  0.00    +0.000 C 
ATOM     25  O   UNL     1      39.339   7.375  20.261  0.00  0.00    +0.000 OA
BRANCH  24  26
ATOM     26  O   UNL     1      41.157   6.040  20.395  0.00  0.00    +0.000 OA
BRANCH  26  28
ATOM     27  C   UNL     1      43.269   6.208  21.439  0.00  0.00    +0.000 C 
ATOM     28  C   UNL     1      42.326   6.868  20.444  0.00  0.00    +0.000 C 
ENDBRANCH  26  28
ENDBRANCH  24  26
ENDBRANCH  18  24
ENDBRANCH  17  21
ENDBRANCH  16  17
ENDBRANCH   1  16
TORSDOF 10
ENDMDL
MODEL 2
REMARK VINA RESULT:      -7.3      2.288      7.932
REMARK  Name = 
REMARK  10 active torsions:
REMARK  status: ('A' for Active; 'I' for Inactive)
REMARK    1  A    between atoms: C_2  and  O_3
REMARK    2  A    between atoms: O_3  and  C_4
REMARK    3  A    between atoms: C_4  and  C_6
REMARK    4  A    between atoms: C_9  and  C_10
REMARK    5  A    between atoms: C_10  and  N_11
REMARK    6  A    between atoms: N_11  and  C_12
REMARK    7  A    between atoms: C_12  and  C_13
REMARK    8  A    between atoms: C_17  and  O_18
REMARK    9  A    between atoms: O_18  and  C_19
REMARK   10  A    between atoms: C_19  and  C_20
REMARK                            x       y       z     vdW  Elec       q    Type
REMARK                         _______ _______ _______ _____ _____    ______ ____
ROOT
ATOM      1  C   UNL     1      35.717   0.293  17.820  0.00  0.00    +0.000 C 
ENDROOT
BRANCH   1   2
ATOM      2  C   UNL     1      35.902   1.347  16.785  0.00  0.00    +0.000 A 
ATOM      3  C   UNL     1      35.406   1.102  15.522  0.00  0.00    +0.000 A 
ATOM      4  C   UNL     1      35.544   2.044  14.511  0.00  0.00    +0.000 A 
ATOM      5  C   UNL     1      36.189   3.211  14.828  0.00  0.00    +0.000 A 
ATOM      6  C   UNL     1      36.702   3.517  16.049  0.00  0.00    +0.000 A 
ATOM      7  C   UNL     1      36.539   2.537  17.038  0.00  0.00    +0.000 A 
BRANCH   6   8
ATOM      8  O   UNL     1      37.354   4.683  16.391  0.00  0.00    +0.000 OA
BRANCH   8   9
ATOM      9  C   UNL     1      38.677   4.898  15.970  0.00  0.00    +0.000 C 
BRANCH   9  10
ATOM     10  C   UNL     1      39.460   5.442  17.100  0.00  0.00    +0.000 A 
ATOM     11  C   UNL     1      40.711   5.959  16.843  0.00  0.00    +0.000 A 
ATOM     12  C   UNL     1      41.538   6.487  17.808  0.00  0.00    +0.000 A 
ATOM     13  C   UNL     1      41.118   6.514  19.117  0.00  0.00    +0.000 A 
ATOM     14  C   UNL     1      39.871   6.005  19.406  0.00  0.00    +0.000 A 
ATOM     15  C   UNL     1      39.043   5.472  18.412  0.00  0.00    +0.000 A 
ENDBRANCH   9  10
ENDBRANCH   8   9
ENDBRANCH   6   8
ENDBRANCH   1   2
BRANCH   1  16
ATOM     16  N   UNL     1      37.040  -0.282  18.078  0.00  0.00    +0.000 NA
BRANCH  16  17
ATOM     17  C   UNL     1      37.014  -1.640  17.575  0.00  0.00    +0.000 C 
BRANCH  17  21
ATOM     18  C   UNL     1      40.359  -2.221  14.984  0.00  0.00    +0.000 A 
ATOM     19  C   UNL     1      39.966  -3.174  15.899  0.00  0.00    +0.000 A 
ATOM     20  C   UNL     1      38.892  -3.006  16.742  0.00  0.00    +0.000 A 
ATOM     21  C   UNL     1      38.157  -1.846  16.695  0.00  0.00    +0.000 A 
ATOM     22  C   UNL     1      38.525  -0.879  15.794  0.00  0.00    +0.000 A 
ATOM     23  C   UNL     1      39.602  -1.063  14.959  0.00  0.00    +0.000 A 
BRANCH  18  24
ATOM     24  C   UNL     1      41.508  -2.430  14.100  0.00  0.00    +0.000 C 
ATOM     25  O   UNL     1      41.429  -2.998  13.002  0.00  0.00    +0.000 OA
BRANCH  24  26
ATOM     26  O   UNL     1      42.741  -1.964  14.523  0.00  0.00    +0.000 OA
BRANCH  26  28
ATOM     27  C   UNL     1      43.464   0.198  13.903  0.00  0.00    +0.000 C 
ATOM     28  C   UNL     1      43.640  -1.290  13.634  0.00  0.00    +0.000 C 
ENDBRANCH  26  28
ENDBRANCH  24  26
ENDBRANCH  18  24
ENDBRANCH  17  21
ENDBRANCH  16  17
ENDBRANCH   1  16
TORSDOF 10
ENDMDL
MODEL 3
REMARK VINA RESULT:      -7.3      2.027      7.449
REMARK  Name = 
REMARK  10 active torsions:
REMARK  status: ('A' for Active; 'I' for Inactive)
REMARK    1  A    between atoms: C_2  and  O_3
REMARK    2  A    between atoms: O_3  and  C_4
REMARK    3  A    between atoms: C_4  and  C_6
REMARK    4  A    between atoms: C_9  and  C_10
REMARK    5  A    between atoms: C_10  and  N_11
REMARK    6  A    between atoms: N_11  and  C_12
REMARK    7  A    between atoms: C_12  and  C_13
REMARK    8  A    between atoms: C_17  and  O_18
REMARK    9  A    between atoms: O_18  and  C_19
REMARK   10  A    between atoms: C_19  and  C_20
REMARK                            x       y       z     vdW  Elec       q    Type
REMARK                         _______ _______ _______ _____ _____    ______ ____
ROOT
ATOM      1  C   UNL     1      37.694   2.473  12.140  0.00  0.00    +0.000 C 
ENDROOT
BRANCH   1   2
ATOM      2  C   UNL     1      37.313   2.759  13.550  0.00  0.00    +0.000 A 
ATOM      3  C   UNL     1      36.023   2.467  13.939  0.00  0.00    +0.000 A 
ATOM      4  C   UNL     1      35.603   2.709  15.241  0.00  0.00    +0.000 A 
ATOM      5  C   UNL     1      36.521   3.245  16.105  0.00  0.00    +0.000 A 
ATOM      6  C   UNL     1      37.806   3.558  15.789  0.00  0.00    +0.000 A 
ATOM      7  C   UNL     1      38.186   3.296  14.465  0.00  0.00    +0.000 A 
BRANCH   6   8
ATOM      8  O   UNL     1      38.748   4.097  16.640  0.00  0.00    +0.000 OA
BRANCH   8   9
ATOM      9  C   UNL     1      38.427   5.217  17.425  0.00  0.00    +0.000 C 
BRANCH   9  10
ATOM     10  C   UNL     1      39.659   5.732  18.057  0.00  0.00    +0.000 A 
ATOM     11  C   UNL     1      40.744   6.007  17.252  0.00  0.00    +0.000 A 
ATOM     12  C   UNL     1      41.947   6.483  17.720  0.00  0.00    +0.000 A 
ATOM     13  C   UNL     1      42.108   6.708  19.068  0.00  0.00    +0.000 A 
ATOM     14  C   UNL     1      41.041   6.443  19.898  0.00  0.00    +0.000 A 
ATOM     15  C   UNL     1      39.824   5.960  19.405  0.00  0.00    +0.000 A 
ENDBRANCH   9  10
ENDBRANCH   8   9
ENDBRANCH   6   8
ENDBRANCH   1   2
BRANCH   1  16
ATOM     16  N   UNL     1      38.837   1.557  12.189  0.00  0.00    +0.000 NA
BRANCH  16  17
ATOM     17  C   UNL     1      38.304   0.214  12.081  0.00  0.00    +0.000 C 
BRANCH  17  21
ATOM     18  C   UNL     1      38.347  -1.640  15.927  0.00  0.00    +0.000 A 
ATOM     19  C   UNL     1      39.466  -1.041  15.389  0.00  0.00    +0.000 A 
ATOM     20  C   UNL     1      39.473  -0.439  14.152  0.00  0.00    +0.000 A 
ATOM     21  C   UNL     1      38.327  -0.417  13.393  0.00  0.00    +0.000 A 
ATOM     22  C   UNL     1      37.198  -1.005  13.903  0.00  0.00    +0.000 A 
ATOM     23  C   UNL     1      37.208  -1.603  15.141  0.00  0.00    +0.000 A 
BRANCH  18  24
ATOM     24  C   UNL     1      38.371  -2.274  17.247  0.00  0.00    +0.000 C 
ATOM     25  O   UNL     1      38.443  -3.499  17.414  0.00  0.00    +0.000 OA
BRANCH  24  26
ATOM     26  O   UNL     1      38.309  -1.452  18.360  0.00  0.00    +0.000 OA
BRANCH  26  28
ATOM     27  C   UNL     1      36.346  -0.201  18.758  0.00  0.00    +0.000 C 
ATOM     28  C   UNL     1      37.154  -1.410  19.206  0.00  0.00    +0.000 C 
ENDBRANCH  26  28
ENDBRANCH  24  26
ENDBRANCH  18  24
ENDBRANCH  17  21
ENDBRANCH  16  17
ENDBRANCH   1  16
TORSDOF 10
ENDMDL
MODEL 4
REMARK VINA RESULT:      -7.3     23.753     27.395
REMARK  Name = 
REMARK  10 active torsions:
REMARK  status: ('A' for Active; 'I' for Inactive)
REMARK    1  A    between atoms: C_2  and  O_3
REMARK    2  A    between atoms: O_3  and  C_4
REMARK    3  A    between atoms: C_4  and  C_6
REMARK    4  A    between atoms: C_9  and  C_10
REMARK    5  A    between atoms: C_10  and  N_11
REMARK    6  A    between atoms: N_11  and  C_12
REMARK    7  A    between atoms: C_12  and  C_13
REMARK    8  A    between atoms: C_17  and  O_18
REMARK    9  A    between atoms: O_18  and  C_19
REMARK   10  A    between atoms: C_19  and  C_20
REMARK                            x       y       z     vdW  Elec       q    Type
REMARK                         _______ _______ _______ _____ _____    ______ ____
ROOT
ATOM      1  C   UNL     1      13.939  -0.508  26.443  0.00  0.00    +0.000 C 
ENDROOT
BRANCH   1   2
ATOM      2  C   UNL     1      15.356  -0.249  26.815  0.00  0.00    +0.000 A 
ATOM      3  C   UNL     1      15.603   0.317  28.049  0.00  0.00    +0.000 A 
ATOM      4  C   UNL     1      16.904   0.584  28.458  0.00  0.00    +0.000 A 
ATOM      5  C   UNL     1      17.912   0.264  27.587  0.00  0.00    +0.000 A 
ATOM      6  C   UNL     1      17.740  -0.294  26.359  0.00  0.00    +0.000 A 
ATOM      7  C   UNL     1      16.412  -0.547  25.988  0.00  0.00    +0.000 A 
BRANCH   6   8
ATOM      8  O   UNL     1      18.738  -0.625  25.466  0.00  0.00    +0.000 OA
BRANCH   8   9
ATOM      9  C   UNL     1      19.498   0.386  24.854  0.00  0.00    +0.000 C 
BRANCH   9  10
ATOM     10  C   UNL     1      19.978  -0.100  23.543  0.00  0.00    +0.000 A 
ATOM     11  C   UNL     1      20.018  -1.460  23.322  0.00  0.00    +0.000 A 
ATOM     12  C   UNL     1      20.450  -2.035  22.149  0.00  0.00    +0.000 A 
ATOM     13  C   UNL     1      20.873  -1.230  21.117  0.00  0.00    +0.000 A 
ATOM     14  C   UNL     1      20.844   0.133  21.307  0.00  0.00    +0.000 A 
ATOM     15  C   UNL     1      20.401   0.702  22.507  0.00  0.00    +0.000 A 
ENDBRANCH   9  10
ENDBRANCH   8   9
ENDBRANCH   6   8
ENDBRANCH   1   2
BRANCH   1  16
ATOM     16  N   UNL     1      13.157   0.628  26.937  0.00  0.00    +0.000 NA
BRANCH  16  17
ATOM     17  C   UNL     1      11.814   0.473  26.417  0.00  0.00    +0.000 C 
BRANCH  17  21
ATOM     18  C   UNL     1       9.355   3.588  27.995  0.00  0.00    +0.000 A 
ATOM     19  C   UNL     1       8.828   2.505  27.324  0.00  0.00    +0.000 A 
ATOM     20  C   UNL     1       9.602   1.492  26.808  0.00  0.00    +0.000 A 
ATOM     21  C   UNL     1      10.968   1.531  26.951  0.00  0.00    +0.000 A 
ATOM     22  C   UNL     1      11.522   2.597  27.616  0.00  0.00    +0.000 A 
ATOM     23  C   UNL     1      10.733   3.601  28.124  0.00  0.00    +0.000 A 
BRANCH  18  24
ATOM     24  C   UNL     1       8.504   4.651  28.532  0.00  0.00    +0.000 C 
ATOM     25  O   UNL     1       8.026   5.558  27.837  0.00  0.00    +0.000 OA
BRANCH  24  26
ATOM     26  O   UNL     1       8.227   4.634  29.889  0.00  0.00    +0.000 OA
BRANCH  26  28
ATOM     27  C   UNL     1       9.451   4.109  31.840  0.00  0.00    +0.000 C 
ATOM     28  C   UNL     1       9.116   5.215  30.850  0.00  0.00    +0.000 C 
ENDBRANCH  26  28
ENDBRANCH  24  26
ENDBRANCH  18  24
ENDBRANCH  17  21
ENDBRANCH  16  17
ENDBRANCH   1  16
TORSDOF 10
ENDMDL
MODEL 5
REMARK VINA RESULT:      -7.2      2.463      3.568
REMARK  Name = 
REMARK  10 active torsions:
REMARK  status: ('A' for Active; 'I' for Inactive)
REMARK    1  A    between atoms: C_2  and  O_3
REMARK    2  A    between atoms: O_3  and  C_4
REMARK    3  A    between atoms: C_4  and  C_6
REMARK    4  A    between atoms: C_9  and  C_10
REMARK    5  A    between atoms: C_10  and  N_11
REMARK    6  A    between atoms: N_11  and  C_12
REMARK    7  A    between atoms: C_12  and  C_13
REMARK    8  A    between atoms: C_17  and  O_18
REMARK    9  A    between atoms: O_18  and  C_19
REMARK   10  A    between atoms: C_19  and  C_20
REMARK                            x       y       z     vdW  Elec       q    Type
REMARK                         _______ _______ _______ _____ _____    ______ ____
ROOT
ATOM      1  C   UNL     1      36.824   3.599  13.636  0.00  0.00    +0.000 C 
ENDROOT
BRANCH   1   2
ATOM      2  C   UNL     1      36.271   2.576  14.565  0.00  0.00    +0.000 A 
ATOM      3  C   UNL     1      35.391   3.001  15.538  0.00  0.00    +0.000 A 
ATOM      4  C   UNL     1      34.838   2.097  16.437  0.00  0.00    +0.000 A 
ATOM      5  C   UNL     1      35.207   0.784  16.310  0.00  0.00    +0.000 A 
ATOM      6  C   UNL     1      36.069   0.298  15.378  0.00  0.00    +0.000 A 
ATOM      7  C   UNL     1      36.601   1.245  14.491  0.00  0.00    +0.000 A 
BRANCH   6   8
ATOM      8  O   UNL     1      36.455  -1.018  15.231  0.00  0.00    +0.000 OA
BRANCH   8   9
ATOM      9  C   UNL     1      36.617  -1.834  16.363  0.00  0.00    +0.000 C 
BRANCH   9  10
ATOM     10  C   UNL     1      36.070  -3.176  16.072  0.00  0.00    +0.000 A 
ATOM     11  C   UNL     1      34.937  -3.268  15.293  0.00  0.00    +0.000 A 
ATOM     12  C   UNL     1      34.329  -4.456  14.958  0.00  0.00    +0.000 A 
ATOM     13  C   UNL     1      34.862  -5.640  15.411  0.00  0.00    +0.000 A 
ATOM     14  C   UNL     1      35.995  -5.581  16.192  0.00  0.00    +0.000 A 
ATOM     15  C   UNL     1      36.601  -4.364  16.523  0.00  0.00    +0.000 A 
ENDBRANCH   9  10
ENDBRANCH   8   9
ENDBRANCH   6   8
ENDBRANCH   1   2
BRANCH   1  16
ATOM     16  N   UNL     1      37.386   4.667  14.467  0.00  0.00    +0.000 NA
BRANCH  16  17
ATOM     17  C   UNL     1      38.747   4.283  14.782  0.00  0.00    +0.000 C 
BRANCH  17  21
ATOM     18  C   UNL     1      39.803   5.902  18.590  0.00  0.00    +0.000 A 
ATOM     19  C   UNL     1      40.491   6.223  17.439  0.00  0.00    +0.000 A 
ATOM     20  C   UNL     1      40.167   5.713  16.204  0.00  0.00    +0.000 A 
ATOM     21  C   UNL     1      39.114   4.839  16.076  0.00  0.00    +0.000 A 
ATOM     22  C   UNL     1      38.410   4.501  17.205  0.00  0.00    +0.000 A 
ATOM     23  C   UNL     1      38.748   5.021  18.432  0.00  0.00    +0.000 A 
BRANCH  18  24
ATOM     24  C   UNL     1      40.172   6.462  19.891  0.00  0.00    +0.000 C 
ATOM     25  O   UNL     1      39.409   7.158  20.575  0.00  0.00    +0.000 OA
BRANCH  24  26
ATOM     26  O   UNL     1      41.442   6.195  20.373  0.00  0.00    +0.000 OA
BRANCH  26  28
ATOM     27  C   UNL     1      43.746   6.661  20.133  0.00  0.00    +0.000 C 
ATOM     28  C   UNL     1      42.407   7.233  20.578  0.00  0.00    +0.000 C 
ENDBRANCH  26  28
ENDBRANCH  24  26
ENDBRANCH  18  24
ENDBRANCH  17  21
ENDBRANCH  16  17
ENDBRANCH   1  16
TORSDOF 10
ENDMDL
MODEL 6
REMARK VINA RESULT:      -7.2      2.664      4.197
REMARK  Name = 
REMARK  10 active torsions:
REMARK  status: ('A' for Active; 'I' for Inactive)
REMARK    1  A    between atoms: C_2  and  O_3
REMARK    2  A    between atoms: O_3  and  C_4
REMARK    3  A    between atoms: C_4  and  C_6
REMARK    4  A    between atoms: C_9  and  C_10
REMARK    5  A    between atoms: C_10  and  N_11
REMARK    6  A    between atoms: N_11  and  C_12
REMARK    7  A    between atoms: C_12  and  C_13
REMARK    8  A    between atoms: C_17  and  O_18
REMARK    9  A    between atoms: O_18  and  C_19
REMARK   10  A    between atoms: C_19  and  C_20
REMARK                            x       y       z     vdW  Elec       q    Type
REMARK                         _______ _______ _______ _____ _____    ______ ____
ROOT
ATOM      1  C   UNL     1      38.347   4.407  15.849  0.00  0.00    +0.000 C 
ENDROOT
BRANCH   1   2
ATOM      2  C   UNL     1      36.969   3.858  15.727  0.00  0.00    +0.000 A 
ATOM      3  C   UNL     1      36.143   4.401  14.766  0.00  0.00    +0.000 A 
ATOM      4  C   UNL     1      34.846   3.934  14.600  0.00  0.00    +0.000 A 
ATOM      5  C   UNL     1      34.434   2.924  15.428  0.00  0.00    +0.000 A 
ATOM      6  C   UNL     1      35.193   2.344  16.396  0.00  0.00    +0.000 A 
ATOM      7  C   UNL     1      36.496   2.846  16.527  0.00  0.00    +0.000 A 
BRANCH   6   8
ATOM      8  O   UNL     1      34.801   1.326  17.240  0.00  0.00    +0.000 OA
BRANCH   8   9
ATOM      9  C   UNL     1      34.854  -0.008  16.805  0.00  0.00    +0.000 C 
BRANCH   9  10
ATOM     10  C   UNL     1      35.987  -0.687  17.468  0.00  0.00    +0.000 A 
ATOM     11  C   UNL     1      37.005  -1.183  16.683  0.00  0.00    +0.000 A 
ATOM     12  C   UNL     1      38.108  -1.839  17.179  0.00  0.00    +0.000 A 
ATOM     13  C   UNL     1      38.231  -2.026  18.536  0.00  0.00    +0.000 A 
ATOM     14  C   UNL     1      37.229  -1.542  19.347  0.00  0.00    +0.000 A 
ATOM     15  C   UNL     1      36.114  -0.876  18.826  0.00  0.00    +0.000 A 
ENDBRANCH   9  10
ENDBRANCH   8   9
ENDBRANCH   6   8
ENDBRANCH   1   2
BRANCH   1  16
ATOM     16  N   UNL     1      38.691   4.375  17.273  0.00  0.00    +0.000 NA
BRANCH  16  17
ATOM     17  C   UNL     1      38.676   5.746  17.740  0.00  0.00    +0.000 C 
BRANCH  17  21
ATOM     18  C   UNL     1      42.464   6.687  19.475  0.00  0.00    +0.000 A 
ATOM     19  C   UNL     1      42.294   6.546  18.114  0.00  0.00    +0.000 A 
ATOM     20  C   UNL     1      41.084   6.244  17.536  0.00  0.00    +0.000 A 
ATOM     21  C   UNL     1      39.971   6.066  18.324  0.00  0.00    +0.000 A 
ATOM     22  C   UNL     1      40.110   6.200  19.683  0.00  0.00    +0.000 A 
ATOM     23  C   UNL     1      41.328   6.502  20.244  0.00  0.00    +0.000 A 
BRANCH  18  24
ATOM     24  C   UNL     1      43.766   7.009  20.061  0.00  0.00    +0.000 C 
ATOM     25  O   UNL     1      44.841   6.835  19.469  0.00  0.00    +0.000 OA
BRANCH  24  26
ATOM     26  O   UNL     1      43.787   7.534  21.342  0.00  0.00    +0.000 OA
BRANCH  26  28
ATOM     27  C   UNL     1      44.316   5.317  21.962  0.00  0.00    +0.000 C 
ATOM     28  C   UNL     1      44.133   6.736  22.480  0.00  0.00    +0.000 C 
ENDBRANCH  26  28
ENDBRANCH  24  26
ENDBRANCH  18  24
ENDBRANCH  17  21
ENDBRANCH  16  17
ENDBRANCH   1  16
TORSDOF 10
ENDMDL
MODEL 7
REMARK VINA RESULT:      -7.1      1.881      4.200
REMARK  Name = 
REMARK  10 active torsions:
REMARK  status: ('A' for Active; 'I' for Inactive)
REMARK    1  A    between atoms: C_2  and  O_3
REMARK    2  A    between atoms: O_3  and  C_4
REMARK    3  A    between atoms: C_4  and  C_6
REMARK    4  A    between atoms: C_9  and  C_10
REMARK    5  A    between atoms: C_10  and  N_11
REMARK    6  A    between atoms: N_11  and  C_12
REMARK    7  A    between atoms: C_12  and  C_13
REMARK    8  A    between atoms: C_17  and  O_18
REMARK    9  A    between atoms: O_18  and  C_19
REMARK   10  A    between atoms: C_19  and  C_20
REMARK                            x       y       z     vdW  Elec       q    Type
REMARK                         _______ _______ _______ _____ _____    ______ ____
ROOT
ATOM      1  C   UNL     1      36.385   2.515  15.471  0.00  0.00    +0.000 C 
ENDROOT
BRANCH   1   2
ATOM      2  C   UNL     1      35.947   1.141  15.839  0.00  0.00    +0.000 A 
ATOM      3  C   UNL     1      35.146   0.998  16.952  0.00  0.00    +0.000 A 
ATOM      4  C   UNL     1      34.702  -0.257  17.349  0.00  0.00    +0.000 A 
ATOM      5  C   UNL     1      35.095  -1.328  16.591  0.00  0.00    +0.000 A 
ATOM      6  C   UNL     1      35.882  -1.260  15.485  0.00  0.00    +0.000 A 
ATOM      7  C   UNL     1      36.306   0.026  15.121  0.00  0.00    +0.000 A 
BRANCH   6   8
ATOM      8  O   UNL     1      36.290  -2.323  14.706  0.00  0.00    +0.000 OA
BRANCH   8   9
ATOM      9  C   UNL     1      37.222  -3.246  15.209  0.00  0.00    +0.000 C 
BRANCH   9  10
ATOM     10  C   UNL     1      38.559  -2.927  14.664  0.00  0.00    +0.000 A 
ATOM     11  C   UNL     1      38.707  -2.841  13.297  0.00  0.00    +0.000 A 
ATOM     12  C   UNL     1      39.897  -2.558  12.669  0.00  0.00    +0.000 A 
ATOM     13  C   UNL     1      41.026  -2.342  13.424  0.00  0.00    +0.000 A 
ATOM     14  C   UNL     1      40.910  -2.420  14.795  0.00  0.00    +0.000 A 
ATOM     15  C   UNL     1      39.691  -2.709  15.417  0.00  0.00    +0.000 A 
ENDBRANCH   9  10
ENDBRANCH   8   9
ENDBRANCH   6   8
ENDBRANCH   1   2
BRANCH   1  16
ATOM     16  N   UNL     1      37.452   2.882  16.406  0.00  0.00    +0.000 NA
BRANCH  16  17
ATOM     17  C   UNL     1      38.354   3.763  15.690  0.00  0.00    +0.000 C 
BRANCH  17  21
ATOM     18  C   UNL     1      40.107   6.492  18.467  0.00  0.00    +0.000 A 
ATOM     19  C   UNL     1      40.464   6.469  17.136  0.00  0.00    +0.000 A 
ATOM     20  C   UNL     1      39.912   5.598  16.226  0.00  0.00    +0.000 A 
ATOM     21  C   UNL     1      38.957   4.696  16.631  0.00  0.00    +0.000 A 
ATOM     22  C   UNL     1      38.581   4.697  17.951  0.00  0.00    +0.000 A 
ATOM     23  C   UNL     1      39.144   5.574  18.847  0.00  0.00    +0.000 A 
BRANCH  18  24
ATOM     24  C   UNL     1      40.714   7.432  19.412  0.00  0.00    +0.000 C 
ATOM     25  O   UNL     1      41.628   7.122  20.189  0.00  0.00    +0.000 OA
BRANCH  24  26
ATOM     26  O   UNL     1      40.235   8.731  19.430  0.00  0.00    +0.000 OA
BRANCH  26  28
ATOM     27  C   UNL     1      38.093   8.835  20.420  0.00  0.00    +0.000 C 
ATOM     28  C   UNL     1      39.545   9.266  20.566  0.00  0.00    +0.000 C 
ENDBRANCH  26  28
ENDBRANCH  24  26
ENDBRANCH  18  24
ENDBRANCH  17  21
ENDBRANCH  16  17
ENDBRANCH   1  16
TORSDOF 10
ENDMDL
MODEL 8
REMARK VINA RESULT:      -7.0      2.674      8.611
REMARK  Name = 
REMARK  10 active torsions:
REMARK  status: ('A' for Active; 'I' for Inactive)
REMARK    1  A    between atoms: C_2  and  O_3
REMARK    2  A    between atoms: O_3  and  C_4
REMARK    3  A    between atoms: C_4  and  C_6
REMARK    4  A    between atoms: C_9  and  C_10
REMARK    5  A    between atoms: C_10  and  N_11
REMARK    6  A    between atoms: N_11  and  C_12
REMARK    7  A    between atoms: C_12  and  C_13
REMARK    8  A    between atoms: C_17  and  O_18
REMARK    9  A    between atoms: O_18  and  C_19
REMARK   10  A    between atoms: C_19  and  C_20
REMARK                            x       y       z     vdW  Elec       q    Type
REMARK                         _______ _______ _______ _____ _____    ______ ____
ROOT
ATOM      1  C   UNL     1      37.540   4.117  16.700  0.00  0.00    +0.000 C 
ENDROOT
BRANCH   1   2
ATOM      2  C   UNL     1      38.817   4.880  16.647  0.00  0.00    +0.000 A 
ATOM      3  C   UNL     1      39.381   5.104  15.409  0.00  0.00    +0.000 A 
ATOM      4  C   UNL     1      40.571   5.810  15.290  0.00  0.00    +0.000 A 
ATOM      5  C   UNL     1      41.148   6.263  16.447  0.00  0.00    +0.000 A 
ATOM      6  C   UNL     1      40.649   6.077  17.698  0.00  0.00    +0.000 A 
ATOM      7  C   UNL     1      39.446   5.360  17.770  0.00  0.00    +0.000 A 
BRANCH   6   8
ATOM      8  O   UNL     1      41.211   6.523  18.876  0.00  0.00    +0.000 OA
BRANCH   8   9
ATOM      9  C   UNL     1      40.445   6.554  20.053  0.00  0.00    +0.000 C 
BRANCH   9  10
ATOM     10  C   UNL     1      39.976   7.937  20.286  0.00  0.00    +0.000 A 
ATOM     11  C   UNL     1      38.634   8.144  20.523  0.00  0.00    +0.000 A 
ATOM     12  C   UNL     1      38.075   9.380  20.747  0.00  0.00    +0.000 A 
ATOM     13  C   UNL     1      38.878  10.497  20.740  0.00  0.00    +0.000 A 
ATOM     14  C   UNL     1      40.224  10.323  20.506  0.00  0.00    +0.000 A 
ATOM     15  C   UNL     1      40.776   9.057  20.281  0.00  0.00    +0.000 A 
ENDBRANCH   9  10
ENDBRANCH   8   9
ENDBRANCH   6   8
ENDBRANCH   1   2
BRANCH   1  16
ATOM     16  N   UNL     1      37.188   3.786  15.317  0.00  0.00    +0.000 NA
BRANCH  16  17
ATOM     17  C   UNL     1      35.787   3.415  15.317  0.00  0.00    +0.000 C 
BRANCH  17  21
ATOM     18  C   UNL     1      35.447  -0.731  16.281  0.00  0.00    +0.000 A 
ATOM     19  C   UNL     1      34.837   0.250  17.034  0.00  0.00    +0.000 A 
ATOM     20  C   UNL     1      34.935   1.590  16.740  0.00  0.00    +0.000 A 
ATOM     21  C   UNL     1      35.667   2.003  15.653  0.00  0.00    +0.000 A 
ATOM     22  C   UNL     1      36.284   1.049  14.884  0.00  0.00    +0.000 A 
ATOM     23  C   UNL     1      36.177  -0.287  15.193  0.00  0.00    +0.000 A 
BRANCH  18  24
ATOM     24  C   UNL     1      35.325  -2.150  16.620  0.00  0.00    +0.000 C 
ATOM     25  O   UNL     1      34.679  -2.960  15.940  0.00  0.00    +0.000 OA
BRANCH  24  26
ATOM     26  O   UNL     1      35.968  -2.600  17.760  0.00  0.00    +0.000 OA
BRANCH  26  28
ATOM     27  C   UNL     1      37.466  -2.043  19.499  0.00  0.00    +0.000 C 
ATOM     28  C   UNL     1      37.351  -2.323  18.007  0.00  0.00    +0.000 C 
ENDBRANCH  26  28
ENDBRANCH  24  26
ENDBRANCH  18  24
ENDBRANCH  17  21
ENDBRANCH  16  17
ENDBRANCH   1  16
TORSDOF 10
ENDMDL
MODEL 9
REMARK VINA RESULT:      -6.9      4.193      6.489
REMARK  Name = 
REMARK  10 active torsions:
REMARK  status: ('A' for Active; 'I' for Inactive)
REMARK    1  A    between atoms: C_2  and  O_3
REMARK    2  A    between atoms: O_3  and  C_4
REMARK    3  A    between atoms: C_4  and  C_6
REMARK    4  A    between atoms: C_9  and  C_10
REMARK    5  A    between atoms: C_10  and  N_11
REMARK    6  A    between atoms: N_11  and  C_12
REMARK    7  A    between atoms: C_12  and  C_13
REMARK    8  A    between atoms: C_17  and  O_18
REMARK    9  A    between atoms: O_18  and  C_19
REMARK   10  A    between atoms: C_19  and  C_20
REMARK                            x       y       z     vdW  Elec       q    Type
REMARK                         _______ _______ _______ _____ _____    ______ ____
ROOT
ATOM      1  C   UNL     1      40.539   6.587  19.871  0.00  0.00    +0.000 C 
ENDROOT
BRANCH   1   2
ATOM      2  C   UNL     1      40.000   5.980  18.623  0.00  0.00    +0.000 A 
ATOM      3  C   UNL     1      40.572   6.355  17.426  0.00  0.00    +0.000 A 
ATOM      4  C   UNL     1      40.116   5.825  16.226  0.00  0.00    +0.000 A 
ATOM      5  C   UNL     1      39.085   4.925  16.291  0.00  0.00    +0.000 A 
ATOM      6  C   UNL     1      38.476   4.511  17.434  0.00  0.00    +0.000 A 
ATOM      7  C   UNL     1      38.969   5.072  18.621  0.00  0.00    +0.000 A 
BRANCH   6   8
ATOM      8  O   UNL     1      37.438   3.608  17.525  0.00  0.00    +0.000 OA
BRANCH   8   9
ATOM      9  C   UNL     1      36.742   3.218  16.368  0.00  0.00    +0.000 C 
BRANCH   9  10
ATOM     10  C   UNL     1      36.303   1.814  16.520  0.00  0.00    +0.000 A 
ATOM     11  C   UNL     1      36.350   0.990  15.416  0.00  0.00    +0.000 A 
ATOM     12  C   UNL     1      35.963  -0.331  15.427  0.00  0.00    +0.000 A 
ATOM     13  C   UNL     1      35.499  -0.890  16.595  0.00  0.00    +0.000 A 
ATOM     14  C   UNL     1      35.441  -0.091  17.715  0.00  0.00    +0.000 A 
ATOM     15  C   UNL     1      35.838   1.250  17.686  0.00  0.00    +0.000 A 
ENDBRANCH   9  10
ENDBRANCH   8   9
ENDBRANCH   6   8
ENDBRANCH   1   2
BRANCH   1  16
ATOM     16  N   UNL     1      39.416   7.256  20.534  0.00  0.00    +0.000 NA
BRANCH  16  17
ATOM     17  C   UNL     1      39.470   8.651  20.148  0.00  0.00    +0.000 C 
BRANCH  17  21
ATOM     18  C   UNL     1      36.225   9.517  17.510  0.00  0.00    +0.000 A 
ATOM     19  C   UNL     1      36.025   9.047  18.791  0.00  0.00    +0.000 A 
ATOM     20  C   UNL     1      37.056   8.762  19.655  0.00  0.00    +0.000 A 
ATOM     21  C   UNL     1      38.358   8.944  19.255  0.00  0.00    +0.000 A 
ATOM     22  C   UNL     1      38.588   9.411  17.985  0.00  0.00    +0.000 A 
ATOM     23  C   UNL     1      37.545   9.690  17.134  0.00  0.00    +0.000 A 
BRANCH  18  24
ATOM     24  C   UNL     1      35.106   9.811  16.613  0.00  0.00    +0.000 C 
ATOM     25  O   UNL     1      35.251  10.142  15.428  0.00  0.00    +0.000 OA
BRANCH  24  26
ATOM     26  O   UNL     1      33.824   9.712  17.125  0.00  0.00    +0.000 OA
BRANCH  26  28
ATOM     27  C   UNL     1      31.930  10.258  18.427  0.00  0.00    +0.000 C 
ATOM     28  C   UNL     1      33.172  10.823  17.753  0.00  0.00    +0.000 C 
ENDBRANCH  26  28
ENDBRANCH  24  26
ENDBRANCH  18  24
ENDBRANCH  17  21
ENDBRANCH  16  17
ENDBRANCH   1  16
TORSDOF 10
ENDMDL
MODEL 10
REMARK VINA RESULT:      -6.8     24.080     27.655
REMARK  Name = 
REMARK  10 active torsions:
REMARK  status: ('A' for Active; 'I' for Inactive)
REMARK    1  A    between atoms: C_2  and  O_3
REMARK    2  A    between atoms: O_3  and  C_4
REMARK    3  A    between atoms: C_4  and  C_6
REMARK    4  A    between atoms: C_9  and  C_10
REMARK    5  A    between atoms: C_10  and  N_11
REMARK    6  A    between atoms: N_11  and  C_12
REMARK    7  A    between atoms: C_12  and  C_13
REMARK    8  A    between atoms: C_17  and  O_18
REMARK    9  A    between atoms: O_18  and  C_19
REMARK   10  A    between atoms: C_19  and  C_20
REMARK                            x       y       z     vdW  Elec       q    Type
REMARK                         _______ _______ _______ _____ _____    ______ ____
ROOT
ATOM      1  C   UNL     1      13.860  -0.000  26.861  0.00  0.00    +0.000 C 
ENDROOT
BRANCH   1   2
ATOM      2  C   UNL     1      15.334   0.102  27.041  0.00  0.00    +0.000 A 
ATOM      3  C   UNL     1      15.811   0.320  28.316  0.00  0.00    +0.000 A 
ATOM      4  C   UNL     1      17.176   0.425  28.553  0.00  0.00    +0.000 A 
ATOM      5  C   UNL     1      18.010   0.303  27.473  0.00  0.00    +0.000 A 
ATOM      6  C   UNL     1      17.608   0.089  26.192  0.00  0.00    +0.000 A 
ATOM      7  C   UNL     1      16.222  -0.010  26.000  0.00  0.00    +0.000 A 
BRANCH   6   8
ATOM      8  O   UNL     1      18.427  -0.036  25.089  0.00  0.00    +0.000 OA
BRANCH   8   9
ATOM      9  C   UNL     1      19.230  -1.179  24.936  0.00  0.00    +0.000 C 
BRANCH   9  10
ATOM     10  C   UNL     1      19.862  -1.149  23.600  0.00  0.00    +0.000 A 
ATOM     11  C   UNL     1      20.385   0.044  23.149  0.00  0.00    +0.000 A 
ATOM     12  C   UNL     1      20.991   0.203  21.924  0.00  0.00    +0.000 A 
ATOM     13  C   UNL     1      21.096  -0.876  21.077  0.00  0.00    +0.000 A 
ATOM     14  C   UNL     1      20.582  -2.082  21.500  0.00  0.00    +0.000 A 
ATOM     15  C   UNL     1      19.970  -2.225  22.749  0.00  0.00    +0.000 A 
ENDBRANCH   9  10
ENDBRANCH   8   9
ENDBRANCH   6   8
ENDBRANCH   1   2
BRANCH   1  16
ATOM     16  N   UNL     1      13.264   1.103  27.619  0.00  0.00    +0.000 NA
BRANCH  16  17
ATOM     17  C   UNL     1      11.909   1.265  27.131  0.00  0.00    +0.000 C 
BRANCH  17  21
ATOM     18  C   UNL     1       9.766   3.880  29.740  0.00  0.00    +0.000 A 
ATOM     19  C   UNL     1      10.557   2.856  30.215  0.00  0.00    +0.000 A 
ATOM     20  C   UNL     1      11.255   2.003  29.392  0.00  0.00    +0.000 A 
ATOM     21  C   UNL     1      11.181   2.152  28.028  0.00  0.00    +0.000 A 
ATOM     22  C   UNL     1      10.401   3.164  27.526  0.00  0.00    +0.000 A 
ATOM     23  C   UNL     1       9.710   4.007  28.363  0.00  0.00    +0.000 A 
BRANCH  18  24
ATOM     24  C   UNL     1       9.035   4.772  30.642  0.00  0.00    +0.000 C 
ATOM     25  O   UNL     1       9.527   5.251  31.673  0.00  0.00    +0.000 OA
BRANCH  24  26
ATOM     26  O   UNL     1       7.727   5.089  30.317  0.00  0.00    +0.000 OA
BRANCH  26  28
ATOM     27  C   UNL     1       6.450   6.947  31.022  0.00  0.00    +0.000 C 
ATOM     28  C   UNL     1       7.347   6.411  29.916  0.00  0.00    +0.000 C 
ENDBRANCH  26  28
ENDBRANCH  24  26
ENDBRANCH  18  24
ENDBRANCH  17  21
ENDBRANCH  16  17
ENDBRANCH   1  16
TORSDOF 10
ENDMDL
