MODEL 1
REMARK VINA RESULT:      -8.2      0.000      0.000
REMARK  Name = 
REMARK  9 active torsions:
REMARK  status: ('A' for Active; 'I' for Inactive)
REMARK    1  A    between atoms: C_2  and  C_3
REMARK    2  A    between atoms: C_7  and  C_8
REMARK    3  A    between atoms: C_10  and  N_11
REMARK    4  A    between atoms: C_12  and  C_14
REMARK    5  A    between atoms: C_14  and  O_15
REMARK    6  A    between atoms: O_15  and  C_16
REMARK    7  A    between atoms: C_16  and  C_18
REMARK    8  A    between atoms: C_23  and  C_24
REMARK    9  A    between atoms: C_24  and  C_25
REMARK                            x       y       z     vdW  Elec       q    Type
REMARK                         _______ _______ _______ _____ _____    ______ ____
ROOT
ATOM      1  O   UNL     1      37.892   3.435  16.290  0.00  0.00    +0.000 OA
ENDROOT
BRANCH   1   2
ATOM      2  C   UNL     1      38.234   4.706  15.963  0.00  0.00    +0.000 C 
ATOM      3  O   UNL     1      37.326   5.429  15.447  0.00  0.00    +0.000 OA
BRANCH   2   4
ATOM      4  C   UNL     1      39.555   5.300  16.164  0.00  0.00    +0.000 A 
ATOM      5  C   UNL     1      40.357   5.502  15.044  0.00  0.00    +0.000 A 
ATOM      6  C   UNL     1      41.570   6.112  15.152  0.00  0.00    +0.000 A 
ATOM      7  C   UNL     1      42.031   6.542  16.367  0.00  0.00    +0.000 A 
ATOM      8  C   UNL     1      41.270   6.358  17.483  0.00  0.00    +0.000 A 
ATOM      9  C   UNL     1      40.014   5.724  17.363  0.00  0.00    +0.000 A 
BRANCH   9  10
ATOM     10  C   UNL     1      39.276   5.485  18.625  0.00  0.00    +0.000 C 
BRANCH  10  11
ATOM     11  C   UNL     1      38.836   6.784  19.186  0.00  0.00    +0.000 A 
ATOM     12  C   UNL     1      39.310   7.371  20.314  0.00  0.00    +0.000 A 
ATOM     13  C   UNL     1      38.836   8.581  20.769  0.00  0.00    +0.000 A 
ATOM     14  C   UNL     1      37.850   9.280  20.110  0.00  0.00    +0.000 A 
ATOM     15  C   UNL     1      37.347   8.710  18.959  0.00  0.00    +0.000 A 
ATOM     16  C   UNL     1      37.825   7.508  18.517  0.00  0.00    +0.000 A 
ENDBRANCH  10  11
ENDBRANCH   9  10
ENDBRANCH   2   4
ENDBRANCH   1   2
BRANCH   1  17
ATOM     17  C   UNL     1      36.629   3.127  16.792  0.00  0.00    +0.000 C 
BRANCH  17  19
ATOM     18  N   UNL     1      37.215   0.627  16.533  0.00  0.00    +0.000 NA
ATOM     19  C   UNL     1      36.298   1.715  16.625  0.00  0.00    +0.000 C 
ATOM     20  O   UNL     1      35.027   1.471  16.559  0.00  0.00    +0.000 OA
BRANCH  18  26
ATOM     21  C   UNL     1      36.409  -1.131  15.100  0.00  0.00    +0.000 A 
ATOM     22  C   UNL     1      35.776  -2.366  14.896  0.00  0.00    +0.000 A 
ATOM     23  C   UNL     1      35.349  -3.106  15.971  0.00  0.00    +0.000 A 
ATOM     24  C   UNL     1      35.545  -2.629  17.247  0.00  0.00    +0.000 A 
ATOM     25  C   UNL     1      36.177  -1.396  17.448  0.00  0.00    +0.000 A 
ATOM     26  C   UNL     1      36.602  -0.658  16.368  0.00  0.00    +0.000 A 
BRANCH  21  28
ATOM     27  C   UNL     1      38.111  -1.124  13.394  0.00  0.00    +0.000 C 
ATOM     28  C   UNL     1      36.884  -0.364  13.923  0.00  0.00    +0.000 C 
ENDBRANCH  21  28
BRANCH  25  29
ATOM     29  C   UNL     1      36.404  -0.883  18.822  0.00  0.00    +0.000 C 
ATOM     30  C   UNL     1      37.586  -1.701  19.362  0.00  0.00    +0.000 C 
ENDBRANCH  25  29
ENDBRANCH  18  26
ENDBRANCH  17  19
ENDBRANCH   1  17
TORSDOF 9
ENDMDL
MODEL 2
REMARK VINA RESULT:      -7.9      1.330      3.334
REMARK  Name = 
REMARK  9 active torsions:
REMARK  status: ('A' for Active; 'I' for Inactive)
REMARK    1  A    between atoms: C_2  and  C_3
REMARK    2  A    between atoms: C_7  and  C_8
REMARK    3  A    between atoms: C_10  and  N_11
REMARK    4  A    between atoms: C_12  and  C_14
REMARK    5  A    between atoms: C_14  and  O_15
REMARK    6  A    between atoms: O_15  and  C_16
REMARK    7  A    between atoms: C_16  and  C_18
REMARK    8  A    between atoms: C_23  and  C_24
REMARK    9  A    between atoms: C_24  and  C_25
REMARK                            x       y       z     vdW  Elec       q    Type
REMARK                         _______ _______ _______ _____ _____    ______ ____
ROOT
ATOM      1  O   UNL     1      37.796   3.350  16.852  0.00  0.00    +0.000 OA
ENDROOT
BRANCH   1   2
ATOM      2  C   UNL     1      38.470   4.392  16.304  0.00  0.00    +0.000 C 
ATOM      3  O   UNL     1      39.363   4.109  15.447  0.00  0.00    +0.000 OA
BRANCH   2   4
ATOM      4  C   UNL     1      38.242   5.801  16.620  0.00  0.00    +0.000 A 
ATOM      5  C   UNL     1      37.669   6.605  15.638  0.00  0.00    +0.000 A 
ATOM      6  C   UNL     1      37.368   7.910  15.888  0.00  0.00    +0.000 A 
ATOM      7  C   UNL     1      37.621   8.463  17.115  0.00  0.00    +0.000 A 
ATOM      8  C   UNL     1      38.182   7.703  18.098  0.00  0.00    +0.000 A 
ATOM      9  C   UNL     1      38.493   6.351  17.829  0.00  0.00    +0.000 A 
BRANCH   9  10
ATOM     10  C   UNL     1      39.173   5.605  18.914  0.00  0.00    +0.000 C 
BRANCH  10  11
ATOM     11  C   UNL     1      40.565   6.095  19.043  0.00  0.00    +0.000 A 
ATOM     12  C   UNL     1      41.197   6.419  20.200  0.00  0.00    +0.000 A 
ATOM     13  C   UNL     1      42.495   6.876  20.226  0.00  0.00    +0.000 A 
ATOM     14  C   UNL     1      43.243   7.035  19.081  0.00  0.00    +0.000 A 
ATOM     15  C   UNL     1      42.629   6.713  17.888  0.00  0.00    +0.000 A 
ATOM     16  C   UNL     1      41.340   6.261  17.873  0.00  0.00    +0.000 A 
ENDBRANCH  10  11
ENDBRANCH   9  10
ENDBRANCH   2   4
ENDBRANCH   1   2
BRANCH   1  17
ATOM     17  C   UNL     1      36.447   3.131  16.578  0.00  0.00    +0.000 C 
BRANCH  17  19
ATOM     18  N   UNL     1      37.044   0.621  16.554  0.00  0.00    +0.000 NA
ATOM     19  C   UNL     1      36.144   1.715  16.397  0.00  0.00    +0.000 C 
ATOM     20  O   UNL     1      34.916   1.472  16.058  0.00  0.00    +0.000 OA
BRANCH  18  26
ATOM     21  C   UNL     1      35.935  -1.359  17.359  0.00  0.00    +0.000 A 
ATOM     22  C   UNL     1      35.398  -2.639  17.163  0.00  0.00    +0.000 A 
ATOM     23  C   UNL     1      35.402  -3.204  15.911  0.00  0.00    +0.000 A 
ATOM     24  C   UNL     1      35.937  -2.507  14.852  0.00  0.00    +0.000 A 
ATOM     25  C   UNL     1      36.473  -1.229  15.049  0.00  0.00    +0.000 A 
ATOM     26  C   UNL     1      36.467  -0.668  16.306  0.00  0.00    +0.000 A 
BRANCH  21  28
ATOM     27  C   UNL     1      37.009  -1.458  19.513  0.00  0.00    +0.000 C 
ATOM     28  C   UNL     1      35.895  -0.763  18.716  0.00  0.00    +0.000 C 
ENDBRANCH  21  28
BRANCH  25  29
ATOM     29  C   UNL     1      37.038  -0.465  13.908  0.00  0.00    +0.000 C 
ATOM     30  C   UNL     1      37.953  -1.460  13.178  0.00  0.00    +0.000 C 
ENDBRANCH  25  29
ENDBRANCH  18  26
ENDBRANCH  17  19
ENDBRANCH   1  17
TORSDOF 9
ENDMDL
MODEL 3
REMARK VINA RESULT:      -7.8      1.531      2.753
REMARK  Name = 
REMARK  9 active torsions:
REMARK  status: ('A' for Active; 'I' for Inactive)
REMARK    1  A    between atoms: C_2  and  C_3
REMARK    2  A    between atoms: C_7  and  C_8
REMARK    3  A    between atoms: C_10  and  N_11
REMARK    4  A    between atoms: C_12  and  C_14
REMARK    5  A    between atoms: C_14  and  O_15
REMARK    6  A    between atoms: O_15  and  C_16
REMARK    7  A    between atoms: C_16  and  C_18
REMARK    8  A    between atoms: C_23  and  C_24
REMARK    9  A    between atoms: C_24  and  C_25
REMARK                            x       y       z     vdW  Elec       q    Type
REMARK                         _______ _______ _______ _____ _____    ______ ____
ROOT
ATOM      1  O   UNL     1      37.641   3.718  16.112  0.00  0.00    +0.000 OA
ENDROOT
BRANCH   1   2
ATOM      2  C   UNL     1      38.481   4.778  16.014  0.00  0.00    +0.000 C 
ATOM      3  O   UNL     1      39.589   4.577  15.426  0.00  0.00    +0.000 OA
BRANCH   2   4
ATOM      4  C   UNL     1      38.206   6.120  16.524  0.00  0.00    +0.000 A 
ATOM      5  C   UNL     1      37.621   7.039  15.657  0.00  0.00    +0.000 A 
ATOM      6  C   UNL     1      37.277   8.286  16.087  0.00  0.00    +0.000 A 
ATOM      7  C   UNL     1      37.498   8.664  17.384  0.00  0.00    +0.000 A 
ATOM      8  C   UNL     1      38.070   7.787  18.257  0.00  0.00    +0.000 A 
ATOM      9  C   UNL     1      38.425   6.498  17.803  0.00  0.00    +0.000 A 
BRANCH   9  10
ATOM     10  C   UNL     1      39.115   5.624  18.782  0.00  0.00    +0.000 C 
BRANCH  10  11
ATOM     11  C   UNL     1      40.509   6.094  18.956  0.00  0.00    +0.000 A 
ATOM     12  C   UNL     1      41.406   6.326  17.963  0.00  0.00    +0.000 A 
ATOM     13  C   UNL     1      42.689   6.755  18.217  0.00  0.00    +0.000 A 
ATOM     14  C   UNL     1      43.152   6.978  19.494  0.00  0.00    +0.000 A 
ATOM     15  C   UNL     1      42.264   6.751  20.526  0.00  0.00    +0.000 A 
ATOM     16  C   UNL     1      40.993   6.326  20.262  0.00  0.00    +0.000 A 
ENDBRANCH  10  11
ENDBRANCH   9  10
ENDBRANCH   2   4
ENDBRANCH   1   2
BRANCH   1  17
ATOM     17  C   UNL     1      36.954   3.228  15.002  0.00  0.00    +0.000 C 
BRANCH  17  19
ATOM     18  N   UNL     1      37.118   0.818  15.911  0.00  0.00    +0.000 NA
ATOM     19  C   UNL     1      36.456   1.873  15.216  0.00  0.00    +0.000 C 
ATOM     20  O   UNL     1      35.286   1.648  14.705  0.00  0.00    +0.000 OA
BRANCH  18  26
ATOM     21  C   UNL     1      36.598  -1.339  14.975  0.00  0.00    +0.000 A 
ATOM     22  C   UNL     1      35.873  -2.539  14.968  0.00  0.00    +0.000 A 
ATOM     23  C   UNL     1      34.949  -2.792  15.952  0.00  0.00    +0.000 A 
ATOM     24  C   UNL     1      34.740  -1.861  16.944  0.00  0.00    +0.000 A 
ATOM     25  C   UNL     1      35.464  -0.664  16.950  0.00  0.00    +0.000 A 
ATOM     26  C   UNL     1      36.388  -0.415  15.961  0.00  0.00    +0.000 A 
BRANCH  21  28
ATOM     27  C   UNL     1      38.064  -2.496  13.453  0.00  0.00    +0.000 C 
ATOM     28  C   UNL     1      37.607  -1.103  13.915  0.00  0.00    +0.000 C 
ENDBRANCH  21  28
BRANCH  25  29
ATOM     29  C   UNL     1      35.253   0.338  18.025  0.00  0.00    +0.000 C 
ATOM     30  C   UNL     1      35.713  -0.359  19.314  0.00  0.00    +0.000 C 
ENDBRANCH  25  29
ENDBRANCH  18  26
ENDBRANCH  17  19
ENDBRANCH   1  17
TORSDOF 9
ENDMDL
MODEL 4
REMARK VINA RESULT:      -7.7      2.386      4.144
REMARK  Name = 
REMARK  9 active torsions:
REMARK  status: ('A' for Active; 'I' for Inactive)
REMARK    1  A    between atoms: C_2  and  C_3
REMARK    2  A    between atoms: C_7  and  C_8
REMARK    3  A    between atoms: C_10  and  N_11
REMARK    4  A    between atoms: C_12  and  C_14
REMARK    5  A    between atoms: C_14  and  O_15
REMARK    6  A    between atoms: O_15  and  C_16
REMARK    7  A    between atoms: C_16  and  C_18
REMARK    8  A    between atoms: C_23  and  C_24
REMARK    9  A    between atoms: C_24  and  C_25
REMARK                            x       y       z     vdW  Elec       q    Type
REMARK                         _______ _______ _______ _____ _____    ______ ____
ROOT
ATOM      1  O   UNL     1      35.354   1.460  15.263  0.00  0.00    +0.000 OA
ENDROOT
BRANCH   1   2
ATOM      2  C   UNL     1      35.736   2.634  15.826  0.00  0.00    +0.000 C 
ATOM      3  O   UNL     1      35.954   2.625  17.077  0.00  0.00    +0.000 OA
BRANCH   2   4
ATOM      4  C   UNL     1      35.918   3.892  15.104  0.00  0.00    +0.000 A 
ATOM      5  C   UNL     1      34.785   4.525  14.601  0.00  0.00    +0.000 A 
ATOM      6  C   UNL     1      34.877   5.733  13.977  0.00  0.00    +0.000 A 
ATOM      7  C   UNL     1      36.087   6.355  13.832  0.00  0.00    +0.000 A 
ATOM      8  C   UNL     1      37.216   5.761  14.314  0.00  0.00    +0.000 A 
ATOM      9  C   UNL     1      37.113   4.508  14.957  0.00  0.00    +0.000 A 
BRANCH   9  10
ATOM     10  C   UNL     1      38.386   3.882  15.385  0.00  0.00    +0.000 C 
BRANCH  10  11
ATOM     11  C   UNL     1      38.980   4.686  16.479  0.00  0.00    +0.000 A 
ATOM     12  C   UNL     1      38.564   4.711  17.771  0.00  0.00    +0.000 A 
ATOM     13  C   UNL     1      39.171   5.498  18.724  0.00  0.00    +0.000 A 
ATOM     14  C   UNL     1      40.241   6.313  18.433  0.00  0.00    +0.000 A 
ATOM     15  C   UNL     1      40.689   6.310  17.127  0.00  0.00    +0.000 A 
ATOM     16  C   UNL     1      40.079   5.525  16.190  0.00  0.00    +0.000 A 
ENDBRANCH  10  11
ENDBRANCH   9  10
ENDBRANCH   2   4
ENDBRANCH   1   2
BRANCH   1  17
ATOM     17  C   UNL     1      35.491   0.249  15.941  0.00  0.00    +0.000 C 
BRANCH  17  19
ATOM     18  N   UNL     1      38.002  -0.281  16.206  0.00  0.00    +0.000 NA
ATOM     19  C   UNL     1      36.727  -0.443  15.590  0.00  0.00    +0.000 C 
ATOM     20  O   UNL     1      36.607  -1.283  14.610  0.00  0.00    +0.000 OA
BRANCH  18  26
ATOM     21  C   UNL     1      39.766  -0.599  14.598  0.00  0.00    +0.000 A 
ATOM     22  C   UNL     1      40.765  -1.379  13.999  0.00  0.00    +0.000 A 
ATOM     23  C   UNL     1      41.022  -2.645  14.465  0.00  0.00    +0.000 A 
ATOM     24  C   UNL     1      40.294  -3.142  15.522  0.00  0.00    +0.000 A 
ATOM     25  C   UNL     1      39.297  -2.361  16.119  0.00  0.00    +0.000 A 
ATOM     26  C   UNL     1      39.043  -1.094  15.647  0.00  0.00    +0.000 A 
BRANCH  21  28
ATOM     27  C   UNL     1      40.901   1.305  13.653  0.00  0.00    +0.000 C 
ATOM     28  C   UNL     1      39.527   0.774  14.091  0.00  0.00    +0.000 C 
ENDBRANCH  21  28
BRANCH  25  29
ATOM     29  C   UNL     1      38.518  -2.886  17.269  0.00  0.00    +0.000 C 
ATOM     30  C   UNL     1      38.353  -4.386  16.986  0.00  0.00    +0.000 C 
ENDBRANCH  25  29
ENDBRANCH  18  26
ENDBRANCH  17  19
ENDBRANCH   1  17
TORSDOF 9
ENDMDL
MODEL 5
REMARK VINA RESULT:      -7.7      2.188      3.879
REMARK  Name = 
REMARK  9 active torsions:
REMARK  status: ('A' for Active; 'I' for Inactive)
REMARK    1  A    between atoms: C_2  and  C_3
REMARK    2  A    between atoms: C_7  and  C_8
REMARK    3  A    between atoms: C_10  and  N_11
REMARK    4  A    between atoms: C_12  and  C_14
REMARK    5  A    between atoms: C_14  and  O_15
REMARK    6  A    between atoms: O_15  and  C_16
REMARK    7  A    between atoms: C_16  and  C_18
REMARK    8  A    between atoms: C_23  and  C_24
REMARK    9  A    between atoms: C_24  and  C_25
REMARK                            x       y       z     vdW  Elec       q    Type
REMARK                         _______ _______ _______ _____ _____    ______ ____
ROOT
ATOM      1  O   UNL     1      34.774   1.845  15.263  0.00  0.00    +0.000 OA
ENDROOT
BRANCH   1   2
ATOM      2  C   UNL     1      35.461   2.965  14.927  0.00  0.00    +0.000 C 
ATOM      3  O   UNL     1      34.801   4.049  14.882  0.00  0.00    +0.000 OA
BRANCH   2   4
ATOM      4  C   UNL     1      36.890   3.016  14.622  0.00  0.00    +0.000 A 
ATOM      5  C   UNL     1      37.291   2.710  13.325  0.00  0.00    +0.000 A 
ATOM      6  C   UNL     1      38.600   2.803  12.957  0.00  0.00    +0.000 A 
ATOM      7  C   UNL     1      39.553   3.200  13.855  0.00  0.00    +0.000 A 
ATOM      8  C   UNL     1      39.192   3.505  15.134  0.00  0.00    +0.000 A 
ATOM      9  C   UNL     1      37.834   3.405  15.508  0.00  0.00    +0.000 A 
BRANCH   9  10
ATOM     10  C   UNL     1      37.524   3.674  16.932  0.00  0.00    +0.000 C 
BRANCH  10  11
ATOM     11  C   UNL     1      38.198   4.926  17.349  0.00  0.00    +0.000 A 
ATOM     12  C   UNL     1      38.142   6.119  16.704  0.00  0.00    +0.000 A 
ATOM     13  C   UNL     1      38.810   7.233  17.159  0.00  0.00    +0.000 A 
ATOM     14  C   UNL     1      39.579   7.215  18.301  0.00  0.00    +0.000 A 
ATOM     15  C   UNL     1      39.655   6.017  18.981  0.00  0.00    +0.000 A 
ATOM     16  C   UNL     1      38.989   4.917  18.519  0.00  0.00    +0.000 A 
ENDBRANCH  10  11
ENDBRANCH   9  10
ENDBRANCH   2   4
ENDBRANCH   1   2
BRANCH   1  17
ATOM     17  C   UNL     1      34.900   1.265  16.525  0.00  0.00    +0.000 C 
BRANCH  17  19
ATOM     18  N   UNL     1      37.151   0.138  17.093  0.00  0.00    +0.000 NA
ATOM     19  C   UNL     1      35.842   0.150  16.528  0.00  0.00    +0.000 C 
ATOM     20  O   UNL     1      35.402  -0.920  15.944  0.00  0.00    +0.000 OA
BRANCH  18  26
ATOM     21  C   UNL     1      37.806  -2.010  17.963  0.00  0.00    +0.000 A 
ATOM     22  C   UNL     1      38.514  -3.216  17.868  0.00  0.00    +0.000 A 
ATOM     23  C   UNL     1      39.260  -3.492  16.749  0.00  0.00    +0.000 A 
ATOM     24  C   UNL     1      39.308  -2.577  15.721  0.00  0.00    +0.000 A 
ATOM     25  C   UNL     1      38.600  -1.373  15.817  0.00  0.00    +0.000 A 
ATOM     26  C   UNL     1      37.855  -1.102  16.942  0.00  0.00    +0.000 A 
BRANCH  21  28
ATOM     27  C   UNL     1      37.619  -2.590  20.293  0.00  0.00    +0.000 C 
ATOM     28  C   UNL     1      36.988  -1.750  19.172  0.00  0.00    +0.000 C 
ENDBRANCH  21  28
BRANCH  25  29
ATOM     29  C   UNL     1      38.636  -0.389  14.706  0.00  0.00    +0.000 C 
ATOM     30  C   UNL     1      39.945  -0.680  13.958  0.00  0.00    +0.000 C 
ENDBRANCH  25  29
ENDBRANCH  18  26
ENDBRANCH  17  19
ENDBRANCH   1  17
TORSDOF 9
ENDMDL
MODEL 6
REMARK VINA RESULT:      -7.6      1.561      3.148
REMARK  Name = 
REMARK  9 active torsions:
REMARK  status: ('A' for Active; 'I' for Inactive)
REMARK    1  A    between atoms: C_2  and  C_3
REMARK    2  A    between atoms: C_7  and  C_8
REMARK    3  A    between atoms: C_10  and  N_11
REMARK    4  A    between atoms: C_12  and  C_14
REMARK    5  A    between atoms: C_14  and  O_15
REMARK    6  A    between atoms: O_15  and  C_16
REMARK    7  A    between atoms: C_16  and  C_18
REMARK    8  A    between atoms: C_23  and  C_24
REMARK    9  A    between atoms: C_24  and  C_25
REMARK                            x       y       z     vdW  Elec       q    Type
REMARK                         _______ _______ _______ _____ _____    ______ ____
ROOT
ATOM      1  O   UNL     1      39.450   4.826  15.499  0.00  0.00    +0.000 OA
ENDROOT
BRANCH   1   2
ATOM      2  C   UNL     1      39.941   6.043  15.840  0.00  0.00    +0.000 C 
ATOM      3  O   UNL     1      39.357   7.055  15.342  0.00  0.00    +0.000 OA
BRANCH   2   4
ATOM      4  C   UNL     1      41.076   6.273  16.733  0.00  0.00    +0.000 A 
ATOM      5  C   UNL     1      42.294   6.630  16.161  0.00  0.00    +0.000 A 
ATOM      6  C   UNL     1      43.373   6.924  16.939  0.00  0.00    +0.000 A 
ATOM      7  C   UNL     1      43.285   6.874  18.304  0.00  0.00    +0.000 A 
ATOM      8  C   UNL     1      42.107   6.527  18.895  0.00  0.00    +0.000 A 
ATOM      9  C   UNL     1      40.993   6.223  18.081  0.00  0.00    +0.000 A 
BRANCH   9  10
ATOM     10  C   UNL     1      39.768   5.776  18.786  0.00  0.00    +0.000 C 
BRANCH  10  11
ATOM     11  C   UNL     1      39.050   6.960  19.312  0.00  0.00    +0.000 A 
ATOM     12  C   UNL     1      39.318   7.608  20.474  0.00  0.00    +0.000 A 
ATOM     13  C   UNL     1      38.591   8.700  20.892  0.00  0.00    +0.000 A 
ATOM     14  C   UNL     1      37.543   9.210  20.160  0.00  0.00    +0.000 A 
ATOM     15  C   UNL     1      37.245   8.573  18.973  0.00  0.00    +0.000 A 
ATOM     16  C   UNL     1      37.973   7.490  18.568  0.00  0.00    +0.000 A 
ENDBRANCH  10  11
ENDBRANCH   9  10
ENDBRANCH   2   4
ENDBRANCH   1   2
BRANCH   1  17
ATOM     17  C   UNL     1      38.082   4.609  15.344  0.00  0.00    +0.000 C 
BRANCH  17  19
ATOM     18  N   UNL     1      36.545   2.636  14.706  0.00  0.00    +0.000 NA
ATOM     19  C   UNL     1      37.760   3.193  15.205  0.00  0.00    +0.000 C 
ATOM     20  O   UNL     1      38.704   2.392  15.588  0.00  0.00    +0.000 OA
BRANCH  18  26
ATOM     21  C   UNL     1      35.946   0.551  15.749  0.00  0.00    +0.000 A 
ATOM     22  C   UNL     1      35.927  -0.851  15.786  0.00  0.00    +0.000 A 
ATOM     23  C   UNL     1      36.472  -1.575  14.755  0.00  0.00    +0.000 A 
ATOM     24  C   UNL     1      37.037  -0.916  13.686  0.00  0.00    +0.000 A 
ATOM     25  C   UNL     1      37.055   0.483  13.651  0.00  0.00    +0.000 A 
ATOM     26  C   UNL     1      36.508   1.203  14.687  0.00  0.00    +0.000 A 
BRANCH  21  28
ATOM     27  C   UNL     1      35.690   0.539  18.145  0.00  0.00    +0.000 C 
ATOM     28  C   UNL     1      35.327   1.307  16.864  0.00  0.00    +0.000 C 
ENDBRANCH  21  28
BRANCH  25  29
ATOM     29  C   UNL     1      37.650   1.199  12.494  0.00  0.00    +0.000 C 
ATOM     30  C   UNL     1      36.871   0.694  11.270  0.00  0.00    +0.000 C 
ENDBRANCH  25  29
ENDBRANCH  18  26
ENDBRANCH  17  19
ENDBRANCH   1  17
TORSDOF 9
ENDMDL
MODEL 7
REMARK VINA RESULT:      -7.6      3.100      5.940
REMARK  Name = 
REMARK  9 active torsions:
REMARK  status: ('A' for Active; 'I' for Inactive)
REMARK    1  A    between atoms: C_2  and  C_3
REMARK    2  A    between atoms: C_7  and  C_8
REMARK    3  A    between atoms: C_10  and  N_11
REMARK    4  A    between atoms: C_12  and  C_14
REMARK    5  A    between atoms: C_14  and  O_15
REMARK    6  A    between atoms: O_15  and  C_16
REMARK    7  A    between atoms: C_16  and  C_18
REMARK    8  A    between atoms: C_23  and  C_24
REMARK    9  A    between atoms: C_24  and  C_25
REMARK                            x       y       z     vdW  Elec       q    Type
REMARK                         _______ _______ _______ _____ _____    ______ ____
ROOT
ATOM      1  O   UNL     1      35.188   1.450  14.891  0.00  0.00    +0.000 OA
ENDROOT
BRANCH   1   2
ATOM      2  C   UNL     1      35.348   2.758  15.211  0.00  0.00    +0.000 C 
ATOM      3  O   UNL     1      34.292   3.420  15.459  0.00  0.00    +0.000 OA
BRANCH   2   4
ATOM      4  C   UNL     1      36.631   3.454  15.296  0.00  0.00    +0.000 A 
ATOM      5  C   UNL     1      37.223   3.578  16.550  0.00  0.00    +0.000 A 
ATOM      6  C   UNL     1      38.449   4.155  16.691  0.00  0.00    +0.000 A 
ATOM      7  C   UNL     1      39.130   4.626  15.601  0.00  0.00    +0.000 A 
ATOM      8  C   UNL     1      38.577   4.520  14.359  0.00  0.00    +0.000 A 
ATOM      9  C   UNL     1      37.305   3.922  14.222  0.00  0.00    +0.000 A 
BRANCH   9  10
ATOM     10  C   UNL     1      36.729   3.911  12.856  0.00  0.00    +0.000 C 
BRANCH  10  11
ATOM     11  C   UNL     1      37.484   2.951  12.017  0.00  0.00    +0.000 A 
ATOM     12  C   UNL     1      38.473   3.259  11.139  0.00  0.00    +0.000 A 
ATOM     13  C   UNL     1      39.118   2.300  10.391  0.00  0.00    +0.000 A 
ATOM     14  C   UNL     1      38.805   0.963  10.482  0.00  0.00    +0.000 A 
ATOM     15  C   UNL     1      37.804   0.616  11.366  0.00  0.00    +0.000 A 
ATOM     16  C   UNL     1      37.171   1.576  12.104  0.00  0.00    +0.000 A 
ENDBRANCH  10  11
ENDBRANCH   9  10
ENDBRANCH   2   4
ENDBRANCH   1   2
BRANCH   1  17
ATOM     17  C   UNL     1      35.475   0.437  15.805  0.00  0.00    +0.000 C 
BRANCH  17  19
ATOM     18  N   UNL     1      37.924  -0.233  16.267  0.00  0.00    +0.000 NA
ATOM     19  C   UNL     1      36.726  -0.248  15.494  0.00  0.00    +0.000 C 
ATOM     20  O   UNL     1      36.700  -0.929  14.392  0.00  0.00    +0.000 OA
BRANCH  18  26
ATOM     21  C   UNL     1      39.850  -0.388  14.830  0.00  0.00    +0.000 A 
ATOM     22  C   UNL     1      40.891  -1.115  14.236  0.00  0.00    +0.000 A 
ATOM     23  C   UNL     1      41.065  -2.443  14.538  0.00  0.00    +0.000 A 
ATOM     24  C   UNL     1      40.211  -3.056  15.427  0.00  0.00    +0.000 A 
ATOM     25  C   UNL     1      39.172  -2.329  16.019  0.00  0.00    +0.000 A 
ATOM     26  C   UNL     1      39.002  -0.999  15.712  0.00  0.00    +0.000 A 
BRANCH  21  28
ATOM     27  C   UNL     1      40.853   1.385  13.545  0.00  0.00    +0.000 C 
ATOM     28  C   UNL     1      39.701   1.051  14.505  0.00  0.00    +0.000 C 
ENDBRANCH  21  28
BRANCH  25  29
ATOM     29  C   UNL     1      38.257  -2.980  16.990  0.00  0.00    +0.000 C 
ATOM     30  C   UNL     1      37.443  -3.983  16.159  0.00  0.00    +0.000 C 
ENDBRANCH  25  29
ENDBRANCH  18  26
ENDBRANCH  17  19
ENDBRANCH   1  17
TORSDOF 9
ENDMDL
MODEL 8
REMARK VINA RESULT:      -7.6      3.078      6.124
REMARK  Name = 
REMARK  9 active torsions:
REMARK  status: ('A' for Active; 'I' for Inactive)
REMARK    1  A    between atoms: C_2  and  C_3
REMARK    2  A    between atoms: C_7  and  C_8
REMARK    3  A    between atoms: C_10  and  N_11
REMARK    4  A    between atoms: C_12  and  C_14
REMARK    5  A    between atoms: C_14  and  O_15
REMARK    6  A    between atoms: O_15  and  C_16
REMARK    7  A    between atoms: C_16  and  C_18
REMARK    8  A    between atoms: C_23  and  C_24
REMARK    9  A    between atoms: C_24  and  C_25
REMARK                            x       y       z     vdW  Elec       q    Type
REMARK                         _______ _______ _______ _____ _____    ______ ____
ROOT
ATOM      1  O   UNL     1      34.998   1.354  15.251  0.00  0.00    +0.000 OA
ENDROOT
BRANCH   1   2
ATOM      2  C   UNL     1      35.167   2.665  15.555  0.00  0.00    +0.000 C 
ATOM      3  O   UNL     1      34.117   3.334  15.806  0.00  0.00    +0.000 OA
BRANCH   2   4
ATOM      4  C   UNL     1      36.455   3.354  15.620  0.00  0.00    +0.000 A 
ATOM      5  C   UNL     1      37.057   3.494  16.867  0.00  0.00    +0.000 A 
ATOM      6  C   UNL     1      38.287   4.067  16.990  0.00  0.00    +0.000 A 
ATOM      7  C   UNL     1      38.962   4.518  15.888  0.00  0.00    +0.000 A 
ATOM      8  C   UNL     1      38.399   4.396  14.652  0.00  0.00    +0.000 A 
ATOM      9  C   UNL     1      37.123   3.803  14.534  0.00  0.00    +0.000 A 
BRANCH   9  10
ATOM     10  C   UNL     1      36.536   3.775  13.173  0.00  0.00    +0.000 C 
BRANCH  10  11
ATOM     11  C   UNL     1      37.196   2.710  12.381  0.00  0.00    +0.000 A 
ATOM     12  C   UNL     1      36.931   1.380  12.450  0.00  0.00    +0.000 A 
ATOM     13  C   UNL     1      37.601   0.456  11.680  0.00  0.00    +0.000 A 
ATOM     14  C   UNL     1      38.585   0.817  10.787  0.00  0.00    +0.000 A 
ATOM     15  C   UNL     1      38.877   2.162  10.693  0.00  0.00    +0.000 A 
ATOM     16  C   UNL     1      38.206   3.070  11.462  0.00  0.00    +0.000 A 
ENDBRANCH  10  11
ENDBRANCH   9  10
ENDBRANCH   2   4
ENDBRANCH   1   2
BRANCH   1  17
ATOM     17  C   UNL     1      35.318   0.348  16.162  0.00  0.00    +0.000 C 
BRANCH  17  19
ATOM     18  N   UNL     1      37.781  -0.343  16.504  0.00  0.00    +0.000 NA
ATOM     19  C   UNL     1      36.543  -0.356  15.797  0.00  0.00    +0.000 C 
ATOM     20  O   UNL     1      36.451  -1.055  14.709  0.00  0.00    +0.000 OA
BRANCH  18  26
ATOM     21  C   UNL     1      38.920  -2.449  16.251  0.00  0.00    +0.000 A 
ATOM     22  C   UNL     1      39.947  -3.240  15.718  0.00  0.00    +0.000 A 
ATOM     23  C   UNL     1      40.856  -2.695  14.845  0.00  0.00    +0.000 A 
ATOM     24  C   UNL     1      40.753  -1.367  14.498  0.00  0.00    +0.000 A 
ATOM     25  C   UNL     1      39.727  -0.578  15.031  0.00  0.00    +0.000 A 
ATOM     26  C   UNL     1      38.820  -1.130  15.906  0.00  0.00    +0.000 A 
BRANCH  21  28
ATOM     27  C   UNL     1      38.538  -4.427  17.572  0.00  0.00    +0.000 C 
ATOM     28  C   UNL     1      37.937  -3.070  17.171  0.00  0.00    +0.000 C 
ENDBRANCH  21  28
BRANCH  25  29
ATOM     29  C   UNL     1      39.601   0.852  14.649  0.00  0.00    +0.000 C 
ATOM     30  C   UNL     1      40.803   1.126  13.734  0.00  0.00    +0.000 C 
ENDBRANCH  25  29
ENDBRANCH  18  26
ENDBRANCH  17  19
ENDBRANCH   1  17
TORSDOF 9
ENDMDL
MODEL 9
REMARK VINA RESULT:      -7.5      2.217      8.648
REMARK  Name = 
REMARK  9 active torsions:
REMARK  status: ('A' for Active; 'I' for Inactive)
REMARK    1  A    between atoms: C_2  and  C_3
REMARK    2  A    between atoms: C_7  and  C_8
REMARK    3  A    between atoms: C_10  and  N_11
REMARK    4  A    between atoms: C_12  and  C_14
REMARK    5  A    between atoms: C_14  and  O_15
REMARK    6  A    between atoms: O_15  and  C_16
REMARK    7  A    between atoms: C_16  and  C_18
REMARK    8  A    between atoms: C_23  and  C_24
REMARK    9  A    between atoms: C_24  and  C_25
REMARK                            x       y       z     vdW  Elec       q    Type
REMARK                         _______ _______ _______ _____ _____    ______ ____
ROOT
ATOM      1  O   UNL     1      35.398  -0.003  16.307  0.00  0.00    +0.000 OA
ENDROOT
BRANCH   1   2
ATOM      2  C   UNL     1      35.184  -1.142  17.012  0.00  0.00    +0.000 C 
ATOM      3  O   UNL     1      34.763  -1.007  18.203  0.00  0.00    +0.000 OA
BRANCH   2   4
ATOM      4  C   UNL     1      35.392  -2.497  16.505  0.00  0.00    +0.000 A 
ATOM      5  C   UNL     1      34.322  -3.131  15.879  0.00  0.00    +0.000 A 
ATOM      6  C   UNL     1      34.468  -4.367  15.325  0.00  0.00    +0.000 A 
ATOM      7  C   UNL     1      35.672  -5.016  15.370  0.00  0.00    +0.000 A 
ATOM      8  C   UNL     1      36.739  -4.423  15.977  0.00  0.00    +0.000 A 
ATOM      9  C   UNL     1      36.579  -3.142  16.550  0.00  0.00    +0.000 A 
BRANCH   9  10
ATOM     10  C   UNL     1      37.756  -2.591  17.262  0.00  0.00    +0.000 C 
BRANCH  10  11
ATOM     11  C   UNL     1      38.808  -2.252  16.275  0.00  0.00    +0.000 A 
ATOM     12  C   UNL     1      39.849  -3.043  15.910  0.00  0.00    +0.000 A 
ATOM     13  C   UNL     1      40.789  -2.643  14.987  0.00  0.00    +0.000 A 
ATOM     14  C   UNL     1      40.738  -1.413  14.371  0.00  0.00    +0.000 A 
ATOM     15  C   UNL     1      39.691  -0.585  14.720  0.00  0.00    +0.000 A 
ATOM     16  C   UNL     1      38.763  -0.992  15.637  0.00  0.00    +0.000 A 
ENDBRANCH  10  11
ENDBRANCH   9  10
ENDBRANCH   2   4
ENDBRANCH   1   2
BRANCH   1  17
ATOM     17  C   UNL     1      35.143   1.253  16.857  0.00  0.00    +0.000 C 
BRANCH  17  19
ATOM     18  N   UNL     1      37.452   2.269  16.314  0.00  0.00    +0.000 NA
ATOM     19  C   UNL     1      36.026   2.281  16.315  0.00  0.00    +0.000 C 
ATOM     20  O   UNL     1      35.408   3.292  15.791  0.00  0.00    +0.000 OA
BRANCH  18  26
ATOM     21  C   UNL     1      38.419   4.465  16.520  0.00  0.00    +0.000 A 
ATOM     22  C   UNL     1      38.977   5.625  15.965  0.00  0.00    +0.000 A 
ATOM     23  C   UNL     1      39.165   5.719  14.608  0.00  0.00    +0.000 A 
ATOM     24  C   UNL     1      38.802   4.667  13.797  0.00  0.00    +0.000 A 
ATOM     25  C   UNL     1      38.245   3.510  14.353  0.00  0.00    +0.000 A 
ATOM     26  C   UNL     1      38.058   3.422  15.713  0.00  0.00    +0.000 A 
BRANCH  21  28
ATOM     27  C   UNL     1      39.210   5.425  18.583  0.00  0.00    +0.000 C 
ATOM     28  C   UNL     1      38.251   4.381  17.991  0.00  0.00    +0.000 C 
ENDBRANCH  21  28
BRANCH  25  29
ATOM     29  C   UNL     1      37.865   2.366  13.485  0.00  0.00    +0.000 C 
ATOM     30  C   UNL     1      38.959   2.303  12.409  0.00  0.00    +0.000 C 
ENDBRANCH  25  29
ENDBRANCH  18  26
ENDBRANCH  17  19
ENDBRANCH   1  17
TORSDOF 9
ENDMDL
MODEL 10
REMARK VINA RESULT:      -7.3      2.176      4.108
REMARK  Name = 
REMARK  9 active torsions:
REMARK  status: ('A' for Active; 'I' for Inactive)
REMARK    1  A    between atoms: C_2  and  C_3
REMARK    2  A    between atoms: C_7  and  C_8
REMARK    3  A    between atoms: C_10  and  N_11
REMARK    4  A    between atoms: C_12  and  C_14
REMARK    5  A    between atoms: C_14  and  O_15
REMARK    6  A    between atoms: O_15  and  C_16
REMARK    7  A    between atoms: C_16  and  C_18
REMARK    8  A    between atoms: C_23  and  C_24
REMARK    9  A    between atoms: C_24  and  C_25
REMARK                            x       y       z     vdW  Elec       q    Type
REMARK                         _______ _______ _______ _____ _____    ______ ____
ROOT
ATOM      1  O   UNL     1      36.808   2.098  15.272  0.00  0.00    +0.000 OA
ENDROOT
BRANCH   1   2
ATOM      2  C   UNL     1      37.032   2.899  14.201  0.00  0.00    +0.000 C 
ATOM      3  O   UNL     1      37.479   2.341  13.151  0.00  0.00    +0.000 OA
BRANCH   2   4
ATOM      4  C   UNL     1      36.794   4.342  14.165  0.00  0.00    +0.000 A 
ATOM      5  C   UNL     1      35.517   4.783  13.832  0.00  0.00    +0.000 A 
ATOM      6  C   UNL     1      35.209   6.111  13.845  0.00  0.00    +0.000 A 
ATOM      7  C   UNL     1      36.151   7.043  14.187  0.00  0.00    +0.000 A 
ATOM      8  C   UNL     1      37.411   6.643  14.518  0.00  0.00    +0.000 A 
ATOM      9  C   UNL     1      37.722   5.266  14.500  0.00  0.00    +0.000 A 
BRANCH   9  10
ATOM     10  C   UNL     1      39.130   4.906  14.792  0.00  0.00    +0.000 C 
BRANCH  10  11
ATOM     11  C   UNL     1      39.446   5.274  16.193  0.00  0.00    +0.000 A 
ATOM     12  C   UNL     1      40.458   6.081  16.600  0.00  0.00    +0.000 A 
ATOM     13  C   UNL     1      40.685   6.363  17.928  0.00  0.00    +0.000 A 
ATOM     14  C   UNL     1      39.901   5.846  18.935  0.00  0.00    +0.000 A 
ATOM     15  C   UNL     1      38.863   5.021  18.553  0.00  0.00    +0.000 A 
ATOM     16  C   UNL     1      38.647   4.748  17.232  0.00  0.00    +0.000 A 
ENDBRANCH  10  11
ENDBRANCH   9  10
ENDBRANCH   2   4
ENDBRANCH   1   2
BRANCH   1  17
ATOM     17  C   UNL     1      35.914   1.030  15.207  0.00  0.00    +0.000 C 
BRANCH  17  19
ATOM     18  N   UNL     1      37.799  -0.389  16.253  0.00  0.00    +0.000 NA
ATOM     19  C   UNL     1      36.460  -0.183  15.808  0.00  0.00    +0.000 C 
ATOM     20  O   UNL     1      35.604  -1.148  15.931  0.00  0.00    +0.000 OA
BRANCH  18  26
ATOM     21  C   UNL     1      37.939  -1.862  18.153  0.00  0.00    +0.000 A 
ATOM     22  C   UNL     1      38.217  -3.108  18.731  0.00  0.00    +0.000 A 
ATOM     23  C   UNL     1      38.605  -4.163  17.942  0.00  0.00    +0.000 A 
ATOM     24  C   UNL     1      38.718  -3.988  16.581  0.00  0.00    +0.000 A 
ATOM     25  C   UNL     1      38.439  -2.743  16.006  0.00  0.00    +0.000 A 
ATOM     26  C   UNL     1      38.053  -1.689  16.802  0.00  0.00    +0.000 A 
BRANCH  21  28
ATOM     27  C   UNL     1      36.036  -1.053  19.391  0.00  0.00    +0.000 C 
ATOM     28  C   UNL     1      37.498  -0.747  19.027  0.00  0.00    +0.000 C 
ENDBRANCH  21  28
BRANCH  25  29
ATOM     29  C   UNL     1      38.545  -2.552  14.537  0.00  0.00    +0.000 C 
ATOM     30  C   UNL     1      37.399  -3.384  13.944  0.00  0.00    +0.000 C 
ENDBRANCH  25  29
ENDBRANCH  18  26
ENDBRANCH  17  19
ENDBRANCH   1  17
TORSDOF 9
ENDMDL
