MODEL 1
REMARK VINA RESULT:      -7.8      0.000      0.000
REMARK  Name = 
REMARK  3 active torsions:
REMARK  status: ('A' for Active; 'I' for Inactive)
REMARK    1  A    between atoms: O_2  and  C_3
REMARK    2  A    between atoms: C_8  and  N_9
REMARK    3  A    between atoms: C_17  and  C_18
REMARK                            x       y       z     vdW  Elec       q    Type
REMARK                         _______ _______ _______ _____ _____    ______ ____
ROOT
ATOM      1  N   UNL     1      15.618  12.169  35.130  0.00  0.00    +0.000 NA
ATOM      2  C   UNL     1      14.869  11.742  36.236  0.00  0.00    +0.000 A 
ATOM      3  N   UNL     1      13.514  11.842  36.287  0.00  0.00    +0.000 NA
ATOM      4  C   UNL     1      12.800  11.431  37.351  0.00  0.00    +0.000 A 
ATOM      5  C   UNL     1      11.301  11.576  37.335  0.00  0.00    +0.000 C 
ATOM      6  C   UNL     1      13.436  10.884  38.446  0.00  0.00    +0.000 A 
ATOM      7  C   UNL     1      14.825  10.780  38.396  0.00  0.00    +0.000 A 
ATOM      8  C   UNL     1      15.542  10.192  39.563  0.00  0.00    +0.000 C 
ATOM      9  C   UNL     1      15.543  11.200  37.310  0.00  0.00    +0.000 A 
ENDROOT
BRANCH   1  15
ATOM     10  C   UNL     1      15.029  12.183  32.748  0.00  0.00    +0.000 A 
ATOM     11  C   UNL     1      14.338  12.755  31.704  0.00  0.00    +0.000 A 
ATOM     12  C   UNL     1      13.528  13.863  31.839  0.00  0.00    +0.000 A 
ATOM     13  C   UNL     1      13.417  14.412  33.102  0.00  0.00    +0.000 A 
ATOM     14  C   UNL     1      14.103  13.847  34.158  0.00  0.00    +0.000 A 
ATOM     15  C   UNL     1      14.913  12.736  34.007  0.00  0.00    +0.000 A 
BRANCH  10  17
ATOM     16  C   UNL     1      16.149  10.444  31.409  0.00  0.00    +0.000 C 
ATOM     17  O   UNL     1      15.838  11.076  32.611  0.00  0.00    +0.000 OA
ENDBRANCH  10  17
ENDBRANCH   1  15
BRANCH   9  18
ATOM     18  C   UNL     1      17.001  11.069  37.306  0.00  0.00    +0.000 C 
ATOM     19  N   UNL     1      17.629   9.867  36.899  0.00  0.00    +0.000 NA
ATOM     20  O   UNL     1      17.732  12.029  37.670  0.00  0.00    +0.000 OA
ENDBRANCH   9  18
TORSDOF 3
ENDMDL
MODEL 2
REMARK VINA RESULT:      -7.1      1.659      5.565
REMARK  Name = 
REMARK  3 active torsions:
REMARK  status: ('A' for Active; 'I' for Inactive)
REMARK    1  A    between atoms: O_2  and  C_3
REMARK    2  A    between atoms: C_8  and  N_9
REMARK    3  A    between atoms: C_17  and  C_18
REMARK                            x       y       z     vdW  Elec       q    Type
REMARK                         _______ _______ _______ _____ _____    ______ ____
ROOT
ATOM      1  N   UNL     1      15.364  11.258  34.425  0.00  0.00    +0.000 NA
ATOM      2  C   UNL     1      14.698  12.376  33.903  0.00  0.00    +0.000 A 
ATOM      3  N   UNL     1      14.168  13.350  34.690  0.00  0.00    +0.000 NA
ATOM      4  C   UNL     1      13.530  14.420  34.183  0.00  0.00    +0.000 A 
ATOM      5  C   UNL     1      12.969  15.458  35.119  0.00  0.00    +0.000 C 
ATOM      6  C   UNL     1      13.391  14.564  32.818  0.00  0.00    +0.000 A 
ATOM      7  C   UNL     1      13.934  13.568  32.008  0.00  0.00    +0.000 A 
ATOM      8  C   UNL     1      13.801  13.696  30.529  0.00  0.00    +0.000 C 
ATOM      9  C   UNL     1      14.581  12.483  32.533  0.00  0.00    +0.000 A 
ENDROOT
BRANCH   1  15
ATOM     10  C   UNL     1      16.654  10.689  36.434  0.00  0.00    +0.000 A 
ATOM     11  C   UNL     1      16.728  10.598  37.806  0.00  0.00    +0.000 A 
ATOM     12  C   UNL     1      15.694  10.938  38.651  0.00  0.00    +0.000 A 
ATOM     13  C   UNL     1      14.528  11.395  38.069  0.00  0.00    +0.000 A 
ATOM     14  C   UNL     1      14.440  11.492  36.694  0.00  0.00    +0.000 A 
ATOM     15  C   UNL     1      15.486  11.146  35.859  0.00  0.00    +0.000 A 
BRANCH  10  17
ATOM     16  C   UNL     1      18.839   9.654  35.958  0.00  0.00    +0.000 C 
ATOM     17  O   UNL     1      17.689  10.349  35.591  0.00  0.00    +0.000 OA
ENDBRANCH  10  17
ENDBRANCH   1  15
BRANCH   9  18
ATOM     18  C   UNL     1      15.134  11.463  31.639  0.00  0.00    +0.000 C 
ATOM     19  N   UNL     1      16.420  11.609  31.065  0.00  0.00    +0.000 NA
ATOM     20  O   UNL     1      14.471  10.429  31.360  0.00  0.00    +0.000 OA
ENDBRANCH   9  18
TORSDOF 3
ENDMDL
MODEL 3
REMARK VINA RESULT:      -6.3      1.144      2.121
REMARK  Name = 
REMARK  3 active torsions:
REMARK  status: ('A' for Active; 'I' for Inactive)
REMARK    1  A    between atoms: O_2  and  C_3
REMARK    2  A    between atoms: C_8  and  N_9
REMARK    3  A    between atoms: C_17  and  C_18
REMARK                            x       y       z     vdW  Elec       q    Type
REMARK                         _______ _______ _______ _____ _____    ______ ____
ROOT
ATOM      1  N   UNL     1      15.672  12.006  34.699  0.00  0.00    +0.000 NA
ATOM      2  C   UNL     1      14.927  11.677  35.840  0.00  0.00    +0.000 A 
ATOM      3  N   UNL     1      13.568  11.720  35.867  0.00  0.00    +0.000 NA
ATOM      4  C   UNL     1      12.859  11.404  36.966  0.00  0.00    +0.000 A 
ATOM      5  C   UNL     1      11.355  11.476  36.920  0.00  0.00    +0.000 C 
ATOM      6  C   UNL     1      13.503  11.019  38.123  0.00  0.00    +0.000 A 
ATOM      7  C   UNL     1      14.896  10.973  38.098  0.00  0.00    +0.000 A 
ATOM      8  C   UNL     1      15.622  10.560  39.332  0.00  0.00    +0.000 C 
ATOM      9  C   UNL     1      15.609  11.297  36.976  0.00  0.00    +0.000 A 
ENDROOT
BRANCH   1  15
ATOM     10  C   UNL     1      14.163  13.532  33.508  0.00  0.00    +0.000 A 
ATOM     11  C   UNL     1      13.500  13.877  32.352  0.00  0.00    +0.000 A 
ATOM     12  C   UNL     1      13.580  13.155  31.181  0.00  0.00    +0.000 A 
ATOM     13  C   UNL     1      14.377  12.027  31.189  0.00  0.00    +0.000 A 
ATOM     14  C   UNL     1      15.049  11.670  32.341  0.00  0.00    +0.000 A 
ATOM     15  C   UNL     1      14.958  12.404  33.510  0.00  0.00    +0.000 A 
BRANCH  10  17
ATOM     16  C   UNL     1      13.051  15.128  35.021  0.00  0.00    +0.000 C 
ATOM     17  O   UNL     1      14.081  14.255  34.678  0.00  0.00    +0.000 OA
ENDBRANCH  10  17
ENDBRANCH   1  15
BRANCH   9  18
ATOM     18  C   UNL     1      17.072  11.233  37.001  0.00  0.00    +0.000 C 
ATOM     19  N   UNL     1      17.761  10.039  36.680  0.00  0.00    +0.000 NA
ATOM     20  O   UNL     1      17.752  12.248  37.311  0.00  0.00    +0.000 OA
ENDBRANCH   9  18
TORSDOF 3
ENDMDL
MODEL 4
REMARK VINA RESULT:      -6.2      3.140      5.431
REMARK  Name = 
REMARK  3 active torsions:
REMARK  status: ('A' for Active; 'I' for Inactive)
REMARK    1  A    between atoms: O_2  and  C_3
REMARK    2  A    between atoms: C_8  and  N_9
REMARK    3  A    between atoms: C_17  and  C_18
REMARK                            x       y       z     vdW  Elec       q    Type
REMARK                         _______ _______ _______ _____ _____    ______ ____
ROOT
ATOM      1  N   UNL     1      17.471   9.568  37.526  0.00  0.00    +0.000 NA
ATOM      2  C   UNL     1      18.439  10.193  38.325  0.00  0.00    +0.000 A 
ATOM      3  N   UNL     1      19.055  11.350  37.963  0.00  0.00    +0.000 NA
ATOM      4  C   UNL     1      19.983  11.945  38.735  0.00  0.00    +0.000 A 
ATOM      5  C   UNL     1      20.622  13.226  38.266  0.00  0.00    +0.000 C 
ATOM      6  C   UNL     1      20.345  11.385  39.942  0.00  0.00    +0.000 A 
ATOM      7  C   UNL     1      19.715  10.200  40.316  0.00  0.00    +0.000 A 
ATOM      8  C   UNL     1      20.085   9.571  41.616  0.00  0.00    +0.000 C 
ATOM      9  C   UNL     1      18.772   9.602  39.525  0.00  0.00    +0.000 A 
ENDROOT
BRANCH   1  15
ATOM     10  C   UNL     1      16.161  11.175  36.212  0.00  0.00    +0.000 A 
ATOM     11  C   UNL     1      15.858  11.738  34.993  0.00  0.00    +0.000 A 
ATOM     12  C   UNL     1      16.464  11.371  33.810  0.00  0.00    +0.000 A 
ATOM     13  C   UNL     1      17.425  10.381  33.875  0.00  0.00    +0.000 A 
ATOM     14  C   UNL     1      17.739   9.808  35.091  0.00  0.00    +0.000 A 
ATOM     15  C   UNL     1      17.122  10.186  36.269  0.00  0.00    +0.000 A 
BRANCH  10  17
ATOM     16  C   UNL     1      14.212  11.346  37.711  0.00  0.00    +0.000 C 
ATOM     17  O   UNL     1      15.555  11.543  37.393  0.00  0.00    +0.000 OA
ENDBRANCH  10  17
ENDBRANCH   1  15
BRANCH   9  18
ATOM     18  C   UNL     1      18.140   8.356  39.963  0.00  0.00    +0.000 C 
ATOM     19  N   UNL     1      16.959   8.367  40.745  0.00  0.00    +0.000 NA
ATOM     20  O   UNL     1      18.637   7.241  39.652  0.00  0.00    +0.000 OA
ENDBRANCH   9  18
TORSDOF 3
ENDMDL
MODEL 5
REMARK VINA RESULT:      -6.0      5.269      8.061
REMARK  Name = 
REMARK  3 active torsions:
REMARK  status: ('A' for Active; 'I' for Inactive)
REMARK    1  A    between atoms: O_2  and  C_3
REMARK    2  A    between atoms: C_8  and  N_9
REMARK    3  A    between atoms: C_17  and  C_18
REMARK                            x       y       z     vdW  Elec       q    Type
REMARK                         _______ _______ _______ _____ _____    ______ ____
ROOT
ATOM      1  N   UNL     1      19.408   8.946  40.185  0.00  0.00    +0.000 NA
ATOM      2  C   UNL     1      19.555   9.222  38.818  0.00  0.00    +0.000 A 
ATOM      3  N   UNL     1      18.518   9.164  37.941  0.00  0.00    +0.000 NA
ATOM      4  C   UNL     1      18.666   9.430  36.630  0.00  0.00    +0.000 A 
ATOM      5  C   UNL     1      17.469   9.344  35.720  0.00  0.00    +0.000 C 
ATOM      6  C   UNL     1      19.902   9.777  36.127  0.00  0.00    +0.000 A 
ATOM      7  C   UNL     1      20.967   9.838  37.023  0.00  0.00    +0.000 A 
ATOM      8  C   UNL     1      22.316  10.211  36.509  0.00  0.00    +0.000 C 
ATOM      9  C   UNL     1      20.808   9.565  38.354  0.00  0.00    +0.000 A 
ENDROOT
BRANCH   1  15
ATOM     10  C   UNL     1      17.703   7.265  40.723  0.00  0.00    +0.000 A 
ATOM     11  C   UNL     1      16.444   6.965  41.193  0.00  0.00    +0.000 A 
ATOM     12  C   UNL     1      15.541   7.916  41.620  0.00  0.00    +0.000 A 
ATOM     13  C   UNL     1      15.943   9.236  41.564  0.00  0.00    +0.000 A 
ATOM     14  C   UNL     1      17.203   9.551  41.095  0.00  0.00    +0.000 A 
ATOM     15  C   UNL     1      18.098   8.586  40.670  0.00  0.00    +0.000 A 
BRANCH  10  17
ATOM     16  C   UNL     1      18.866   5.102  40.935  0.00  0.00    +0.000 C 
ATOM     17  O   UNL     1      18.604   6.313  40.297  0.00  0.00    +0.000 OA
ENDBRANCH  10  17
ENDBRANCH   1  15
BRANCH   9  18
ATOM     18  C   UNL     1      21.959   9.643  39.256  0.00  0.00    +0.000 C 
ATOM     19  N   UNL     1      22.784   8.517  39.493  0.00  0.00    +0.000 NA
ATOM     20  O   UNL     1      22.242  10.722  39.842  0.00  0.00    +0.000 OA
ENDBRANCH   9  18
TORSDOF 3
ENDMDL
MODEL 6
REMARK VINA RESULT:      -5.9     17.713     19.218
REMARK  Name = 
REMARK  3 active torsions:
REMARK  status: ('A' for Active; 'I' for Inactive)
REMARK    1  A    between atoms: O_2  and  C_3
REMARK    2  A    between atoms: C_8  and  N_9
REMARK    3  A    between atoms: C_17  and  C_18
REMARK                            x       y       z     vdW  Elec       q    Type
REMARK                         _______ _______ _______ _____ _____    ______ ____
ROOT
ATOM      1  N   UNL     1      26.372  23.482  27.741  0.00  0.00    +0.000 NA
ATOM      2  C   UNL     1      27.653  23.247  28.260  0.00  0.00    +0.000 A 
ATOM      3  N   UNL     1      28.779  23.333  27.504  0.00  0.00    +0.000 NA
ATOM      4  C   UNL     1      30.006  23.106  28.008  0.00  0.00    +0.000 A 
ATOM      5  C   UNL     1      31.207  23.219  27.106  0.00  0.00    +0.000 C 
ATOM      6  C   UNL     1      30.160  22.772  29.337  0.00  0.00    +0.000 A 
ATOM      7  C   UNL     1      29.008  22.685  30.116  0.00  0.00    +0.000 A 
ATOM      8  C   UNL     1      29.142  22.327  31.557  0.00  0.00    +0.000 C 
ATOM      9  C   UNL     1      27.764  22.917  29.594  0.00  0.00    +0.000 A 
ENDROOT
BRANCH   1  15
ATOM     10  C   UNL     1      26.211  25.147  25.945  0.00  0.00    +0.000 A 
ATOM     11  C   UNL     1      26.100  25.433  24.603  0.00  0.00    +0.000 A 
ATOM     12  C   UNL     1      26.028  24.469  23.621  0.00  0.00    +0.000 A 
ATOM     13  C   UNL     1      26.072  23.149  24.028  0.00  0.00    +0.000 A 
ATOM     14  C   UNL     1      26.185  22.849  25.370  0.00  0.00    +0.000 A 
ATOM     15  C   UNL     1      26.255  23.827  26.345  0.00  0.00    +0.000 A 
BRANCH  10  17
ATOM     16  C   UNL     1      25.237  26.943  27.324  0.00  0.00    +0.000 C 
ATOM     17  O   UNL     1      26.282  26.112  26.926  0.00  0.00    +0.000 OA
ENDBRANCH  10  17
ENDBRANCH   1  15
BRANCH   9  18
ATOM     18  C   UNL     1      26.584  22.812  30.455  0.00  0.00    +0.000 C 
ATOM     19  N   UNL     1      25.953  21.565  30.687  0.00  0.00    +0.000 NA
ATOM     20  O   UNL     1      26.102  23.835  31.010  0.00  0.00    +0.000 OA
ENDBRANCH   9  18
TORSDOF 3
ENDMDL
MODEL 7
REMARK VINA RESULT:      -5.9     21.457     23.488
REMARK  Name = 
REMARK  3 active torsions:
REMARK  status: ('A' for Active; 'I' for Inactive)
REMARK    1  A    between atoms: O_2  and  C_3
REMARK    2  A    between atoms: C_8  and  N_9
REMARK    3  A    between atoms: C_17  and  C_18
REMARK                            x       y       z     vdW  Elec       q    Type
REMARK                         _______ _______ _______ _____ _____    ______ ____
ROOT
ATOM      1  N   UNL     1      20.777  -7.267  24.994  0.00  0.00    +0.000 NA
ATOM      2  C   UNL     1      20.557  -8.144  26.065  0.00  0.00    +0.000 A 
ATOM      3  N   UNL     1      21.494  -9.030  26.494  0.00  0.00    +0.000 NA
ATOM      4  C   UNL     1      21.277  -9.869  27.523  0.00  0.00    +0.000 A 
ATOM      5  C   UNL     1      22.365 -10.824  27.940  0.00  0.00    +0.000 C 
ATOM      6  C   UNL     1      20.068  -9.856  28.187  0.00  0.00    +0.000 A 
ATOM      7  C   UNL     1      19.105  -8.948  27.751  0.00  0.00    +0.000 A 
ATOM      8  C   UNL     1      17.789  -8.909  28.450  0.00  0.00    +0.000 C 
ATOM      9  C   UNL     1      19.335  -8.098  26.704  0.00  0.00    +0.000 A 
ENDROOT
BRANCH   1  15
ATOM     10  C   UNL     1      22.274  -8.190  23.282  0.00  0.00    +0.000 A 
ATOM     11  C   UNL     1      23.507  -8.203  22.672  0.00  0.00    +0.000 A 
ATOM     12  C   UNL     1      24.553  -7.385  23.045  0.00  0.00    +0.000 A 
ATOM     13  C   UNL     1      24.327  -6.511  24.091  0.00  0.00    +0.000 A 
ATOM     14  C   UNL     1      23.094  -6.487  24.711  0.00  0.00    +0.000 A 
ATOM     15  C   UNL     1      22.055  -7.315  24.326  0.00  0.00    +0.000 A 
BRANCH  10  17
ATOM     16  C   UNL     1      21.183 -10.391  23.079  0.00  0.00    +0.000 C 
ATOM     17  O   UNL     1      21.230  -9.009  22.909  0.00  0.00    +0.000 OA
ENDBRANCH  10  17
ENDBRANCH   1  15
BRANCH   9  18
ATOM     18  C   UNL     1      18.289  -7.163  26.283  0.00  0.00    +0.000 C 
ATOM     19  N   UNL     1      18.240  -5.841  26.787  0.00  0.00    +0.000 NA
ATOM     20  O   UNL     1      17.406  -7.519  25.458  0.00  0.00    +0.000 OA
ENDBRANCH   9  18
TORSDOF 3
ENDMDL
MODEL 8
REMARK VINA RESULT:      -5.8      3.924      6.600
REMARK  Name = 
REMARK  3 active torsions:
REMARK  status: ('A' for Active; 'I' for Inactive)
REMARK    1  A    between atoms: O_2  and  C_3
REMARK    2  A    between atoms: C_8  and  N_9
REMARK    3  A    between atoms: C_17  and  C_18
REMARK                            x       y       z     vdW  Elec       q    Type
REMARK                         _______ _______ _______ _____ _____    ______ ____
ROOT
ATOM      1  N   UNL     1      19.151  10.950  37.468  0.00  0.00    +0.000 NA
ATOM      2  C   UNL     1      20.028  11.914  37.984  0.00  0.00    +0.000 A 
ATOM      3  N   UNL     1      19.609  13.134  38.415  0.00  0.00    +0.000 NA
ATOM      4  C   UNL     1      20.456  14.055  38.909  0.00  0.00    +0.000 A 
ATOM      5  C   UNL     1      19.916  15.385  39.365  0.00  0.00    +0.000 C 
ATOM      6  C   UNL     1      21.805  13.783  38.994  0.00  0.00    +0.000 A 
ATOM      7  C   UNL     1      22.239  12.534  38.555  0.00  0.00    +0.000 A 
ATOM      8  C   UNL     1      23.692  12.210  38.635  0.00  0.00    +0.000 C 
ATOM      9  C   UNL     1      21.370  11.603  38.054  0.00  0.00    +0.000 A 
ENDROOT
BRANCH   1  15
ATOM     10  C   UNL     1      16.827  10.609  38.178  0.00  0.00    +0.000 A 
ATOM     11  C   UNL     1      15.497  10.951  38.077  0.00  0.00    +0.000 A 
ATOM     12  C   UNL     1      15.022  11.931  37.231  0.00  0.00    +0.000 A 
ATOM     13  C   UNL     1      15.949  12.593  36.451  0.00  0.00    +0.000 A 
ATOM     14  C   UNL     1      17.286  12.261  36.542  0.00  0.00    +0.000 A 
ATOM     15  C   UNL     1      17.748  11.275  37.395  0.00  0.00    +0.000 A 
BRANCH  10  17
ATOM     16  C   UNL     1      16.877   9.418  40.334  0.00  0.00    +0.000 C 
ATOM     17  O   UNL     1      17.300   9.630  39.024  0.00  0.00    +0.000 OA
ENDBRANCH  10  17
ENDBRANCH   1  15
BRANCH   9  18
ATOM     18  C   UNL     1      21.876  10.304  37.604  0.00  0.00    +0.000 C 
ATOM     19  N   UNL     1      22.260  10.092  36.258  0.00  0.00    +0.000 NA
ATOM     20  O   UNL     1      21.980   9.343  38.412  0.00  0.00    +0.000 OA
ENDBRANCH   9  18
TORSDOF 3
ENDMDL
MODEL 9
REMARK VINA RESULT:      -5.8     20.492     22.791
REMARK  Name = 
REMARK  3 active torsions:
REMARK  status: ('A' for Active; 'I' for Inactive)
REMARK    1  A    between atoms: O_2  and  C_3
REMARK    2  A    between atoms: C_8  and  N_9
REMARK    3  A    between atoms: C_17  and  C_18
REMARK                            x       y       z     vdW  Elec       q    Type
REMARK                         _______ _______ _______ _____ _____    ______ ____
ROOT
ATOM      1  N   UNL     1      17.104  -8.529  26.464  0.00  0.00    +0.000 NA
ATOM      2  C   UNL     1      17.149  -9.314  27.625  0.00  0.00    +0.000 A 
ATOM      3  N   UNL     1      18.025  -9.079  28.637  0.00  0.00    +0.000 NA
ATOM      4  C   UNL     1      18.063  -9.836  29.749  0.00  0.00    +0.000 A 
ATOM      5  C   UNL     1      19.064  -9.514  30.828  0.00  0.00    +0.000 C 
ATOM      6  C   UNL     1      17.196 -10.898  29.897  0.00  0.00    +0.000 A 
ATOM      7  C   UNL     1      16.295 -11.141  28.862  0.00  0.00    +0.000 A 
ATOM      8  C   UNL     1      15.344 -12.281  28.992  0.00  0.00    +0.000 C 
ATOM      9  C   UNL     1      16.264 -10.366  27.735  0.00  0.00    +0.000 A 
ENDROOT
BRANCH   1  15
ATOM     10  C   UNL     1      19.237  -7.587  25.700  0.00  0.00    +0.000 A 
ATOM     11  C   UNL     1      20.091  -6.511  25.612  0.00  0.00    +0.000 A 
ATOM     12  C   UNL     1      19.813  -5.269  26.141  0.00  0.00    +0.000 A 
ATOM     13  C   UNL     1      18.602  -5.118  26.790  0.00  0.00    +0.000 A 
ATOM     14  C   UNL     1      17.736  -6.188  26.884  0.00  0.00    +0.000 A 
ATOM     15  C   UNL     1      18.030  -7.429  26.349  0.00  0.00    +0.000 A 
BRANCH  10  17
ATOM     16  C   UNL     1      20.516  -9.105  24.238  0.00  0.00    +0.000 C 
ATOM     17  O   UNL     1      19.518  -8.828  25.171  0.00  0.00    +0.000 OA
ENDBRANCH  10  17
ENDBRANCH   1  15
BRANCH   9  18
ATOM     18  C   UNL     1      15.298 -10.664  26.674  0.00  0.00    +0.000 C 
ATOM     19  N   UNL     1      15.622 -11.543  25.612  0.00  0.00    +0.000 NA
ATOM     20  O   UNL     1      14.153 -10.140  26.685  0.00  0.00    +0.000 OA
ENDBRANCH   9  18
TORSDOF 3
ENDMDL
MODEL 10
REMARK VINA RESULT:      -5.6     20.473     22.804
REMARK  Name = 
REMARK  3 active torsions:
REMARK  status: ('A' for Active; 'I' for Inactive)
REMARK    1  A    between atoms: O_2  and  C_3
REMARK    2  A    between atoms: C_8  and  N_9
REMARK    3  A    between atoms: C_17  and  C_18
REMARK                            x       y       z     vdW  Elec       q    Type
REMARK                         _______ _______ _______ _____ _____    ______ ____
ROOT
ATOM      1  N   UNL     1      18.144  -8.653  27.789  0.00  0.00    +0.000 NA
ATOM      2  C   UNL     1      17.008  -9.260  27.237  0.00  0.00    +0.000 A 
ATOM      3  N   UNL     1      16.400  -8.797  26.113  0.00  0.00    +0.000 NA
ATOM      4  C   UNL     1      15.309  -9.384  25.588  0.00  0.00    +0.000 A 
ATOM      5  C   UNL     1      14.691  -8.811  24.340  0.00  0.00    +0.000 C 
ATOM      6  C   UNL     1      14.763 -10.499  26.189  0.00  0.00    +0.000 A 
ATOM      7  C   UNL     1      15.384 -10.978  27.340  0.00  0.00    +0.000 A 
ATOM      8  C   UNL     1      14.818 -12.182  28.012  0.00  0.00    +0.000 C 
ATOM      9  C   UNL     1      16.493 -10.374  27.867  0.00  0.00    +0.000 A 
ENDROOT
BRANCH   1  15
ATOM     10  C   UNL     1      19.773  -7.592  26.291  0.00  0.00    +0.000 A 
ATOM     11  C   UNL     1      20.254  -6.456  25.681  0.00  0.00    +0.000 A 
ATOM     12  C   UNL     1      19.708  -5.203  25.861  0.00  0.00    +0.000 A 
ATOM     13  C   UNL     1      18.617  -5.105  26.703  0.00  0.00    +0.000 A 
ATOM     14  C   UNL     1      18.124  -6.238  27.319  0.00  0.00    +0.000 A 
ATOM     15  C   UNL     1      18.683  -7.488  27.130  0.00  0.00    +0.000 A 
BRANCH  10  17
ATOM     16  C   UNL     1      21.652  -9.109  25.798  0.00  0.00    +0.000 C 
ATOM     17  O   UNL     1      20.320  -8.844  26.110  0.00  0.00    +0.000 OA
ENDBRANCH  10  17
ENDBRANCH   1  15
BRANCH   9  18
ATOM     18  C   UNL     1      17.109 -10.916  29.081  0.00  0.00    +0.000 C 
ATOM     19  N   UNL     1      16.715 -10.471  30.366  0.00  0.00    +0.000 NA
ATOM     20  O   UNL     1      18.008 -11.795  29.005  0.00  0.00    +0.000 OA
ENDBRANCH   9  18
TORSDOF 3
ENDMDL
