MODEL 1
REMARK VINA RESULT:      -8.5      0.000      0.000
REMARK  Name = 
REMARK  7 active torsions:
REMARK  status: ('A' for Active; 'I' for Inactive)
REMARK    1  A    between atoms: O_2  and  C_3
REMARK    2  A    between atoms: C_6  and  C_7
REMARK    3  A    between atoms: C_7  and  N_8
REMARK    4  A    between atoms: N_8  and  C_10
REMARK    5  A    between atoms: C_14  and  C_15
REMARK    6  A    between atoms: C_19  and  N_20
REMARK    7  A    between atoms: C_21  and  C_23
REMARK                            x       y       z     vdW  Elec       q    Type
REMARK                         _______ _______ _______ _____ _____    ______ ____
ROOT
ATOM      1  C   UNL     1      36.598  -1.470  17.362  0.00  0.00    +0.000 A 
ATOM      2  C   UNL     1      35.236  -1.568  17.497  0.00  0.00    +0.000 A 
ATOM      3  C   UNL     1      34.467  -0.499  17.110  0.00  0.00    +0.000 A 
ATOM      4  N   UNL     1      35.052   0.598  16.617  0.00  0.00    +0.000 NA
ATOM      5  C   UNL     1      36.397   0.720  16.471  0.00  0.00    +0.000 A 
ATOM      6  N   UNL     1      37.120  -0.344  16.860  0.00  0.00    +0.000 NA
ENDROOT
BRANCH   5   7
ATOM      7  C   UNL     1      37.004   1.922  15.933  0.00  0.00    +0.000 A 
ATOM      8  C   UNL     1      37.528   1.875  14.663  0.00  0.00    +0.000 A 
ATOM      9  C   UNL     1      38.124   2.991  14.082  0.00  0.00    +0.000 A 
ATOM     10  C   UNL     1      38.200   4.170  14.777  0.00  0.00    +0.000 A 
ATOM     11  C   UNL     1      37.679   4.221  16.046  0.00  0.00    +0.000 A 
ATOM     12  C   UNL     1      37.084   3.107  16.622  0.00  0.00    +0.000 A 
BRANCH  11  13
ATOM     13  N   UNL     1      37.775   5.458  16.735  0.00  0.00    +0.000 NA
ATOM     14  C   UNL     1      38.427   5.474  17.994  0.00  0.00    +0.000 C 
ATOM     15  O   UNL     1      38.890   4.402  18.445  0.00  0.00    +0.000 OA
BRANCH  14  16
ATOM     16  C   UNL     1      38.580   6.684  18.779  0.00  0.00    +0.000 A 
ATOM     17  C   UNL     1      39.525   6.793  19.791  0.00  0.00    +0.000 A 
ATOM     18  C   UNL     1      39.644   7.957  20.519  0.00  0.00    +0.000 A 
ATOM     19  C   UNL     1      38.845   9.054  20.285  0.00  0.00    +0.000 A 
ATOM     20  C   UNL     1      38.977  10.315  21.075  0.00  0.00    +0.000 C 
ATOM     21  C   UNL     1      37.905   8.953  19.282  0.00  0.00    +0.000 A 
ATOM     22  C   UNL     1      37.788   7.789  18.556  0.00  0.00    +0.000 A 
ENDBRANCH  14  16
ENDBRANCH  11  13
ENDBRANCH   5   7
BRANCH   1  23
ATOM     23  N   UNL     1      37.443  -2.520  17.735  0.00  0.00    +0.000 N 
ATOM     24  C   UNL     1      37.995  -2.551  19.090  0.00  0.00    +0.000 C 
BRANCH  23  25
ATOM     25  C   UNL     1      37.842  -3.620  16.888  0.00  0.00    +0.000 C 
BRANCH  25  29
ATOM     26  C   UNL     1      39.778  -2.390  13.329  0.00  0.00    +0.000 A 
ATOM     27  C   UNL     1      40.474  -2.432  14.542  0.00  0.00    +0.000 A 
ATOM     28  C   UNL     1      39.801  -2.838  15.669  0.00  0.00    +0.000 A 
ATOM     29  C   UNL     1      38.474  -3.198  15.618  0.00  0.00    +0.000 A 
ATOM     30  C   UNL     1      37.816  -3.148  14.424  0.00  0.00    +0.000 A 
ATOM     31  C   UNL     1      38.456  -2.750  13.289  0.00  0.00    +0.000 A 
BRANCH  26  33
ATOM     32  C   UNL     1      40.248  -2.727  10.997  0.00  0.00    +0.000 C 
ATOM     33  O   UNL     1      40.435  -1.983  12.179  0.00  0.00    +0.000 OA
ENDBRANCH  26  33
ENDBRANCH  25  29
ENDBRANCH  23  25
ENDBRANCH   1  23
TORSDOF 7
ENDMDL
MODEL 2
REMARK VINA RESULT:      -8.2      1.682      2.011
REMARK  Name = 
REMARK  7 active torsions:
REMARK  status: ('A' for Active; 'I' for Inactive)
REMARK    1  A    between atoms: O_2  and  C_3
REMARK    2  A    between atoms: C_6  and  C_7
REMARK    3  A    between atoms: C_7  and  N_8
REMARK    4  A    between atoms: N_8  and  C_10
REMARK    5  A    between atoms: C_14  and  C_15
REMARK    6  A    between atoms: C_19  and  N_20
REMARK    7  A    between atoms: C_21  and  C_23
REMARK                            x       y       z     vdW  Elec       q    Type
REMARK                         _______ _______ _______ _____ _____    ______ ____
ROOT
ATOM      1  C   UNL     1      36.982  -1.886  17.082  0.00  0.00    +0.000 A 
ATOM      2  C   UNL     1      35.727  -2.403  17.288  0.00  0.00    +0.000 A 
ATOM      3  C   UNL     1      34.644  -1.596  17.045  0.00  0.00    +0.000 A 
ATOM      4  N   UNL     1      34.832  -0.341  16.621  0.00  0.00    +0.000 NA
ATOM      5  C   UNL     1      36.062   0.195  16.408  0.00  0.00    +0.000 A 
ATOM      6  N   UNL     1      37.099  -0.623  16.656  0.00  0.00    +0.000 NA
ENDROOT
BRANCH   5   7
ATOM      7  C   UNL     1      36.235   1.559  15.947  0.00  0.00    +0.000 A 
ATOM      8  C   UNL     1      35.284   2.086  15.106  0.00  0.00    +0.000 A 
ATOM      9  C   UNL     1      35.385   3.390  14.625  0.00  0.00    +0.000 A 
ATOM     10  C   UNL     1      36.447   4.177  14.986  0.00  0.00    +0.000 A 
ATOM     11  C   UNL     1      37.398   3.652  15.826  0.00  0.00    +0.000 A 
ATOM     12  C   UNL     1      37.295   2.353  16.305  0.00  0.00    +0.000 A 
BRANCH  11  13
ATOM     13  N   UNL     1      38.484   4.496  16.179  0.00  0.00    +0.000 NA
ATOM     14  C   UNL     1      38.751   4.701  17.556  0.00  0.00    +0.000 C 
ATOM     15  O   UNL     1      38.023   4.133  18.401  0.00  0.00    +0.000 OA
BRANCH  14  16
ATOM     16  C   UNL     1      39.835   5.544  18.025  0.00  0.00    +0.000 A 
ATOM     17  C   UNL     1      39.957   5.917  19.357  0.00  0.00    +0.000 A 
ATOM     18  C   UNL     1      40.999   6.719  19.770  0.00  0.00    +0.000 A 
ATOM     19  C   UNL     1      41.957   7.183  18.897  0.00  0.00    +0.000 A 
ATOM     20  C   UNL     1      43.086   8.052  19.347  0.00  0.00    +0.000 C 
ATOM     21  C   UNL     1      41.842   6.817  17.573  0.00  0.00    +0.000 A 
ATOM     22  C   UNL     1      40.800   6.016  17.164  0.00  0.00    +0.000 A 
ENDBRANCH  14  16
ENDBRANCH  11  13
ENDBRANCH   5   7
BRANCH   1  23
ATOM     23  N   UNL     1      38.130  -2.652  17.308  0.00  0.00    +0.000 N 
ATOM     24  C   UNL     1      38.684  -2.734  18.661  0.00  0.00    +0.000 C 
BRANCH  23  25
ATOM     25  C   UNL     1      38.852  -3.399  16.306  0.00  0.00    +0.000 C 
BRANCH  25  29
ATOM     26  C   UNL     1      40.003  -1.050  12.977  0.00  0.00    +0.000 A 
ATOM     27  C   UNL     1      40.657  -0.915  14.205  0.00  0.00    +0.000 A 
ATOM     28  C   UNL     1      40.247  -1.700  15.255  0.00  0.00    +0.000 A 
ATOM     29  C   UNL     1      39.218  -2.602  15.113  0.00  0.00    +0.000 A 
ATOM     30  C   UNL     1      38.594  -2.716  13.905  0.00  0.00    +0.000 A 
ATOM     31  C   UNL     1      38.979  -1.951  12.845  0.00  0.00    +0.000 A 
BRANCH  26  33
ATOM     32  C   UNL     1      39.578  -0.229  10.759  0.00  0.00    +0.000 C 
ATOM     33  O   UNL     1      40.399  -0.269  11.902  0.00  0.00    +0.000 OA
ENDBRANCH  26  33
ENDBRANCH  25  29
ENDBRANCH  23  25
ENDBRANCH   1  23
TORSDOF 7
ENDMDL
MODEL 3
REMARK VINA RESULT:      -8.2      2.749      3.525
REMARK  Name = 
REMARK  7 active torsions:
REMARK  status: ('A' for Active; 'I' for Inactive)
REMARK    1  A    between atoms: O_2  and  C_3
REMARK    2  A    between atoms: C_6  and  C_7
REMARK    3  A    between atoms: C_7  and  N_8
REMARK    4  A    between atoms: N_8  and  C_10
REMARK    5  A    between atoms: C_14  and  C_15
REMARK    6  A    between atoms: C_19  and  N_20
REMARK    7  A    between atoms: C_21  and  C_23
REMARK                            x       y       z     vdW  Elec       q    Type
REMARK                         _______ _______ _______ _____ _____    ______ ____
ROOT
ATOM      1  C   UNL     1      36.580  -0.662  16.962  0.00  0.00    +0.000 A 
ATOM      2  C   UNL     1      35.263  -0.813  17.318  0.00  0.00    +0.000 A 
ATOM      3  C   UNL     1      34.442   0.285  17.251  0.00  0.00    +0.000 A 
ATOM      4  N   UNL     1      34.936   1.460  16.846  0.00  0.00    +0.000 NA
ATOM      5  C   UNL     1      36.234   1.637  16.488  0.00  0.00    +0.000 A 
ATOM      6  N   UNL     1      37.009   0.543  16.566  0.00  0.00    +0.000 NA
ENDROOT
BRANCH   5   7
ATOM      7  C   UNL     1      36.741   2.924  16.053  0.00  0.00    +0.000 A 
ATOM      8  C   UNL     1      36.025   3.619  15.106  0.00  0.00    +0.000 A 
ATOM      9  C   UNL     1      36.452   4.862  14.642  0.00  0.00    +0.000 A 
ATOM     10  C   UNL     1      37.606   5.418  15.129  0.00  0.00    +0.000 A 
ATOM     11  C   UNL     1      38.323   4.726  16.074  0.00  0.00    +0.000 A 
ATOM     12  C   UNL     1      37.895   3.489  16.535  0.00  0.00    +0.000 A 
BRANCH  11  13
ATOM     13  N   UNL     1      39.513   5.334  16.555  0.00  0.00    +0.000 NA
ATOM     14  C   UNL     1      39.656   5.508  17.954  0.00  0.00    +0.000 C 
ATOM     15  O   UNL     1      38.733   5.121  18.707  0.00  0.00    +0.000 OA
BRANCH  14  16
ATOM     16  C   UNL     1      40.830   6.116  18.550  0.00  0.00    +0.000 A 
ATOM     17  C   UNL     1      40.920   6.371  19.913  0.00  0.00    +0.000 A 
ATOM     18  C   UNL     1      42.050   6.951  20.446  0.00  0.00    +0.000 A 
ATOM     19  C   UNL     1      43.131   7.301  19.670  0.00  0.00    +0.000 A 
ATOM     20  C   UNL     1      44.356   7.929  20.251  0.00  0.00    +0.000 C 
ATOM     21  C   UNL     1      43.050   7.052  18.316  0.00  0.00    +0.000 A 
ATOM     22  C   UNL     1      41.919   6.473  17.786  0.00  0.00    +0.000 A 
ENDBRANCH  14  16
ENDBRANCH  11  13
ENDBRANCH   5   7
BRANCH   1  23
ATOM     23  N   UNL     1      37.473  -1.737  17.006  0.00  0.00    +0.000 N 
ATOM     24  C   UNL     1      38.194  -2.022  18.248  0.00  0.00    +0.000 C 
BRANCH  23  25
ATOM     25  C   UNL     1      37.768  -2.630  15.910  0.00  0.00    +0.000 C 
BRANCH  25  29
ATOM     26  C   UNL     1      34.827  -5.615  15.303  0.00  0.00    +0.000 A 
ATOM     27  C   UNL     1      35.871  -5.817  16.211  0.00  0.00    +0.000 A 
ATOM     28  C   UNL     1      36.801  -4.818  16.372  0.00  0.00    +0.000 A 
ATOM     29  C   UNL     1      36.716  -3.642  15.664  0.00  0.00    +0.000 A 
ATOM     30  C   UNL     1      35.688  -3.467  14.783  0.00  0.00    +0.000 A 
ATOM     31  C   UNL     1      34.751  -4.440  14.602  0.00  0.00    +0.000 A 
BRANCH  26  33
ATOM     32  C   UNL     1      33.944  -7.402  13.963  0.00  0.00    +0.000 C 
ATOM     33  O   UNL     1      33.877  -6.608  15.123  0.00  0.00    +0.000 OA
ENDBRANCH  26  33
ENDBRANCH  25  29
ENDBRANCH  23  25
ENDBRANCH   1  23
TORSDOF 7
ENDMDL
MODEL 4
REMARK VINA RESULT:      -8.1      2.588      4.306
REMARK  Name = 
REMARK  7 active torsions:
REMARK  status: ('A' for Active; 'I' for Inactive)
REMARK    1  A    between atoms: O_2  and  C_3
REMARK    2  A    between atoms: C_6  and  C_7
REMARK    3  A    between atoms: C_7  and  N_8
REMARK    4  A    between atoms: N_8  and  C_10
REMARK    5  A    between atoms: C_14  and  C_15
REMARK    6  A    between atoms: C_19  and  N_20
REMARK    7  A    between atoms: C_21  and  C_23
REMARK                            x       y       z     vdW  Elec       q    Type
REMARK                         _______ _______ _______ _____ _____    ______ ____
ROOT
ATOM      1  C   UNL     1      38.959  -0.228  11.852  0.00  0.00    +0.000 A 
ATOM      2  C   UNL     1      38.603   0.258  10.618  0.00  0.00    +0.000 A 
ATOM      3  C   UNL     1      37.766   1.344  10.564  0.00  0.00    +0.000 A 
ATOM      4  N   UNL     1      37.320   1.897  11.698  0.00  0.00    +0.000 NA
ATOM      5  C   UNL     1      37.656   1.437  12.931  0.00  0.00    +0.000 A 
ATOM      6  N   UNL     1      38.477   0.373  12.947  0.00  0.00    +0.000 NA
ENDROOT
BRANCH   5   7
ATOM      7  C   UNL     1      37.157   2.057  14.143  0.00  0.00    +0.000 A 
ATOM      8  C   UNL     1      35.799   2.064  14.359  0.00  0.00    +0.000 A 
ATOM      9  C   UNL     1      35.250   2.642  15.501  0.00  0.00    +0.000 A 
ATOM     10  C   UNL     1      36.064   3.220  16.440  0.00  0.00    +0.000 A 
ATOM     11  C   UNL     1      37.420   3.216  16.226  0.00  0.00    +0.000 A 
ATOM     12  C   UNL     1      37.966   2.639  15.087  0.00  0.00    +0.000 A 
BRANCH  11  13
ATOM     13  N   UNL     1      38.233   3.824  17.219  0.00  0.00    +0.000 NA
ATOM     14  C   UNL     1      38.933   5.007  16.878  0.00  0.00    +0.000 C 
ATOM     15  O   UNL     1      38.809   5.468  15.721  0.00  0.00    +0.000 OA
BRANCH  14  16
ATOM     16  C   UNL     1      39.789   5.707  17.818  0.00  0.00    +0.000 A 
ATOM     17  C   UNL     1      41.052   6.167  17.466  0.00  0.00    +0.000 A 
ATOM     18  C   UNL     1      41.840   6.828  18.383  0.00  0.00    +0.000 A 
ATOM     19  C   UNL     1      41.423   7.064  19.674  0.00  0.00    +0.000 A 
ATOM     20  C   UNL     1      42.278   7.781  20.666  0.00  0.00    +0.000 C 
ATOM     21  C   UNL     1      40.170   6.610  20.030  0.00  0.00    +0.000 A 
ATOM     22  C   UNL     1      39.385   5.950  19.112  0.00  0.00    +0.000 A 
ENDBRANCH  14  16
ENDBRANCH  11  13
ENDBRANCH   5   7
BRANCH   1  23
ATOM     23  N   UNL     1      39.809  -1.330  11.982  0.00  0.00    +0.000 N 
ATOM     24  C   UNL     1      41.245  -1.161  11.753  0.00  0.00    +0.000 C 
BRANCH  23  25
ATOM     25  C   UNL     1      39.400  -2.669  12.336  0.00  0.00    +0.000 C 
BRANCH  25  29
ATOM     26  C   UNL     1      38.056  -3.123  16.326  0.00  0.00    +0.000 A 
ATOM     27  C   UNL     1      37.211  -3.415  15.251  0.00  0.00    +0.000 A 
ATOM     28  C   UNL     1      37.694  -3.252  13.975  0.00  0.00    +0.000 A 
ATOM     29  C   UNL     1      38.978  -2.813  13.748  0.00  0.00    +0.000 A 
ATOM     30  C   UNL     1      39.784  -2.533  14.812  0.00  0.00    +0.000 A 
ATOM     31  C   UNL     1      39.334  -2.685  16.089  0.00  0.00    +0.000 A 
BRANCH  26  33
ATOM     32  C   UNL     1      38.531  -3.404  18.664  0.00  0.00    +0.000 C 
ATOM     33  O   UNL     1      37.592  -3.279  17.622  0.00  0.00    +0.000 OA
ENDBRANCH  26  33
ENDBRANCH  25  29
ENDBRANCH  23  25
ENDBRANCH   1  23
TORSDOF 7
ENDMDL
MODEL 5
REMARK VINA RESULT:      -8.1      2.864      3.995
REMARK  Name = 
REMARK  7 active torsions:
REMARK  status: ('A' for Active; 'I' for Inactive)
REMARK    1  A    between atoms: O_2  and  C_3
REMARK    2  A    between atoms: C_6  and  C_7
REMARK    3  A    between atoms: C_7  and  N_8
REMARK    4  A    between atoms: N_8  and  C_10
REMARK    5  A    between atoms: C_14  and  C_15
REMARK    6  A    between atoms: C_19  and  N_20
REMARK    7  A    between atoms: C_21  and  C_23
REMARK                            x       y       z     vdW  Elec       q    Type
REMARK                         _______ _______ _______ _____ _____    ______ ____
ROOT
ATOM      1  C   UNL     1      37.913  -1.406  14.638  0.00  0.00    +0.000 A 
ATOM      2  C   UNL     1      38.181  -1.766  13.340  0.00  0.00    +0.000 A 
ATOM      3  C   UNL     1      38.205  -0.781  12.385  0.00  0.00    +0.000 A 
ATOM      4  N   UNL     1      37.970   0.489  12.734  0.00  0.00    +0.000 NA
ATOM      5  C   UNL     1      37.703   0.873  14.009  0.00  0.00    +0.000 A 
ATOM      6  N   UNL     1      37.687  -0.116  14.918  0.00  0.00    +0.000 NA
ENDROOT
BRANCH   5   7
ATOM      7  C   UNL     1      37.453   2.258  14.356  0.00  0.00    +0.000 A 
ATOM      8  C   UNL     1      36.250   2.814  13.988  0.00  0.00    +0.000 A 
ATOM      9  C   UNL     1      35.941   4.138  14.289  0.00  0.00    +0.000 A 
ATOM     10  C   UNL     1      36.842   4.918  14.966  0.00  0.00    +0.000 A 
ATOM     11  C   UNL     1      38.044   4.366  15.334  0.00  0.00    +0.000 A 
ATOM     12  C   UNL     1      38.350   3.046  15.034  0.00  0.00    +0.000 A 
BRANCH  11  13
ATOM     13  N   UNL     1      38.953   5.203  16.034  0.00  0.00    +0.000 NA
ATOM     14  C   UNL     1      39.072   5.036  17.436  0.00  0.00    +0.000 C 
ATOM     15  O   UNL     1      38.376   4.161  17.999  0.00  0.00    +0.000 OA
BRANCH  14  16
ATOM     16  C   UNL     1      39.970   5.838  18.245  0.00  0.00    +0.000 A 
ATOM     17  C   UNL     1      39.619   6.290  19.511  0.00  0.00    +0.000 A 
ATOM     18  C   UNL     1      40.496   7.051  20.254  0.00  0.00    +0.000 A 
ATOM     19  C   UNL     1      41.744   7.397  19.787  0.00  0.00    +0.000 A 
ATOM     20  C   UNL     1      42.693   8.221  20.595  0.00  0.00    +0.000 C 
ATOM     21  C   UNL     1      42.099   6.952  18.531  0.00  0.00    +0.000 A 
ATOM     22  C   UNL     1      41.222   6.192  17.792  0.00  0.00    +0.000 A 
ENDBRANCH  14  16
ENDBRANCH  11  13
ENDBRANCH   5   7
BRANCH   1  23
ATOM     23  N   UNL     1      37.873  -2.356  15.663  0.00  0.00    +0.000 N 
ATOM     24  C   UNL     1      39.067  -3.152  15.952  0.00  0.00    +0.000 C 
BRANCH  23  25
ATOM     25  C   UNL     1      36.731  -2.643  16.499  0.00  0.00    +0.000 C 
BRANCH  25  29
ATOM     26  C   UNL     1      34.318  -5.817  15.073  0.00  0.00    +0.000 A 
ATOM     27  C   UNL     1      34.063  -4.498  14.686  0.00  0.00    +0.000 A 
ATOM     28  C   UNL     1      34.874  -3.503  15.175  0.00  0.00    +0.000 A 
ATOM     29  C   UNL     1      35.917  -3.787  16.027  0.00  0.00    +0.000 A 
ATOM     30  C   UNL     1      36.147  -5.082  16.391  0.00  0.00    +0.000 A 
ATOM     31  C   UNL     1      35.359  -6.090  15.922  0.00  0.00    +0.000 A 
BRANCH  26  33
ATOM     32  C   UNL     1      33.995  -7.636  13.537  0.00  0.00    +0.000 C 
ATOM     33  O   UNL     1      33.513  -6.838  14.592  0.00  0.00    +0.000 OA
ENDBRANCH  26  33
ENDBRANCH  25  29
ENDBRANCH  23  25
ENDBRANCH   1  23
TORSDOF 7
ENDMDL
MODEL 6
REMARK VINA RESULT:      -8.1      3.451      5.866
REMARK  Name = 
REMARK  7 active torsions:
REMARK  status: ('A' for Active; 'I' for Inactive)
REMARK    1  A    between atoms: O_2  and  C_3
REMARK    2  A    between atoms: C_6  and  C_7
REMARK    3  A    between atoms: C_7  and  N_8
REMARK    4  A    between atoms: N_8  and  C_10
REMARK    5  A    between atoms: C_14  and  C_15
REMARK    6  A    between atoms: C_19  and  N_20
REMARK    7  A    between atoms: C_21  and  C_23
REMARK                            x       y       z     vdW  Elec       q    Type
REMARK                         _______ _______ _______ _____ _____    ______ ____
ROOT
ATOM      1  C   UNL     1      37.022   3.091  15.915  0.00  0.00    +0.000 A 
ATOM      2  C   UNL     1      37.871   2.905  14.852  0.00  0.00    +0.000 A 
ATOM      3  C   UNL     1      39.019   3.656  14.799  0.00  0.00    +0.000 A 
ATOM      4  N   UNL     1      39.281   4.539  15.768  0.00  0.00    +0.000 NA
ATOM      5  C   UNL     1      38.459   4.742  16.831  0.00  0.00    +0.000 A 
ATOM      6  N   UNL     1      37.345   3.991  16.851  0.00  0.00    +0.000 NA
ENDROOT
BRANCH   5   7
ATOM      7  C   UNL     1      38.770   5.707  17.867  0.00  0.00    +0.000 A 
ATOM      8  C   UNL     1      38.056   6.883  17.898  0.00  0.00    +0.000 A 
ATOM      9  C   UNL     1      38.301   7.854  18.865  0.00  0.00    +0.000 A 
ATOM     10  C   UNL     1      39.269   7.653  19.814  0.00  0.00    +0.000 A 
ATOM     11  C   UNL     1      39.984   6.480  19.785  0.00  0.00    +0.000 A 
ATOM     12  C   UNL     1      39.738   5.513  18.820  0.00  0.00    +0.000 A 
BRANCH  11  13
ATOM     13  N   UNL     1      40.979   6.306  20.783  0.00  0.00    +0.000 NA
ATOM     14  C   UNL     1      42.321   6.621  20.453  0.00  0.00    +0.000 C 
ATOM     15  O   UNL     1      42.574   7.038  19.300  0.00  0.00    +0.000 OA
BRANCH  14  16
ATOM     16  C   UNL     1      43.412   6.479  21.398  0.00  0.00    +0.000 A 
ATOM     17  C   UNL     1      43.918   7.560  22.109  0.00  0.00    +0.000 A 
ATOM     18  C   UNL     1      44.957   7.391  22.999  0.00  0.00    +0.000 A 
ATOM     19  C   UNL     1      45.536   6.163  23.226  0.00  0.00    +0.000 A 
ATOM     20  C   UNL     1      46.661   5.982  24.192  0.00  0.00    +0.000 C 
ATOM     21  C   UNL     1      45.039   5.085  22.524  0.00  0.00    +0.000 A 
ATOM     22  C   UNL     1      44.002   5.257  21.635  0.00  0.00    +0.000 A 
ENDBRANCH  14  16
ENDBRANCH  11  13
ENDBRANCH   5   7
BRANCH   1  23
ATOM     23  N   UNL     1      35.835   2.361  16.034  0.00  0.00    +0.000 N 
ATOM     24  C   UNL     1      34.818   2.466  14.987  0.00  0.00    +0.000 C 
BRANCH  23  25
ATOM     25  C   UNL     1      35.499   1.478  17.126  0.00  0.00    +0.000 C 
BRANCH  25  29
ATOM     26  C   UNL     1      35.328  -2.576  15.912  0.00  0.00    +0.000 A 
ATOM     27  C   UNL     1      36.298  -1.715  15.390  0.00  0.00    +0.000 A 
ATOM     28  C   UNL     1      36.312  -0.408  15.815  0.00  0.00    +0.000 A 
ATOM     29  C   UNL     1      35.399   0.053  16.734  0.00  0.00    +0.000 A 
ATOM     30  C   UNL     1      34.460  -0.805  17.230  0.00  0.00    +0.000 A 
ATOM     31  C   UNL     1      34.422  -2.106  16.827  0.00  0.00    +0.000 A 
BRANCH  26  33
ATOM     32  C   UNL     1      36.338  -4.756  15.895  0.00  0.00    +0.000 C 
ATOM     33  O   UNL     1      35.294  -3.898  15.499  0.00  0.00    +0.000 OA
ENDBRANCH  26  33
ENDBRANCH  25  29
ENDBRANCH  23  25
ENDBRANCH   1  23
TORSDOF 7
ENDMDL
MODEL 7
REMARK VINA RESULT:      -8.0      2.181      9.692
REMARK  Name = 
REMARK  7 active torsions:
REMARK  status: ('A' for Active; 'I' for Inactive)
REMARK    1  A    between atoms: O_2  and  C_3
REMARK    2  A    between atoms: C_6  and  C_7
REMARK    3  A    between atoms: C_7  and  N_8
REMARK    4  A    between atoms: N_8  and  C_10
REMARK    5  A    between atoms: C_14  and  C_15
REMARK    6  A    between atoms: C_19  and  N_20
REMARK    7  A    between atoms: C_21  and  C_23
REMARK                            x       y       z     vdW  Elec       q    Type
REMARK                         _______ _______ _______ _____ _____    ______ ____
ROOT
ATOM      1  C   UNL     1      36.566   2.329  15.856  0.00  0.00    +0.000 A 
ATOM      2  C   UNL     1      35.304   2.255  16.390  0.00  0.00    +0.000 A 
ATOM      3  C   UNL     1      34.886   1.053  16.906  0.00  0.00    +0.000 A 
ATOM      4  N   UNL     1      35.706  -0.003  16.878  0.00  0.00    +0.000 NA
ATOM      5  C   UNL     1      36.960   0.042  16.357  0.00  0.00    +0.000 A 
ATOM      6  N   UNL     1      37.336   1.233  15.860  0.00  0.00    +0.000 NA
ENDROOT
BRANCH   5   7
ATOM      7  C   UNL     1      37.826  -1.120  16.341  0.00  0.00    +0.000 A 
ATOM      8  C   UNL     1      37.577  -2.130  17.241  0.00  0.00    +0.000 A 
ATOM      9  C   UNL     1      38.368  -3.276  17.281  0.00  0.00    +0.000 A 
ATOM     10  C   UNL     1      39.420  -3.417  16.414  0.00  0.00    +0.000 A 
ATOM     11  C   UNL     1      39.671  -2.410  15.516  0.00  0.00    +0.000 A 
ATOM     12  C   UNL     1      38.882  -1.269  15.477  0.00  0.00    +0.000 A 
BRANCH  11  13
ATOM     13  N   UNL     1      40.769  -2.591  14.633  0.00  0.00    +0.000 NA
ATOM     14  C   UNL     1      40.494  -2.899  13.278  0.00  0.00    +0.000 C 
ATOM     15  O   UNL     1      39.300  -2.999  12.914  0.00  0.00    +0.000 OA
BRANCH  14  16
ATOM     16  C   UNL     1      41.540  -3.103  12.294  0.00  0.00    +0.000 A 
ATOM     17  C   UNL     1      42.881  -3.180  12.648  0.00  0.00    +0.000 A 
ATOM     18  C   UNL     1      43.851  -3.373  11.688  0.00  0.00    +0.000 A 
ATOM     19  C   UNL     1      43.546  -3.499  10.352  0.00  0.00    +0.000 A 
ATOM     20  C   UNL     1      44.600  -3.710   9.313  0.00  0.00    +0.000 C 
ATOM     21  C   UNL     1      42.217  -3.424   9.993  0.00  0.00    +0.000 A 
ATOM     22  C   UNL     1      41.250  -3.230  10.954  0.00  0.00    +0.000 A 
ENDBRANCH  14  16
ENDBRANCH  11  13
ENDBRANCH   5   7
BRANCH   1  23
ATOM     23  N   UNL     1      37.058   3.520  15.313  0.00  0.00    +0.000 N 
ATOM     24  C   UNL     1      36.117   4.526  14.818  0.00  0.00    +0.000 C 
BRANCH  23  25
ATOM     25  C   UNL     1      38.452   3.874  15.188  0.00  0.00    +0.000 C 
BRANCH  25  29
ATOM     26  C   UNL     1      40.034   6.219  18.338  0.00  0.00    +0.000 A 
ATOM     27  C   UNL     1      40.523   6.352  17.035  0.00  0.00    +0.000 A 
ATOM     28  C   UNL     1      39.977   5.568  16.048  0.00  0.00    +0.000 A 
ATOM     29  C   UNL     1      38.972   4.671  16.322  0.00  0.00    +0.000 A 
ATOM     30  C   UNL     1      38.510   4.558  17.602  0.00  0.00    +0.000 A 
ATOM     31  C   UNL     1      39.032   5.322  18.602  0.00  0.00    +0.000 A 
BRANCH  26  33
ATOM     32  C   UNL     1      41.453   6.398  20.269  0.00  0.00    +0.000 C 
ATOM     33  O   UNL     1      40.569   6.999  19.352  0.00  0.00    +0.000 OA
ENDBRANCH  26  33
ENDBRANCH  25  29
ENDBRANCH  23  25
ENDBRANCH   1  23
TORSDOF 7
ENDMDL
MODEL 8
REMARK VINA RESULT:      -8.0      8.218     12.125
REMARK  Name = 
REMARK  7 active torsions:
REMARK  status: ('A' for Active; 'I' for Inactive)
REMARK    1  A    between atoms: O_2  and  C_3
REMARK    2  A    between atoms: C_6  and  C_7
REMARK    3  A    between atoms: C_7  and  N_8
REMARK    4  A    between atoms: N_8  and  C_10
REMARK    5  A    between atoms: C_14  and  C_15
REMARK    6  A    between atoms: C_19  and  N_20
REMARK    7  A    between atoms: C_21  and  C_23
REMARK                            x       y       z     vdW  Elec       q    Type
REMARK                         _______ _______ _______ _____ _____    ______ ____
ROOT
ATOM      1  C   UNL     1      43.541   6.583  19.818  0.00  0.00    +0.000 A 
ATOM      2  C   UNL     1      44.621   6.882  19.025  0.00  0.00    +0.000 A 
ATOM      3  C   UNL     1      45.859   6.951  19.613  0.00  0.00    +0.000 A 
ATOM      4  N   UNL     1      45.986   6.729  20.926  0.00  0.00    +0.000 NA
ATOM      5  C   UNL     1      44.935   6.430  21.733  0.00  0.00    +0.000 A 
ATOM      6  N   UNL     1      43.738   6.371  21.126  0.00  0.00    +0.000 NA
ENDROOT
BRANCH   5   7
ATOM      7  C   UNL     1      45.103   6.194  23.154  0.00  0.00    +0.000 A 
ATOM      8  C   UNL     1      46.310   5.702  23.593  0.00  0.00    +0.000 A 
ATOM      9  C   UNL     1      46.542   5.452  24.944  0.00  0.00    +0.000 A 
ATOM     10  C   UNL     1      45.559   5.696  25.868  0.00  0.00    +0.000 A 
ATOM     11  C   UNL     1      44.353   6.186  25.431  0.00  0.00    +0.000 A 
ATOM     12  C   UNL     1      44.124   6.435  24.085  0.00  0.00    +0.000 A 
BRANCH  11  13
ATOM     13  N   UNL     1      43.359   6.426  26.416  0.00  0.00    +0.000 NA
ATOM     14  C   UNL     1      42.757   5.307  27.045  0.00  0.00    +0.000 C 
ATOM     15  O   UNL     1      43.123   4.159  26.709  0.00  0.00    +0.000 OA
BRANCH  14  16
ATOM     16  C   UNL     1      41.732   5.441  28.064  0.00  0.00    +0.000 A 
ATOM     17  C   UNL     1      41.455   4.426  28.970  0.00  0.00    +0.000 A 
ATOM     18  C   UNL     1      40.475   4.585  29.925  0.00  0.00    +0.000 A 
ATOM     19  C   UNL     1      39.732   5.740  30.029  0.00  0.00    +0.000 A 
ATOM     20  C   UNL     1      38.671   5.911  31.066  0.00  0.00    +0.000 C 
ATOM     21  C   UNL     1      40.002   6.752  29.133  0.00  0.00    +0.000 A 
ATOM     22  C   UNL     1      40.982   6.590  28.180  0.00  0.00    +0.000 A 
ENDBRANCH  14  16
ENDBRANCH  11  13
ENDBRANCH   5   7
BRANCH   1  23
ATOM     23  N   UNL     1      42.251   6.495  19.288  0.00  0.00    +0.000 N 
ATOM     24  C   UNL     1      42.070   6.484  17.835  0.00  0.00    +0.000 C 
BRANCH  23  25
ATOM     25  C   UNL     1      41.031   6.409  20.055  0.00  0.00    +0.000 C 
BRANCH  25  29
ATOM     26  C   UNL     1      38.972  10.065  20.632  0.00  0.00    +0.000 A 
ATOM     27  C   UNL     1      38.277   8.852  20.596  0.00  0.00    +0.000 A 
ATOM     28  C   UNL     1      38.990   7.693  20.407  0.00  0.00    +0.000 A 
ATOM     29  C   UNL     1      40.357   7.713  20.255  0.00  0.00    +0.000 A 
ATOM     30  C   UNL     1      41.015   8.908  20.293  0.00  0.00    +0.000 A 
ATOM     31  C   UNL     1      40.334  10.074  20.479  0.00  0.00    +0.000 A 
BRANCH  26  33
ATOM     32  C   UNL     1      38.799  12.204  21.713  0.00  0.00    +0.000 C 
ATOM     33  O   UNL     1      38.275  11.247  20.822  0.00  0.00    +0.000 OA
ENDBRANCH  26  33
ENDBRANCH  25  29
ENDBRANCH  23  25
ENDBRANCH   1  23
TORSDOF 7
ENDMDL
MODEL 9
REMARK VINA RESULT:      -7.9      2.298      4.149
REMARK  Name = 
REMARK  7 active torsions:
REMARK  status: ('A' for Active; 'I' for Inactive)
REMARK    1  A    between atoms: O_2  and  C_3
REMARK    2  A    between atoms: C_6  and  C_7
REMARK    3  A    between atoms: C_7  and  N_8
REMARK    4  A    between atoms: N_8  and  C_10
REMARK    5  A    between atoms: C_14  and  C_15
REMARK    6  A    between atoms: C_19  and  N_20
REMARK    7  A    between atoms: C_21  and  C_23
REMARK                            x       y       z     vdW  Elec       q    Type
REMARK                         _______ _______ _______ _____ _____    ______ ____
ROOT
ATOM      1  C   UNL     1      39.716  -0.384  12.340  0.00  0.00    +0.000 A 
ATOM      2  C   UNL     1      39.798   0.255  11.128  0.00  0.00    +0.000 A 
ATOM      3  C   UNL     1      39.210   1.489  11.003  0.00  0.00    +0.000 A 
ATOM      4  N   UNL     1      38.579   2.034  12.049  0.00  0.00    +0.000 NA
ATOM      5  C   UNL     1      38.484   1.425  13.260  0.00  0.00    +0.000 A 
ATOM      6  N   UNL     1      39.070   0.218  13.347  0.00  0.00    +0.000 NA
ENDROOT
BRANCH   5   7
ATOM      7  C   UNL     1      37.793   2.041  14.375  0.00  0.00    +0.000 A 
ATOM      8  C   UNL     1      36.706   1.388  14.908  0.00  0.00    +0.000 A 
ATOM      9  C   UNL     1      35.996   1.921  15.982  0.00  0.00    +0.000 A 
ATOM     10  C   UNL     1      36.373   3.119  16.531  0.00  0.00    +0.000 A 
ATOM     11  C   UNL     1      37.458   3.773  16.000  0.00  0.00    +0.000 A 
ATOM     12  C   UNL     1      38.165   3.240  14.931  0.00  0.00    +0.000 A 
BRANCH  11  13
ATOM     13  N   UNL     1      37.820   5.010  16.594  0.00  0.00    +0.000 NA
ATOM     14  C   UNL     1      38.379   4.989  17.896  0.00  0.00    +0.000 C 
ATOM     15  O   UNL     1      38.530   3.886  18.468  0.00  0.00    +0.000 OA
BRANCH  14  16
ATOM     16  C   UNL     1      38.783   6.196  18.593  0.00  0.00    +0.000 A 
ATOM     17  C   UNL     1      38.144   7.413  18.395  0.00  0.00    +0.000 A 
ATOM     18  C   UNL     1      38.554   8.540  19.072  0.00  0.00    +0.000 A 
ATOM     19  C   UNL     1      39.600   8.519  19.967  0.00  0.00    +0.000 A 
ATOM     20  C   UNL     1      40.042   9.743  20.701  0.00  0.00    +0.000 C 
ATOM     21  C   UNL     1      40.240   7.315  20.169  0.00  0.00    +0.000 A 
ATOM     22  C   UNL     1      39.828   6.190  19.490  0.00  0.00    +0.000 A 
ENDBRANCH  14  16
ENDBRANCH  11  13
ENDBRANCH   5   7
BRANCH   1  23
ATOM     23  N   UNL     1      40.291  -1.642  12.540  0.00  0.00    +0.000 N 
ATOM     24  C   UNL     1      41.744  -1.793  12.434  0.00  0.00    +0.000 C 
BRANCH  23  25
ATOM     25  C   UNL     1      39.573  -2.855  12.853  0.00  0.00    +0.000 C 
BRANCH  25  29
ATOM     26  C   UNL     1      37.347  -2.709  16.452  0.00  0.00    +0.000 A 
ATOM     27  C   UNL     1      36.701  -2.829  15.218  0.00  0.00    +0.000 A 
ATOM     28  C   UNL     1      37.467  -2.872  14.079  0.00  0.00    +0.000 A 
ATOM     29  C   UNL     1      38.839  -2.801  14.138  0.00  0.00    +0.000 A 
ATOM     30  C   UNL     1      39.449  -2.683  15.354  0.00  0.00    +0.000 A 
ATOM     31  C   UNL     1      38.715  -2.638  16.501  0.00  0.00    +0.000 A 
BRANCH  26  33
ATOM     32  C   UNL     1      36.018  -1.437  17.998  0.00  0.00    +0.000 C 
ATOM     33  O   UNL     1      36.595  -2.663  17.616  0.00  0.00    +0.000 OA
ENDBRANCH  26  33
ENDBRANCH  25  29
ENDBRANCH  23  25
ENDBRANCH   1  23
TORSDOF 7
ENDMDL
MODEL 10
REMARK VINA RESULT:      -7.8      3.686      6.752
REMARK  Name = 
REMARK  7 active torsions:
REMARK  status: ('A' for Active; 'I' for Inactive)
REMARK    1  A    between atoms: O_2  and  C_3
REMARK    2  A    between atoms: C_6  and  C_7
REMARK    3  A    between atoms: C_7  and  N_8
REMARK    4  A    between atoms: N_8  and  C_10
REMARK    5  A    between atoms: C_14  and  C_15
REMARK    6  A    between atoms: C_19  and  N_20
REMARK    7  A    between atoms: C_21  and  C_23
REMARK                            x       y       z     vdW  Elec       q    Type
REMARK                         _______ _______ _______ _____ _____    ______ ____
ROOT
ATOM      1  C   UNL     1      37.283   4.821  14.628  0.00  0.00    +0.000 A 
ATOM      2  C   UNL     1      38.317   4.276  13.908  0.00  0.00    +0.000 A 
ATOM      3  C   UNL     1      39.582   4.344  14.436  0.00  0.00    +0.000 A 
ATOM      4  N   UNL     1      39.777   4.931  15.622  0.00  0.00    +0.000 NA
ATOM      5  C   UNL     1      38.772   5.477  16.356  0.00  0.00    +0.000 A 
ATOM      6  N   UNL     1      37.547   5.393  15.809  0.00  0.00    +0.000 NA
ENDROOT
BRANCH   5   7
ATOM      7  C   UNL     1      39.015   6.107  17.638  0.00  0.00    +0.000 A 
ATOM      8  C   UNL     1      38.146   7.088  18.056  0.00  0.00    +0.000 A 
ATOM      9  C   UNL     1      38.317   7.735  19.278  0.00  0.00    +0.000 A 
ATOM     10  C   UNL     1      39.367   7.401  20.093  0.00  0.00    +0.000 A 
ATOM     11  C   UNL     1      40.236   6.422  19.678  0.00  0.00    +0.000 A 
ATOM     12  C   UNL     1      40.063   5.778  18.461  0.00  0.00    +0.000 A 
BRANCH  11  13
ATOM     13  N   UNL     1      41.312   6.102  20.548  0.00  0.00    +0.000 NA
ATOM     14  C   UNL     1      42.580   6.675  20.283  0.00  0.00    +0.000 C 
ATOM     15  O   UNL     1      42.702   7.437  19.297  0.00  0.00    +0.000 OA
BRANCH  14  16
ATOM     16  C   UNL     1      43.744   6.414  21.109  0.00  0.00    +0.000 A 
ATOM     17  C   UNL     1      43.680   6.413  22.496  0.00  0.00    +0.000 A 
ATOM     18  C   UNL     1      44.804   6.163  23.252  0.00  0.00    +0.000 A 
ATOM     19  C   UNL     1      46.029   5.903  22.680  0.00  0.00    +0.000 A 
ATOM     20  C   UNL     1      47.247   5.631  23.501  0.00  0.00    +0.000 C 
ATOM     21  C   UNL     1      46.101   5.903  21.303  0.00  0.00    +0.000 A 
ATOM     22  C   UNL     1      44.976   6.154  20.551  0.00  0.00    +0.000 A 
ENDBRANCH  14  16
ENDBRANCH  11  13
ENDBRANCH   5   7
BRANCH   1  23
ATOM     23  N   UNL     1      35.968   4.787  14.152  0.00  0.00    +0.000 N 
ATOM     24  C   UNL     1      35.628   5.516  12.929  0.00  0.00    +0.000 C 
BRANCH  23  25
ATOM     25  C   UNL     1      34.870   4.079  14.767  0.00  0.00    +0.000 C 
BRANCH  25  29
ATOM     26  C   UNL     1      35.746   0.114  15.968  0.00  0.00    +0.000 A 
ATOM     27  C   UNL     1      35.218   1.035  16.878  0.00  0.00    +0.000 A 
ATOM     28  C   UNL     1      34.951   2.309  16.440  0.00  0.00    +0.000 A 
ATOM     29  C   UNL     1      35.192   2.682  15.138  0.00  0.00    +0.000 A 
ATOM     30  C   UNL     1      35.708   1.767  14.267  0.00  0.00    +0.000 A 
ATOM     31  C   UNL     1      35.984   0.495  14.673  0.00  0.00    +0.000 A 
BRANCH  26  33
ATOM     32  C   UNL     1      34.999  -1.923  16.998  0.00  0.00    +0.000 C 
ATOM     33  O   UNL     1      36.025  -1.177  16.386  0.00  0.00    +0.000 OA
ENDBRANCH  26  33
ENDBRANCH  25  29
ENDBRANCH  23  25
ENDBRANCH   1  23
TORSDOF 7
ENDMDL
