MODEL 1
REMARK VINA RESULT:      -7.0      0.000      0.000
REMARK  Name = 
REMARK  3 active torsions:
REMARK  status: ('A' for Active; 'I' for Inactive)
REMARK    1  A    between atoms: C_10  and  N_11
REMARK    2  A    between atoms: C_12  and  C_14
REMARK    3  A    between atoms: C_17  and  N_18
REMARK                            x       y       z     vdW  Elec       q    Type
REMARK                         _______ _______ _______ _____ _____    ______ ____
ROOT
ATOM      1  N   UNL     1      18.181  11.540  37.237  0.00  0.00    +0.000 NA
ATOM      2  C   UNL     1      16.850  11.375  36.950  0.00  0.00    +0.000 C 
ATOM      3  O   UNL     1      16.087  10.892  37.807  0.00  0.00    +0.000 OA
ENDROOT
BRANCH   1  13
ATOM      4  C   UNL     1      19.836   9.667  36.666  0.00  0.00    +0.000 C 
ATOM      5  C   UNL     1      19.617   9.818  38.082  0.00  0.00    +0.000 C 
ATOM      6  C   UNL     1      18.890   8.723  38.790  0.00  0.00    +0.000 C 
ATOM      7  C   UNL     1      21.050   9.984  38.825  0.00  0.00    +0.000 C 
ATOM      8  C   UNL     1      20.478  10.659  40.195  0.00  0.00    +0.000 C 
ATOM      9  C   UNL     1      20.581  12.103  39.953  0.00  0.00    +0.000 C 
ATOM     10  C   UNL     1      20.219  12.147  38.442  0.00  0.00    +0.000 C 
ATOM     11  C   UNL     1      19.941  13.507  38.035  0.00  0.00    +0.000 C 
ATOM     12  C   UNL     1      21.334  11.363  38.029  0.00  0.00    +0.000 C 
ATOM     13  C   UNL     1      18.924  11.215  38.490  0.00  0.00    +0.000 C 
ENDBRANCH   1  13
BRANCH   2  14
ATOM     14  C   UNL     1      16.178  11.721  35.683  0.00  0.00    +0.000 A 
ATOM     15  C   UNL     1      15.086  12.521  35.608  0.00  0.00    +0.000 A 
ATOM     16  C   UNL     1      14.467  12.836  34.418  0.00  0.00    +0.000 A 
ATOM     17  C   UNL     1      14.975  12.316  33.229  0.00  0.00    +0.000 A 
ATOM     18  C   UNL     1      16.079  11.504  33.270  0.00  0.00    +0.000 A 
ATOM     19  C   UNL     1      16.660  11.220  34.487  0.00  0.00    +0.000 A 
BRANCH  17  20
ATOM     20  N   UNL     1      14.407  12.586  31.977  0.00  0.00    +0.000 N 
ATOM     21  O   UNL     1      13.768  13.635  31.801  0.00  0.00    +0.000 OA
ATOM     22  O   UNL     1      14.540  11.712  30.932  0.00  0.00    +0.000 OA
ENDBRANCH  17  20
ENDBRANCH   2  14
TORSDOF 3
ENDMDL
MODEL 2
REMARK VINA RESULT:      -7.0      1.375      2.355
REMARK  Name = 
REMARK  3 active torsions:
REMARK  status: ('A' for Active; 'I' for Inactive)
REMARK    1  A    between atoms: C_10  and  N_11
REMARK    2  A    between atoms: C_12  and  C_14
REMARK    3  A    between atoms: C_17  and  N_18
REMARK                            x       y       z     vdW  Elec       q    Type
REMARK                         _______ _______ _______ _____ _____    ______ ____
ROOT
ATOM      1  N   UNL     1      18.345  10.242  37.049  0.00  0.00    +0.000 NA
ATOM      2  C   UNL     1      17.730   9.829  35.895  0.00  0.00    +0.000 C 
ATOM      3  O   UNL     1      17.902   8.667  35.483  0.00  0.00    +0.000 OA
ENDROOT
BRANCH   1  13
ATOM      4  C   UNL     1      20.156  11.876  37.843  0.00  0.00    +0.000 C 
ATOM      5  C   UNL     1      20.502  10.494  38.061  0.00  0.00    +0.000 C 
ATOM      6  C   UNL     1      21.618   9.925  37.249  0.00  0.00    +0.000 C 
ATOM      7  C   UNL     1      20.907  10.289  39.619  0.00  0.00    +0.000 C 
ATOM      8  C   UNL     1      20.693   8.673  39.662  0.00  0.00    +0.000 C 
ATOM      9  C   UNL     1      19.314   8.507  40.132  0.00  0.00    +0.000 C 
ATOM     10  C   UNL     1      18.641   9.712  39.417  0.00  0.00    +0.000 C 
ATOM     11  C   UNL     1      17.201   9.583  39.469  0.00  0.00    +0.000 C 
ATOM     12  C   UNL     1      19.416  10.699  40.089  0.00  0.00    +0.000 C 
ATOM     13  C   UNL     1      19.251   9.482  37.959  0.00  0.00    +0.000 C 
ENDBRANCH   1  13
BRANCH   2  14
ATOM     14  C   UNL     1      16.840  10.637  35.039  0.00  0.00    +0.000 A 
ATOM     15  C   UNL     1      15.855  11.433  35.522  0.00  0.00    +0.000 A 
ATOM     16  C   UNL     1      15.032  12.183  34.711  0.00  0.00    +0.000 A 
ATOM     17  C   UNL     1      15.205  12.130  33.329  0.00  0.00    +0.000 A 
ATOM     18  C   UNL     1      16.194  11.334  32.809  0.00  0.00    +0.000 A 
ATOM     19  C   UNL     1      16.990  10.604  33.663  0.00  0.00    +0.000 A 
BRANCH  17  20
ATOM     20  N   UNL     1      14.411  12.859  32.434  0.00  0.00    +0.000 N 
ATOM     21  O   UNL     1      14.307  12.486  31.256  0.00  0.00    +0.000 OA
ATOM     22  O   UNL     1      13.741  13.984  32.832  0.00  0.00    +0.000 OA
ENDBRANCH  17  20
ENDBRANCH   2  14
TORSDOF 3
ENDMDL
MODEL 3
REMARK VINA RESULT:      -6.9      3.218      4.684
REMARK  Name = 
REMARK  3 active torsions:
REMARK  status: ('A' for Active; 'I' for Inactive)
REMARK    1  A    between atoms: C_10  and  N_11
REMARK    2  A    between atoms: C_12  and  C_14
REMARK    3  A    between atoms: C_17  and  N_18
REMARK                            x       y       z     vdW  Elec       q    Type
REMARK                         _______ _______ _______ _____ _____    ______ ____
ROOT
ATOM      1  N   UNL     1      17.446   8.945  39.868  0.00  0.00    +0.000 NA
ATOM      2  C   UNL     1      17.950   9.901  39.025  0.00  0.00    +0.000 C 
ATOM      3  O   UNL     1      18.918  10.596  39.386  0.00  0.00    +0.000 OA
ENDROOT
BRANCH   1  13
ATOM      4  C   UNL     1      15.335   8.402  41.220  0.00  0.00    +0.000 C 
ATOM      5  C   UNL     1      16.493   8.633  42.045  0.00  0.00    +0.000 C 
ATOM      6  C   UNL     1      16.506   9.864  42.889  0.00  0.00    +0.000 C 
ATOM      7  C   UNL     1      16.685   7.374  43.052  0.00  0.00    +0.000 C 
ATOM      8  C   UNL     1      18.256   7.645  43.398  0.00  0.00    +0.000 C 
ATOM      9  C   UNL     1      18.984   6.817  42.430  0.00  0.00    +0.000 C 
ATOM     10  C   UNL     1      18.062   6.982  41.190  0.00  0.00    +0.000 C 
ATOM     11  C   UNL     1      18.736   6.511  40.000  0.00  0.00    +0.000 C 
ATOM     12  C   UNL     1      16.928   6.377  41.802  0.00  0.00    +0.000 C 
ATOM     13  C   UNL     1      17.890   8.569  41.243  0.00  0.00    +0.000 C 
ENDBRANCH   1  13
BRANCH   2  14
ATOM     14  C   UNL     1      17.460  10.221  37.670  0.00  0.00    +0.000 A 
ATOM     15  C   UNL     1      16.436  11.075  37.426  0.00  0.00    +0.000 A 
ATOM     16  C   UNL     1      15.989  11.365  36.156  0.00  0.00    +0.000 A 
ATOM     17  C   UNL     1      16.605  10.760  35.062  0.00  0.00    +0.000 A 
ATOM     18  C   UNL     1      17.644   9.890  35.276  0.00  0.00    +0.000 A 
ATOM     19  C   UNL     1      18.053   9.634  36.566  0.00  0.00    +0.000 A 
BRANCH  17  20
ATOM     20  N   UNL     1      16.212  10.999  33.739  0.00  0.00    +0.000 N 
ATOM     21  O   UNL     1      16.808  10.439  32.806  0.00  0.00    +0.000 OA
ATOM     22  O   UNL     1      15.175  11.843  33.447  0.00  0.00    +0.000 OA
ENDBRANCH  17  20
ENDBRANCH   2  14
TORSDOF 3
ENDMDL
MODEL 4
REMARK VINA RESULT:      -6.2      2.795      3.937
REMARK  Name = 
REMARK  3 active torsions:
REMARK  status: ('A' for Active; 'I' for Inactive)
REMARK    1  A    between atoms: C_10  and  N_11
REMARK    2  A    between atoms: C_12  and  C_14
REMARK    3  A    between atoms: C_17  and  N_18
REMARK                            x       y       z     vdW  Elec       q    Type
REMARK                         _______ _______ _______ _____ _____    ______ ____
ROOT
ATOM      1  N   UNL     1      21.595  10.941  37.690  0.00  0.00    +0.000 NA
ATOM      2  C   UNL     1      20.420  10.251  37.844  0.00  0.00    +0.000 C 
ATOM      3  O   UNL     1      20.330   9.368  38.717  0.00  0.00    +0.000 OA
ENDROOT
BRANCH   1  13
ATOM      4  C   UNL     1      23.434  10.456  35.970  0.00  0.00    +0.000 C 
ATOM      5  C   UNL     1      23.824  10.143  37.321  0.00  0.00    +0.000 C 
ATOM      6  C   UNL     1      24.014   8.704  37.669  0.00  0.00    +0.000 C 
ATOM      7  C   UNL     1      25.225  10.893  37.655  0.00  0.00    +0.000 C 
ATOM      8  C   UNL     1      25.098  10.821  39.279  0.00  0.00    +0.000 C 
ATOM      9  C   UNL     1      24.475  12.098  39.646  0.00  0.00    +0.000 C 
ATOM     10  C   UNL     1      23.500  12.273  38.449  0.00  0.00    +0.000 C 
ATOM     11  C   UNL     1      22.535  13.311  38.739  0.00  0.00    +0.000 C 
ATOM     12  C   UNL     1      24.527  12.339  37.465  0.00  0.00    +0.000 C 
ATOM     13  C   UNL     1      22.876  10.803  38.445  0.00  0.00    +0.000 C 
ENDBRANCH   1  13
BRANCH   2  14
ATOM     14  C   UNL     1      19.185  10.440  37.059  0.00  0.00    +0.000 A 
ATOM     15  C   UNL     1      18.848   9.671  35.995  0.00  0.00    +0.000 A 
ATOM     16  C   UNL     1      17.691   9.859  35.271  0.00  0.00    +0.000 A 
ATOM     17  C   UNL     1      16.817  10.881  35.636  0.00  0.00    +0.000 A 
ATOM     18  C   UNL     1      17.129  11.677  36.709  0.00  0.00    +0.000 A 
ATOM     19  C   UNL     1      18.299  11.447  37.399  0.00  0.00    +0.000 A 
BRANCH  17  20
ATOM     20  N   UNL     1      15.621  11.140  34.954  0.00  0.00    +0.000 N 
ATOM     21  O   UNL     1      14.689  11.714  35.537  0.00  0.00    +0.000 OA
ATOM     22  O   UNL     1      15.455  10.772  33.647  0.00  0.00    +0.000 OA
ENDBRANCH  17  20
ENDBRANCH   2  14
TORSDOF 3
ENDMDL
MODEL 5
REMARK VINA RESULT:      -6.2     20.596     22.976
REMARK  Name = 
REMARK  3 active torsions:
REMARK  status: ('A' for Active; 'I' for Inactive)
REMARK    1  A    between atoms: C_10  and  N_11
REMARK    2  A    between atoms: C_12  and  C_14
REMARK    3  A    between atoms: C_17  and  N_18
REMARK                            x       y       z     vdW  Elec       q    Type
REMARK                         _______ _______ _______ _____ _____    ______ ____
ROOT
ATOM      1  N   UNL     1      33.562  -4.882  32.804  0.00  0.00    +0.000 NA
ATOM      2  C   UNL     1      32.880  -4.174  33.760  0.00  0.00    +0.000 C 
ATOM      3  O   UNL     1      32.072  -4.759  34.505  0.00  0.00    +0.000 OA
ENDROOT
BRANCH   1  13
ATOM      4  C   UNL     1      33.204  -5.075  30.272  0.00  0.00    +0.000 C 
ATOM      5  C   UNL     1      32.902  -6.292  30.982  0.00  0.00    +0.000 C 
ATOM      6  C   UNL     1      31.474  -6.722  31.041  0.00  0.00    +0.000 C 
ATOM      7  C   UNL     1      33.731  -7.516  30.311  0.00  0.00    +0.000 C 
ATOM      8  C   UNL     1      33.637  -8.531  31.584  0.00  0.00    +0.000 C 
ATOM      9  C   UNL     1      34.871  -8.277  32.336  0.00  0.00    +0.000 C 
ATOM     10  C   UNL     1      34.999  -6.742  32.130  0.00  0.00    +0.000 C 
ATOM     11  C   UNL     1      35.975  -6.195  33.047  0.00  0.00    +0.000 C 
ATOM     12  C   UNL     1      35.135  -6.822  30.715  0.00  0.00    +0.000 C 
ATOM     13  C   UNL     1      33.494  -6.338  32.481  0.00  0.00    +0.000 C 
ENDBRANCH   1  13
BRANCH   2  14
ATOM     14  C   UNL     1      32.997  -2.727  34.027  0.00  0.00    +0.000 A 
ATOM     15  C   UNL     1      32.264  -2.077  34.964  0.00  0.00    +0.000 A 
ATOM     16  C   UNL     1      32.383  -0.726  35.204  0.00  0.00    +0.000 A 
ATOM     17  C   UNL     1      33.292   0.021  34.457  0.00  0.00    +0.000 A 
ATOM     18  C   UNL     1      34.049  -0.608  33.501  0.00  0.00    +0.000 A 
ATOM     19  C   UNL     1      33.892  -1.962  33.301  0.00  0.00    +0.000 A 
BRANCH  17  20
ATOM     20  N   UNL     1      33.475   1.398  34.636  0.00  0.00    +0.000 N 
ATOM     21  O   UNL     1      33.800   1.839  35.749  0.00  0.00    +0.000 OA
ATOM     22  O   UNL     1      33.301   2.278  33.603  0.00  0.00    +0.000 OA
ENDBRANCH  17  20
ENDBRANCH   2  14
TORSDOF 3
ENDMDL
MODEL 6
REMARK VINA RESULT:      -6.0     21.032     23.160
REMARK  Name = 
REMARK  3 active torsions:
REMARK  status: ('A' for Active; 'I' for Inactive)
REMARK    1  A    between atoms: C_10  and  N_11
REMARK    2  A    between atoms: C_12  and  C_14
REMARK    3  A    between atoms: C_17  and  N_18
REMARK                            x       y       z     vdW  Elec       q    Type
REMARK                         _______ _______ _______ _____ _____    ______ ____
ROOT
ATOM      1  N   UNL     1      33.778  -3.236  33.919  0.00  0.00    +0.000 NA
ATOM      2  C   UNL     1      33.149  -4.324  33.371  0.00  0.00    +0.000 C 
ATOM      3  O   UNL     1      32.062  -4.711  33.839  0.00  0.00    +0.000 OA
ENDROOT
BRANCH   1  13
ATOM      4  C   UNL     1      35.506  -3.558  35.787  0.00  0.00    +0.000 C 
ATOM      5  C   UNL     1      34.278  -2.959  36.246  0.00  0.00    +0.000 C 
ATOM      6  C   UNL     1      33.409  -3.771  37.149  0.00  0.00    +0.000 C 
ATOM      7  C   UNL     1      34.623  -1.586  37.040  0.00  0.00    +0.000 C 
ATOM      8  C   UNL     1      33.138  -0.921  36.925  0.00  0.00    +0.000 C 
ATOM      9  C   UNL     1      33.211  -0.090  35.718  0.00  0.00    +0.000 C 
ATOM     10  C   UNL     1      34.112  -0.991  34.827  0.00  0.00    +0.000 C 
ATOM     11  C   UNL     1      34.073  -0.534  33.455  0.00  0.00    +0.000 C 
ATOM     12  C   UNL     1      35.238  -0.932  35.696  0.00  0.00    +0.000 C 
ATOM     13  C   UNL     1      33.353  -2.376  35.062  0.00  0.00    +0.000 C 
ENDBRANCH   1  13
BRANCH   2  14
ATOM     14  C   UNL     1      33.629  -5.133  32.234  0.00  0.00    +0.000 A 
ATOM     15  C   UNL     1      34.891  -5.616  32.137  0.00  0.00    +0.000 A 
ATOM     16  C   UNL     1      35.326  -6.370  31.070  0.00  0.00    +0.000 A 
ATOM     17  C   UNL     1      34.440  -6.657  30.033  0.00  0.00    +0.000 A 
ATOM     18  C   UNL     1      33.155  -6.183  30.101  0.00  0.00    +0.000 A 
ATOM     19  C   UNL     1      32.770  -5.433  31.190  0.00  0.00    +0.000 A 
BRANCH  17  20
ATOM     20  N   UNL     1      34.801  -7.415  28.911  0.00  0.00    +0.000 N 
ATOM     21  O   UNL     1      34.676  -6.935  27.775  0.00  0.00    +0.000 OA
ATOM     22  O   UNL     1      35.292  -8.686  29.041  0.00  0.00    +0.000 OA
ENDBRANCH  17  20
ENDBRANCH   2  14
TORSDOF 3
ENDMDL
MODEL 7
REMARK VINA RESULT:      -5.8      4.933      6.712
REMARK  Name = 
REMARK  3 active torsions:
REMARK  status: ('A' for Active; 'I' for Inactive)
REMARK    1  A    between atoms: C_10  and  N_11
REMARK    2  A    between atoms: C_12  and  C_14
REMARK    3  A    between atoms: C_17  and  N_18
REMARK                            x       y       z     vdW  Elec       q    Type
REMARK                         _______ _______ _______ _____ _____    ______ ____
ROOT
ATOM      1  N   UNL     1      21.780  10.459  38.290  0.00  0.00    +0.000 NA
ATOM      2  C   UNL     1      20.445  10.727  38.447  0.00  0.00    +0.000 C 
ATOM      3  O   UNL     1      19.970  11.790  38.007  0.00  0.00    +0.000 OA
ENDROOT
BRANCH   1  13
ATOM      4  C   UNL     1      23.542  10.984  40.078  0.00  0.00    +0.000 C 
ATOM      5  C   UNL     1      23.636  11.838  38.921  0.00  0.00    +0.000 C 
ATOM      6  C   UNL     1      23.284  13.278  39.095  0.00  0.00    +0.000 C 
ATOM      7  C   UNL     1      25.156  11.794  38.353  0.00  0.00    +0.000 C 
ATOM      8  C   UNL     1      24.815  12.340  36.854  0.00  0.00    +0.000 C 
ATOM      9  C   UNL     1      24.621  11.119  36.064  0.00  0.00    +0.000 C 
ATOM     10  C   UNL     1      23.916  10.225  37.122  0.00  0.00    +0.000 C 
ATOM     11  C   UNL     1      23.331   9.065  36.486  0.00  0.00    +0.000 C 
ATOM     12  C   UNL     1      25.016  10.217  38.025  0.00  0.00    +0.000 C 
ATOM     13  C   UNL     1      22.837  11.286  37.635  0.00  0.00    +0.000 C 
ENDBRANCH   1  13
BRANCH   2  14
ATOM     14  C   UNL     1      19.450   9.860  39.108  0.00  0.00    +0.000 A 
ATOM     15  C   UNL     1      18.138  10.178  39.225  0.00  0.00    +0.000 A 
ATOM     16  C   UNL     1      17.220   9.360  39.844  0.00  0.00    +0.000 A 
ATOM     17  C   UNL     1      17.643   8.146  40.382  0.00  0.00    +0.000 A 
ATOM     18  C   UNL     1      18.965   7.794  40.281  0.00  0.00    +0.000 A 
ATOM     19  C   UNL     1      19.843   8.649  39.651  0.00  0.00    +0.000 A 
BRANCH  17  20
ATOM     20  N   UNL     1      16.776   7.256  41.029  0.00  0.00    +0.000 N 
ATOM     21  O   UNL     1      15.721   7.675  41.528  0.00  0.00    +0.000 OA
ATOM     22  O   UNL     1      17.067   5.922  41.124  0.00  0.00    +0.000 OA
ENDBRANCH  17  20
ENDBRANCH   2  14
TORSDOF 3
ENDMDL
MODEL 8
REMARK VINA RESULT:      -5.8     17.213     18.139
REMARK  Name = 
REMARK  3 active torsions:
REMARK  status: ('A' for Active; 'I' for Inactive)
REMARK    1  A    between atoms: C_10  and  N_11
REMARK    2  A    between atoms: C_12  and  C_14
REMARK    3  A    between atoms: C_17  and  N_18
REMARK                            x       y       z     vdW  Elec       q    Type
REMARK                         _______ _______ _______ _____ _____    ______ ____
ROOT
ATOM      1  N   UNL     1      34.750   8.172  36.730  0.00  0.00    +0.000 NA
ATOM      2  C   UNL     1      34.069   7.012  36.994  0.00  0.00    +0.000 C 
ATOM      3  O   UNL     1      33.470   6.878  38.077  0.00  0.00    +0.000 OA
ENDROOT
BRANCH   1  13
ATOM      4  C   UNL     1      37.236   8.347  37.339  0.00  0.00    +0.000 C 
ATOM      5  C   UNL     1      36.387   9.155  38.178  0.00  0.00    +0.000 C 
ATOM      6  C   UNL     1      36.245   8.751  39.608  0.00  0.00    +0.000 C 
ATOM      7  C   UNL     1      36.939  10.681  38.176  0.00  0.00    +0.000 C 
ATOM      8  C   UNL     1      35.560  11.384  38.689  0.00  0.00    +0.000 C 
ATOM      9  C   UNL     1      34.872  11.767  37.451  0.00  0.00    +0.000 C 
ATOM     10  C   UNL     1      35.250  10.559  36.550  0.00  0.00    +0.000 C 
ATOM     11  C   UNL     1      34.426  10.544  35.361  0.00  0.00    +0.000 C 
ATOM     12  C   UNL     1      36.651  10.812  36.591  0.00  0.00    +0.000 C 
ATOM     13  C   UNL     1      34.909   9.388  37.581  0.00  0.00    +0.000 C 
ENDBRANCH   1  13
BRANCH   2  14
ATOM     14  C   UNL     1      33.952   5.842  36.102  0.00  0.00    +0.000 A 
ATOM     15  C   UNL     1      34.394   4.603  36.428  0.00  0.00    +0.000 A 
ATOM     16  C   UNL     1      34.279   3.520  35.586  0.00  0.00    +0.000 A 
ATOM     17  C   UNL     1      33.684   3.689  34.337  0.00  0.00    +0.000 A 
ATOM     18  C   UNL     1      33.227   4.931  33.976  0.00  0.00    +0.000 A 
ATOM     19  C   UNL     1      33.367   5.981  34.856  0.00  0.00    +0.000 A 
BRANCH  17  20
ATOM     20  N   UNL     1      33.528   2.641  33.420  0.00  0.00    +0.000 N 
ATOM     21  O   UNL     1      33.122   1.535  33.809  0.00  0.00    +0.000 OA
ATOM     22  O   UNL     1      33.816   2.809  32.093  0.00  0.00    +0.000 OA
ENDBRANCH  17  20
ENDBRANCH   2  14
TORSDOF 3
ENDMDL
MODEL 9
REMARK VINA RESULT:      -5.8     21.103     22.461
REMARK  Name = 
REMARK  3 active torsions:
REMARK  status: ('A' for Active; 'I' for Inactive)
REMARK    1  A    between atoms: C_10  and  N_11
REMARK    2  A    between atoms: C_12  and  C_14
REMARK    3  A    between atoms: C_17  and  N_18
REMARK                            x       y       z     vdW  Elec       q    Type
REMARK                         _______ _______ _______ _____ _____    ______ ____
ROOT
ATOM      1  N   UNL     1      25.517   4.265  16.843  0.00  0.00    +0.000 NA
ATOM      2  C   UNL     1      24.634   3.571  17.629  0.00  0.00    +0.000 C 
ATOM      3  O   UNL     1      24.968   3.221  18.776  0.00  0.00    +0.000 OA
ENDROOT
BRANCH   1  13
ATOM      4  C   UNL     1      26.856   4.093  14.662  0.00  0.00    +0.000 C 
ATOM      5  C   UNL     1      27.689   4.188  15.833  0.00  0.00    +0.000 C 
ATOM      6  C   UNL     1      28.487   2.985  16.214  0.00  0.00    +0.000 C 
ATOM      7  C   UNL     1      28.745   5.406  15.635  0.00  0.00    +0.000 C 
ATOM      8  C   UNL     1      29.104   5.606  17.213  0.00  0.00    +0.000 C 
ATOM      9  C   UNL     1      28.179   6.653  17.660  0.00  0.00    +0.000 C 
ATOM     10  C   UNL     1      26.920   6.267  16.835  0.00  0.00    +0.000 C 
ATOM     11  C   UNL     1      25.758   6.966  17.340  0.00  0.00    +0.000 C 
ATOM     12  C   UNL     1      27.537   6.478  15.569  0.00  0.00    +0.000 C 
ATOM     13  C   UNL     1      26.912   4.701  17.149  0.00  0.00    +0.000 C 
ENDBRANCH   1  13
BRANCH   2  14
ATOM     14  C   UNL     1      23.262   3.170  17.261  0.00  0.00    +0.000 A 
ATOM     15  C   UNL     1      22.256   3.031  18.159  0.00  0.00    +0.000 A 
ATOM     16  C   UNL     1      20.979   2.656  17.802  0.00  0.00    +0.000 A 
ATOM     17  C   UNL     1      20.693   2.404  16.462  0.00  0.00    +0.000 A 
ATOM     18  C   UNL     1      21.689   2.537  15.529  0.00  0.00    +0.000 A 
ATOM     19  C   UNL     1      22.949   2.914  15.938  0.00  0.00    +0.000 A 
BRANCH  17  20
ATOM     20  N   UNL     1      19.423   2.018  16.015  0.00  0.00    +0.000 N 
ATOM     21  O   UNL     1      19.074   2.271  14.852  0.00  0.00    +0.000 OA
ATOM     22  O   UNL     1      18.549   1.362  16.838  0.00  0.00    +0.000 OA
ENDBRANCH  17  20
ENDBRANCH   2  14
TORSDOF 3
ENDMDL
MODEL 10
REMARK VINA RESULT:      -5.7     19.512     21.878
REMARK  Name = 
REMARK  3 active torsions:
REMARK  status: ('A' for Active; 'I' for Inactive)
REMARK    1  A    between atoms: C_10  and  N_11
REMARK    2  A    between atoms: C_12  and  C_14
REMARK    3  A    between atoms: C_17  and  N_18
REMARK                            x       y       z     vdW  Elec       q    Type
REMARK                         _______ _______ _______ _____ _____    ______ ____
ROOT
ATOM      1  N   UNL     1      33.865  -3.510  34.098  0.00  0.00    +0.000 NA
ATOM      2  C   UNL     1      34.360  -2.410  34.750  0.00  0.00    +0.000 C 
ATOM      3  O   UNL     1      35.093  -2.558  35.745  0.00  0.00    +0.000 OA
ENDROOT
BRANCH   1  13
ATOM      4  C   UNL     1      31.670  -4.388  35.091  0.00  0.00    +0.000 C 
ATOM      5  C   UNL     1      32.792  -5.258  35.336  0.00  0.00    +0.000 C 
ATOM      6  C   UNL     1      33.275  -5.382  36.744  0.00  0.00    +0.000 C 
ATOM      7  C   UNL     1      32.420  -6.757  34.837  0.00  0.00    +0.000 C 
ATOM      8  C   UNL     1      33.951  -7.306  34.721  0.00  0.00    +0.000 C 
ATOM      9  C   UNL     1      34.312  -7.067  33.320  0.00  0.00    +0.000 C 
ATOM     10  C   UNL     1      33.582  -5.716  33.082  0.00  0.00    +0.000 C 
ATOM     11  C   UNL     1      34.048  -5.105  31.856  0.00  0.00    +0.000 C 
ATOM     12  C   UNL     1      32.279  -6.242  33.310  0.00  0.00    +0.000 C 
ATOM     13  C   UNL     1      34.069  -4.958  34.400  0.00  0.00    +0.000 C 
ENDBRANCH   1  13
BRANCH   2  14
ATOM     14  C   UNL     1      34.118  -0.998  34.394  0.00  0.00    +0.000 A 
ATOM     15  C   UNL     1      33.800  -0.041  35.300  0.00  0.00    +0.000 A 
ATOM     16  C   UNL     1      33.576   1.273  34.955  0.00  0.00    +0.000 A 
ATOM     17  C   UNL     1      33.676   1.652  33.617  0.00  0.00    +0.000 A 
ATOM     18  C   UNL     1      33.996   0.707  32.676  0.00  0.00    +0.000 A 
ATOM     19  C   UNL     1      34.210  -0.594  33.074  0.00  0.00    +0.000 A 
BRANCH  17  20
ATOM     20  N   UNL     1      33.464   2.967  33.181  0.00  0.00    +0.000 N 
ATOM     21  O   UNL     1      33.118   3.839  33.992  0.00  0.00    +0.000 OA
ATOM     22  O   UNL     1      33.630   3.315  31.868  0.00  0.00    +0.000 OA
ENDBRANCH  17  20
ENDBRANCH   2  14
TORSDOF 3
ENDMDL
