MODEL 1
REMARK VINA RESULT:      -7.7      0.000      0.000
REMARK  Name = 
REMARK  7 active torsions:
REMARK  status: ('A' for Active; 'I' for Inactive)
REMARK    1  A    between atoms: O_2  and  C_3
REMARK    2  A    between atoms: C_6  and  C_7
REMARK    3  A    between atoms: C_7  and  C_8
REMARK    4  A    between atoms: C_8  and  C_9
REMARK    5  A    between atoms: C_9  and  C_10
REMARK    6  A    between atoms: N_12  and  C_13
REMARK    7  A    between atoms: C_16  and  C_17
REMARK                            x       y       z     vdW  Elec       q    Type
REMARK                         _______ _______ _______ _____ _____    ______ ____
ROOT
ATOM      1  C   UNL     1      39.188   5.913  17.162  0.00  0.00    +0.000 A 
ATOM      2  C   UNL     1      40.509   6.122  16.813  0.00  0.00    +0.000 A 
ATOM      3  C   UNL     1      41.471   6.390  17.798  0.00  0.00    +0.000 A 
ATOM      4  C   UNL     1      41.123   6.450  19.122  0.00  0.00    +0.000 A 
ATOM      5  C   UNL     1      39.807   6.241  19.458  0.00  0.00    +0.000 A 
ATOM      6  C   UNL     1      38.850   5.975  18.483  0.00  0.00    +0.000 A 
ENDROOT
BRANCH   4   7
ATOM      7  C   UNL     1      42.105   6.729  20.176  0.00  0.00    +0.000 A 
ATOM      8  N   UNL     1      42.714   5.912  21.002  0.00  0.00    +0.000 NA
ATOM      9  C   UNL     1      43.562   6.360  21.876  0.00  0.00    +0.000 A 
ATOM     10  C   UNL     1      44.279   5.593  22.816  0.00  0.00    +0.000 A 
ATOM     11  C   UNL     1      45.143   6.162  23.688  0.00  0.00    +0.000 A 
ATOM     12  C   UNL     1      45.387   7.509  23.728  0.00  0.00    +0.000 A 
ATOM     13  C   UNL     1      46.329   8.113  24.681  0.00  0.00    +0.000 C 
ATOM     14  C   UNL     1      44.691   8.294  22.809  0.00  0.00    +0.000 A 
ATOM     15  C   UNL     1      43.794   7.708  21.905  0.00  0.00    +0.000 A 
ATOM     16  S   UNL     1      42.765   8.256  20.653  0.00  0.00    +0.000 S 
ENDBRANCH   4   7
BRANCH   1  19
ATOM     17  C   UNL     1      37.844   4.298  15.857  0.00  0.00    +0.000 C 
ATOM     18  O   UNL     1      38.396   3.403  16.547  0.00  0.00    +0.000 OA
ATOM     19  N   UNL     1      38.223   5.640  16.136  0.00  0.00    +0.000 NA
BRANCH  17  20
ATOM     20  C   UNL     1      36.855   3.944  14.812  0.00  0.00    +0.000 C 
BRANCH  20  21
ATOM     21  C   UNL     1      35.614   3.408  15.481  0.00  0.00    +0.000 C 
BRANCH  21  22
ATOM     22  C   UNL     1      35.320   2.056  14.826  0.00  0.00    +0.000 C 
BRANCH  22  26
ATOM     23  C   UNL     1      36.322  -1.176  17.499  0.00  0.00    +0.000 A 
ATOM     24  C   UNL     1      37.062  -0.924  16.363  0.00  0.00    +0.000 A 
ATOM     25  C   UNL     1      36.724   0.125  15.511  0.00  0.00    +0.000 A 
ATOM     26  C   UNL     1      35.651   0.941  15.765  0.00  0.00    +0.000 A 
ATOM     27  C   UNL     1      34.909   0.693  16.901  0.00  0.00    +0.000 A 
ATOM     28  C   UNL     1      35.244  -0.352  17.752  0.00  0.00    +0.000 A 
BRANCH  23  30
ATOM     29  C   UNL     1      37.512  -1.967  19.453  0.00  0.00    +0.000 C 
ATOM     30  O   UNL     1      36.625  -2.215  18.380  0.00  0.00    +0.000 OA
ENDBRANCH  23  30
ENDBRANCH  22  26
ENDBRANCH  21  22
ENDBRANCH  20  21
ENDBRANCH  17  20
ENDBRANCH   1  19
TORSDOF 7
ENDMDL
MODEL 2
REMARK VINA RESULT:      -7.6      1.260      1.642
REMARK  Name = 
REMARK  7 active torsions:
REMARK  status: ('A' for Active; 'I' for Inactive)
REMARK    1  A    between atoms: O_2  and  C_3
REMARK    2  A    between atoms: C_6  and  C_7
REMARK    3  A    between atoms: C_7  and  C_8
REMARK    4  A    between atoms: C_8  and  C_9
REMARK    5  A    between atoms: C_9  and  C_10
REMARK    6  A    between atoms: N_12  and  C_13
REMARK    7  A    between atoms: C_16  and  C_17
REMARK                            x       y       z     vdW  Elec       q    Type
REMARK                         _______ _______ _______ _____ _____    ______ ____
ROOT
ATOM      1  C   UNL     1      38.719   4.782  16.587  0.00  0.00    +0.000 A 
ATOM      2  C   UNL     1      39.847   5.426  16.115  0.00  0.00    +0.000 A 
ATOM      3  C   UNL     1      40.719   6.075  17.001  0.00  0.00    +0.000 A 
ATOM      4  C   UNL     1      40.473   6.084  18.349  0.00  0.00    +0.000 A 
ATOM      5  C   UNL     1      39.348   5.440  18.807  0.00  0.00    +0.000 A 
ATOM      6  C   UNL     1      38.481   4.796  17.930  0.00  0.00    +0.000 A 
ENDROOT
BRANCH   4   7
ATOM      7  C   UNL     1      41.364   6.754  19.302  0.00  0.00    +0.000 A 
ATOM      8  N   UNL     1      42.085   6.257  20.279  0.00  0.00    +0.000 NA
ATOM      9  C   UNL     1      42.820   7.028  21.021  0.00  0.00    +0.000 A 
ATOM     10  C   UNL     1      43.636   6.622  22.096  0.00  0.00    +0.000 A 
ATOM     11  C   UNL     1      44.365   7.510  22.810  0.00  0.00    +0.000 A 
ATOM     12  C   UNL     1      44.370   8.855  22.549  0.00  0.00    +0.000 A 
ATOM     13  C   UNL     1      45.169   9.808  23.334  0.00  0.00    +0.000 C 
ATOM     14  C   UNL     1      43.572   9.285  21.490  0.00  0.00    +0.000 A 
ATOM     15  C   UNL     1      42.814   8.368  20.749  0.00  0.00    +0.000 A 
ATOM     16  S   UNL     1      41.737   8.440  19.422  0.00  0.00    +0.000 S 
ENDBRANCH   4   7
BRANCH   1  19
ATOM     17  C   UNL     1      36.890   4.883  14.926  0.00  0.00    +0.000 C 
ATOM     18  O   UNL     1      36.870   6.122  15.141  0.00  0.00    +0.000 OA
ATOM     19  N   UNL     1      37.843   4.125  15.660  0.00  0.00    +0.000 NA
BRANCH  17  20
ATOM     20  C   UNL     1      35.954   4.270  13.953  0.00  0.00    +0.000 C 
BRANCH  20  21
ATOM     21  C   UNL     1      35.036   3.328  14.691  0.00  0.00    +0.000 C 
BRANCH  21  22
ATOM     22  C   UNL     1      35.456   1.912  14.286  0.00  0.00    +0.000 C 
BRANCH  22  26
ATOM     23  C   UNL     1      36.185  -0.442  17.825  0.00  0.00    +0.000 A 
ATOM     24  C   UNL     1      35.508   0.758  17.883  0.00  0.00    +0.000 A 
ATOM     25  C   UNL     1      35.282   1.505  16.730  0.00  0.00    +0.000 A 
ATOM     26  C   UNL     1      35.719   1.081  15.501  0.00  0.00    +0.000 A 
ATOM     27  C   UNL     1      36.396  -0.119  15.437  0.00  0.00    +0.000 A 
ATOM     28  C   UNL     1      36.622  -0.866  16.585  0.00  0.00    +0.000 A 
BRANCH  23  30
ATOM     29  C   UNL     1      37.695  -1.846  19.092  0.00  0.00    +0.000 C 
ATOM     30  O   UNL     1      36.434  -1.223  18.954  0.00  0.00    +0.000 OA
ENDBRANCH  23  30
ENDBRANCH  22  26
ENDBRANCH  21  22
ENDBRANCH  20  21
ENDBRANCH  17  20
ENDBRANCH   1  19
TORSDOF 7
ENDMDL
MODEL 3
REMARK VINA RESULT:      -7.6     24.820     29.568
REMARK  Name = 
REMARK  7 active torsions:
REMARK  status: ('A' for Active; 'I' for Inactive)
REMARK    1  A    between atoms: O_2  and  C_3
REMARK    2  A    between atoms: C_6  and  C_7
REMARK    3  A    between atoms: C_7  and  C_8
REMARK    4  A    between atoms: C_8  and  C_9
REMARK    5  A    between atoms: C_9  and  C_10
REMARK    6  A    between atoms: N_12  and  C_13
REMARK    7  A    between atoms: C_16  and  C_17
REMARK                            x       y       z     vdW  Elec       q    Type
REMARK                         _______ _______ _______ _____ _____    ______ ____
ROOT
ATOM      1  C   UNL     1      13.031   0.210  27.789  0.00  0.00    +0.000 A 
ATOM      2  C   UNL     1      12.348   1.375  28.081  0.00  0.00    +0.000 A 
ATOM      3  C   UNL     1      11.119   1.652  27.466  0.00  0.00    +0.000 A 
ATOM      4  C   UNL     1      10.571   0.778  26.564  0.00  0.00    +0.000 A 
ATOM      5  C   UNL     1      11.260  -0.378  26.280  0.00  0.00    +0.000 A 
ATOM      6  C   UNL     1      12.479  -0.655  26.890  0.00  0.00    +0.000 A 
ENDROOT
BRANCH   4   7
ATOM      7  C   UNL     1       9.288   1.038  25.902  0.00  0.00    +0.000 A 
ATOM      8  N   UNL     1       8.308   1.842  26.242  0.00  0.00    +0.000 NA
ATOM      9  C   UNL     1       7.239   1.932  25.513  0.00  0.00    +0.000 A 
ATOM     10  C   UNL     1       6.121   2.753  25.766  0.00  0.00    +0.000 A 
ATOM     11  C   UNL     1       5.051   2.771  24.938  0.00  0.00    +0.000 A 
ATOM     12  C   UNL     1       4.968   2.006  23.805  0.00  0.00    +0.000 A 
ATOM     13  C   UNL     1       3.798   2.038  22.915  0.00  0.00    +0.000 C 
ATOM     14  C   UNL     1       6.061   1.184  23.529  0.00  0.00    +0.000 A 
ATOM     15  C   UNL     1       7.170   1.162  24.385  0.00  0.00    +0.000 A 
ATOM     16  S   UNL     1       8.672   0.343  24.442  0.00  0.00    +0.000 S 
ENDBRANCH   4   7
BRANCH   1  19
ATOM     17  C   UNL     1      15.482   0.512  27.909  0.00  0.00    +0.000 C 
ATOM     18  O   UNL     1      15.365   1.227  26.881  0.00  0.00    +0.000 OA
ATOM     19  N   UNL     1      14.287  -0.051  28.433  0.00  0.00    +0.000 NA
BRANCH  17  20
ATOM     20  C   UNL     1      16.813   0.285  28.522  0.00  0.00    +0.000 C 
BRANCH  20  21
ATOM     21  C   UNL     1      17.875   0.522  27.477  0.00  0.00    +0.000 C 
BRANCH  21  22
ATOM     22  C   UNL     1      18.015  -0.789  26.700  0.00  0.00    +0.000 C 
BRANCH  22  26
ATOM     23  C   UNL     1      20.105  -0.052  23.000  0.00  0.00    +0.000 A 
ATOM     24  C   UNL     1      19.676   0.982  23.805  0.00  0.00    +0.000 A 
ATOM     25  C   UNL     1      19.002   0.725  24.997  0.00  0.00    +0.000 A 
ATOM     26  C   UNL     1      18.741  -0.555  25.414  0.00  0.00    +0.000 A 
ATOM     27  C   UNL     1      19.170  -1.593  24.613  0.00  0.00    +0.000 A 
ATOM     28  C   UNL     1      19.841  -1.339  23.425  0.00  0.00    +0.000 A 
BRANCH  23  30
ATOM     29  C   UNL     1      20.048   0.547  20.656  0.00  0.00    +0.000 C 
ATOM     30  O   UNL     1      20.783   0.159  21.800  0.00  0.00    +0.000 OA
ENDBRANCH  23  30
ENDBRANCH  22  26
ENDBRANCH  21  22
ENDBRANCH  20  21
ENDBRANCH  17  20
ENDBRANCH   1  19
TORSDOF 7
ENDMDL
MODEL 4
REMARK VINA RESULT:      -7.4      1.456      2.437
REMARK  Name = 
REMARK  7 active torsions:
REMARK  status: ('A' for Active; 'I' for Inactive)
REMARK    1  A    between atoms: O_2  and  C_3
REMARK    2  A    between atoms: C_6  and  C_7
REMARK    3  A    between atoms: C_7  and  C_8
REMARK    4  A    between atoms: C_8  and  C_9
REMARK    5  A    between atoms: C_9  and  C_10
REMARK    6  A    between atoms: N_12  and  C_13
REMARK    7  A    between atoms: C_16  and  C_17
REMARK                            x       y       z     vdW  Elec       q    Type
REMARK                         _______ _______ _______ _____ _____    ______ ____
ROOT
ATOM      1  C   UNL     1      38.100   4.620  16.405  0.00  0.00    +0.000 A 
ATOM      2  C   UNL     1      38.102   4.517  17.783  0.00  0.00    +0.000 A 
ATOM      3  C   UNL     1      39.118   5.117  18.540  0.00  0.00    +0.000 A 
ATOM      4  C   UNL     1      40.128   5.816  17.932  0.00  0.00    +0.000 A 
ATOM      5  C   UNL     1      40.116   5.912  16.561  0.00  0.00    +0.000 A 
ATOM      6  C   UNL     1      39.109   5.318  15.808  0.00  0.00    +0.000 A 
ENDROOT
BRANCH   4   7
ATOM      7  C   UNL     1      41.206   6.455  18.695  0.00  0.00    +0.000 A 
ATOM      8  N   UNL     1      41.664   6.192  19.896  0.00  0.00    +0.000 NA
ATOM      9  C   UNL     1      42.639   6.882  20.401  0.00  0.00    +0.000 A 
ATOM     10  C   UNL     1      43.220   6.701  21.673  0.00  0.00    +0.000 A 
ATOM     11  C   UNL     1      44.238   7.481  22.106  0.00  0.00    +0.000 A 
ATOM     12  C   UNL     1      44.778   8.491  21.357  0.00  0.00    +0.000 A 
ATOM     13  C   UNL     1      45.885   9.330  21.842  0.00  0.00    +0.000 C 
ATOM     14  C   UNL     1      44.223   8.693  20.093  0.00  0.00    +0.000 A 
ATOM     15  C   UNL     1      43.168   7.889  19.641  0.00  0.00    +0.000 A 
ATOM     16  S   UNL     1      42.216   7.778  18.224  0.00  0.00    +0.000 S 
ENDBRANCH   4   7
BRANCH   1  19
ATOM     17  C   UNL     1      37.248   2.708  15.088  0.00  0.00    +0.000 C 
ATOM     18  O   UNL     1      38.369   2.174  15.286  0.00  0.00    +0.000 OA
ATOM     19  N   UNL     1      37.048   3.997  15.653  0.00  0.00    +0.000 NA
BRANCH  17  20
ATOM     20  C   UNL     1      36.206   2.006  14.301  0.00  0.00    +0.000 C 
BRANCH  20  21
ATOM     21  C   UNL     1      36.146   0.568  14.751  0.00  0.00    +0.000 C 
BRANCH  21  22
ATOM     22  C   UNL     1      35.504   0.578  16.141  0.00  0.00    +0.000 C 
BRANCH  22  26
ATOM     23  C   UNL     1      37.687  -1.936  18.881  0.00  0.00    +0.000 A 
ATOM     24  C   UNL     1      36.634  -1.153  19.304  0.00  0.00    +0.000 A 
ATOM     25  C   UNL     1      35.940  -0.346  18.404  0.00  0.00    +0.000 A 
ATOM     26  C   UNL     1      36.273  -0.300  17.075  0.00  0.00    +0.000 A 
ATOM     27  C   UNL     1      37.326  -1.083  16.647  0.00  0.00    +0.000 A 
ATOM     28  C   UNL     1      38.019  -1.887  17.542  0.00  0.00    +0.000 A 
BRANCH  23  30
ATOM     29  C   UNL     1      38.788  -4.049  19.311  0.00  0.00    +0.000 C 
ATOM     30  O   UNL     1      38.410  -2.758  19.747  0.00  0.00    +0.000 OA
ENDBRANCH  23  30
ENDBRANCH  22  26
ENDBRANCH  21  22
ENDBRANCH  20  21
ENDBRANCH  17  20
ENDBRANCH   1  19
TORSDOF 7
ENDMDL
MODEL 5
REMARK VINA RESULT:      -7.3      5.332     12.283
REMARK  Name = 
REMARK  7 active torsions:
REMARK  status: ('A' for Active; 'I' for Inactive)
REMARK    1  A    between atoms: O_2  and  C_3
REMARK    2  A    between atoms: C_6  and  C_7
REMARK    3  A    between atoms: C_7  and  C_8
REMARK    4  A    between atoms: C_8  and  C_9
REMARK    5  A    between atoms: C_9  and  C_10
REMARK    6  A    between atoms: N_12  and  C_13
REMARK    7  A    between atoms: C_16  and  C_17
REMARK                            x       y       z     vdW  Elec       q    Type
REMARK                         _______ _______ _______ _____ _____    ______ ____
ROOT
ATOM      1  C   UNL     1      36.681   0.252  16.258  0.00  0.00    +0.000 A 
ATOM      2  C   UNL     1      37.489  -0.643  15.582  0.00  0.00    +0.000 A 
ATOM      3  C   UNL     1      37.082  -1.972  15.400  0.00  0.00    +0.000 A 
ATOM      4  C   UNL     1      35.879  -2.412  15.886  0.00  0.00    +0.000 A 
ATOM      5  C   UNL     1      35.083  -1.513  16.557  0.00  0.00    +0.000 A 
ATOM      6  C   UNL     1      35.485  -0.194  16.739  0.00  0.00    +0.000 A 
ENDROOT
BRANCH   4   7
ATOM      7  C   UNL     1      35.424  -3.796  15.713  0.00  0.00    +0.000 A 
ATOM      8  N   UNL     1      35.741  -4.880  16.380  0.00  0.00    +0.000 NA
ATOM      9  C   UNL     1      35.222  -6.028  16.068  0.00  0.00    +0.000 A 
ATOM     10  C   UNL     1      35.478  -7.261  16.701  0.00  0.00    +0.000 A 
ATOM     11  C   UNL     1      34.881  -8.406  16.295  0.00  0.00    +0.000 A 
ATOM     12  C   UNL     1      33.994  -8.458  15.253  0.00  0.00    +0.000 A 
ATOM     13  C   UNL     1      33.354  -9.710  14.823  0.00  0.00    +0.000 C 
ATOM     14  C   UNL     1      33.722  -7.252  14.607  0.00  0.00    +0.000 A 
ATOM     15  C   UNL     1      34.338  -6.065  15.024  0.00  0.00    +0.000 A 
ATOM     16  S   UNL     1      34.307  -4.421  14.549  0.00  0.00    +0.000 S 
ENDBRANCH   4   7
BRANCH   1  19
ATOM     17  C   UNL     1      36.841   2.576  15.428  0.00  0.00    +0.000 C 
ATOM     18  O   UNL     1      36.207   2.175  14.418  0.00  0.00    +0.000 OA
ATOM     19  N   UNL     1      37.120   1.607  16.430  0.00  0.00    +0.000 NA
BRANCH  17  20
ATOM     20  C   UNL     1      37.265   3.992  15.540  0.00  0.00    +0.000 C 
BRANCH  20  21
ATOM     21  C   UNL     1      38.188   4.129  16.726  0.00  0.00    +0.000 C 
BRANCH  21  22
ATOM     22  C   UNL     1      38.226   5.620  17.072  0.00  0.00    +0.000 C 
BRANCH  22  26
ATOM     23  C   UNL     1      41.804   6.559  19.289  0.00  0.00    +0.000 A 
ATOM     24  C   UNL     1      40.601   6.331  19.923  0.00  0.00    +0.000 A 
ATOM     25  C   UNL     1      39.455   6.029  19.191  0.00  0.00    +0.000 A 
ATOM     26  C   UNL     1      39.477   5.946  17.822  0.00  0.00    +0.000 A 
ATOM     27  C   UNL     1      40.679   6.172  17.183  0.00  0.00    +0.000 A 
ATOM     28  C   UNL     1      41.822   6.474  17.910  0.00  0.00    +0.000 A 
BRANCH  23  30
ATOM     29  C   UNL     1      44.206   6.858  19.285  0.00  0.00    +0.000 C 
ATOM     30  O   UNL     1      42.976   6.864  19.982  0.00  0.00    +0.000 OA
ENDBRANCH  23  30
ENDBRANCH  22  26
ENDBRANCH  21  22
ENDBRANCH  20  21
ENDBRANCH  17  20
ENDBRANCH   1  19
TORSDOF 7
ENDMDL
MODEL 6
REMARK VINA RESULT:      -7.1      1.574      1.989
REMARK  Name = 
REMARK  7 active torsions:
REMARK  status: ('A' for Active; 'I' for Inactive)
REMARK    1  A    between atoms: O_2  and  C_3
REMARK    2  A    between atoms: C_6  and  C_7
REMARK    3  A    between atoms: C_7  and  C_8
REMARK    4  A    between atoms: C_8  and  C_9
REMARK    5  A    between atoms: C_9  and  C_10
REMARK    6  A    between atoms: N_12  and  C_13
REMARK    7  A    between atoms: C_16  and  C_17
REMARK                            x       y       z     vdW  Elec       q    Type
REMARK                         _______ _______ _______ _____ _____    ______ ____
ROOT
ATOM      1  C   UNL     1      38.606   4.982  16.463  0.00  0.00    +0.000 A 
ATOM      2  C   UNL     1      39.765   5.598  16.029  0.00  0.00    +0.000 A 
ATOM      3  C   UNL     1      40.664   6.154  16.950  0.00  0.00    +0.000 A 
ATOM      4  C   UNL     1      40.414   6.100  18.296  0.00  0.00    +0.000 A 
ATOM      5  C   UNL     1      39.258   5.485  18.717  0.00  0.00    +0.000 A 
ATOM      6  C   UNL     1      38.365   4.932  17.805  0.00  0.00    +0.000 A 
ENDROOT
BRANCH   4   7
ATOM      7  C   UNL     1      41.333   6.672  19.286  0.00  0.00    +0.000 A 
ATOM      8  N   UNL     1      42.002   6.092  20.254  0.00  0.00    +0.000 NA
ATOM      9  C   UNL     1      42.775   6.782  21.035  0.00  0.00    +0.000 A 
ATOM     10  C   UNL     1      43.543   6.283  22.105  0.00  0.00    +0.000 A 
ATOM     11  C   UNL     1      44.320   7.093  22.862  0.00  0.00    +0.000 A 
ATOM     12  C   UNL     1      44.420   8.442  22.652  0.00  0.00    +0.000 A 
ATOM     13  C   UNL     1      45.269   9.310  23.482  0.00  0.00    +0.000 C 
ATOM     14  C   UNL     1      43.670   8.965  21.598  0.00  0.00    +0.000 A 
ATOM     15  C   UNL     1      42.864   8.129  20.813  0.00  0.00    +0.000 A 
ATOM     16  S   UNL     1      41.817   8.322  19.475  0.00  0.00    +0.000 S 
ENDBRANCH   4   7
BRANCH   1  19
ATOM     17  C   UNL     1      37.897   3.090  15.038  0.00  0.00    +0.000 C 
ATOM     18  O   UNL     1      38.878   2.466  15.515  0.00  0.00    +0.000 OA
ATOM     19  N   UNL     1      37.703   4.421  15.500  0.00  0.00    +0.000 NA
BRANCH  17  20
ATOM     20  C   UNL     1      37.004   2.448  14.045  0.00  0.00    +0.000 C 
BRANCH  20  21
ATOM     21  C   UNL     1      36.354   1.245  14.684  0.00  0.00    +0.000 C 
BRANCH  21  22
ATOM     22  C   UNL     1      36.860   0.022  13.914  0.00  0.00    +0.000 C 
BRANCH  22  26
ATOM     23  C   UNL     1      37.672  -3.257  16.595  0.00  0.00    +0.000 A 
ATOM     24  C   UNL     1      37.023  -3.450  15.394  0.00  0.00    +0.000 A 
ATOM     25  C   UNL     1      36.769  -2.379  14.541  0.00  0.00    +0.000 A 
ATOM     26  C   UNL     1      37.151  -1.101  14.857  0.00  0.00    +0.000 A 
ATOM     27  C   UNL     1      37.802  -0.902  16.057  0.00  0.00    +0.000 A 
ATOM     28  C   UNL     1      38.056  -1.968  16.909  0.00  0.00    +0.000 A 
BRANCH  23  30
ATOM     29  C   UNL     1      38.719  -4.034  18.634  0.00  0.00    +0.000 C 
ATOM     30  O   UNL     1      37.948  -4.300  17.480  0.00  0.00    +0.000 OA
ENDBRANCH  23  30
ENDBRANCH  22  26
ENDBRANCH  21  22
ENDBRANCH  20  21
ENDBRANCH  17  20
ENDBRANCH   1  19
TORSDOF 7
ENDMDL
MODEL 7
REMARK VINA RESULT:      -7.0      7.081      8.442
REMARK  Name = 
REMARK  7 active torsions:
REMARK  status: ('A' for Active; 'I' for Inactive)
REMARK    1  A    between atoms: O_2  and  C_3
REMARK    2  A    between atoms: C_6  and  C_7
REMARK    3  A    between atoms: C_7  and  C_8
REMARK    4  A    between atoms: C_8  and  C_9
REMARK    5  A    between atoms: C_9  and  C_10
REMARK    6  A    between atoms: N_12  and  C_13
REMARK    7  A    between atoms: C_16  and  C_17
REMARK                            x       y       z     vdW  Elec       q    Type
REMARK                         _______ _______ _______ _____ _____    ______ ____
ROOT
ATOM      1  C   UNL     1      39.048   0.556  14.141  0.00  0.00    +0.000 A 
ATOM      2  C   UNL     1      39.283  -0.584  14.887  0.00  0.00    +0.000 A 
ATOM      3  C   UNL     1      40.546  -1.192  14.879  0.00  0.00    +0.000 A 
ATOM      4  C   UNL     1      41.572  -0.672  14.134  0.00  0.00    +0.000 A 
ATOM      5  C   UNL     1      41.327   0.462  13.395  0.00  0.00    +0.000 A 
ATOM      6  C   UNL     1      40.074   1.067  13.402  0.00  0.00    +0.000 A 
ENDROOT
BRANCH   4   7
ATOM      7  C   UNL     1      42.905  -1.283  14.103  0.00  0.00    +0.000 A 
ATOM      8  N   UNL     1      43.343  -2.324  13.435  0.00  0.00    +0.000 NA
ATOM      9  C   UNL     1      44.576  -2.713  13.544  0.00  0.00    +0.000 A 
ATOM     10  C   UNL     1      45.168  -3.809  12.885  0.00  0.00    +0.000 A 
ATOM     11  C   UNL     1      46.469  -4.132  13.071  0.00  0.00    +0.000 A 
ATOM     12  C   UNL     1      47.303  -3.431  13.902  0.00  0.00    +0.000 A 
ATOM     13  C   UNL     1      48.715  -3.794  14.093  0.00  0.00    +0.000 C 
ATOM     14  C   UNL     1      46.743  -2.341  14.568  0.00  0.00    +0.000 A 
ATOM     15  C   UNL     1      45.396  -2.004  14.378  0.00  0.00    +0.000 A 
ATOM     16  S   UNL     1      44.328  -0.802  14.962  0.00  0.00    +0.000 S 
ENDBRANCH   4   7
BRANCH   1  19
ATOM     17  C   UNL     1      37.481   2.236  15.056  0.00  0.00    +0.000 C 
ATOM     18  O   UNL     1      38.433   2.607  15.790  0.00  0.00    +0.000 OA
ATOM     19  N   UNL     1      37.746   1.159  14.167  0.00  0.00    +0.000 NA
BRANCH  17  20
ATOM     20  C   UNL     1      36.161   2.905  15.136  0.00  0.00    +0.000 C 
BRANCH  20  21
ATOM     21  C   UNL     1      35.618   2.739  16.533  0.00  0.00    +0.000 C 
BRANCH  21  22
ATOM     22  C   UNL     1      34.784   1.455  16.522  0.00  0.00    +0.000 C 
BRANCH  22  26
ATOM     23  C   UNL     1      36.986  -1.815  18.270  0.00  0.00    +0.000 A 
ATOM     24  C   UNL     1      36.485  -1.885  16.987  0.00  0.00    +0.000 A 
ATOM     25  C   UNL     1      35.776  -0.820  16.439  0.00  0.00    +0.000 A 
ATOM     26  C   UNL     1      35.549   0.333  17.147  0.00  0.00    +0.000 A 
ATOM     27  C   UNL     1      36.049   0.410  18.430  0.00  0.00    +0.000 A 
ATOM     28  C   UNL     1      36.756  -0.652  18.978  0.00  0.00    +0.000 A 
BRANCH  23  30
ATOM     29  C   UNL     1      38.653  -3.559  18.083  0.00  0.00    +0.000 C 
ATOM     30  O   UNL     1      37.701  -2.858  18.859  0.00  0.00    +0.000 OA
ENDBRANCH  23  30
ENDBRANCH  22  26
ENDBRANCH  21  22
ENDBRANCH  20  21
ENDBRANCH  17  20
ENDBRANCH   1  19
TORSDOF 7
ENDMDL
MODEL 8
REMARK VINA RESULT:      -7.0     29.276     32.610
REMARK  Name = 
REMARK  7 active torsions:
REMARK  status: ('A' for Active; 'I' for Inactive)
REMARK    1  A    between atoms: O_2  and  C_3
REMARK    2  A    between atoms: C_6  and  C_7
REMARK    3  A    between atoms: C_7  and  C_8
REMARK    4  A    between atoms: C_8  and  C_9
REMARK    5  A    between atoms: C_9  and  C_10
REMARK    6  A    between atoms: N_12  and  C_13
REMARK    7  A    between atoms: C_16  and  C_17
REMARK                            x       y       z     vdW  Elec       q    Type
REMARK                         _______ _______ _______ _____ _____    ______ ____
ROOT
ATOM      1  C   UNL     1       8.477   2.113  11.103  0.00  0.00    +0.000 A 
ATOM      2  C   UNL     1       9.425   2.744  10.319  0.00  0.00    +0.000 A 
ATOM      3  C   UNL     1      10.415   2.000   9.662  0.00  0.00    +0.000 A 
ATOM      4  C   UNL     1      10.464   0.636   9.782  0.00  0.00    +0.000 A 
ATOM      5  C   UNL     1       9.517   0.018  10.565  0.00  0.00    +0.000 A 
ATOM      6  C   UNL     1       8.534   0.755  11.217  0.00  0.00    +0.000 A 
ENDROOT
BRANCH   4   7
ATOM      7  C   UNL     1      11.487  -0.172   9.109  0.00  0.00    +0.000 A 
ATOM      8  N   UNL     1      12.299   0.138   8.127  0.00  0.00    +0.000 NA
ATOM      9  C   UNL     1      13.145  -0.730   7.664  0.00  0.00    +0.000 A 
ATOM     10  C   UNL     1      14.067  -0.524   6.618  0.00  0.00    +0.000 A 
ATOM     11  C   UNL     1      14.908  -1.502   6.209  0.00  0.00    +0.000 A 
ATOM     12  C   UNL     1      14.932  -2.751   6.769  0.00  0.00    +0.000 A 
ATOM     13  C   UNL     1      15.854  -3.803   6.314  0.00  0.00    +0.000 C 
ATOM     14  C   UNL     1      14.030  -2.984   7.808  0.00  0.00    +0.000 A 
ATOM     15  C   UNL     1      13.157  -1.974   8.233  0.00  0.00    +0.000 A 
ATOM     16  S   UNL     1      11.933  -1.815   9.418  0.00  0.00    +0.000 S 
ENDBRANCH   4   7
BRANCH   1  19
ATOM     17  C   UNL     1       6.217   3.116  11.138  0.00  0.00    +0.000 C 
ATOM     18  O   UNL     1       6.054   2.592  10.006  0.00  0.00    +0.000 OA
ATOM     19  N   UNL     1       7.475   2.898  11.764  0.00  0.00    +0.000 NA
BRANCH  17  20
ATOM     20  C   UNL     1       5.137   3.916  11.763  0.00  0.00    +0.000 C 
BRANCH  20  21
ATOM     21  C   UNL     1       4.924   5.166  10.945  0.00  0.00    +0.000 C 
BRANCH  21  22
ATOM     22  C   UNL     1       6.077   6.111  11.294  0.00  0.00    +0.000 C 
BRANCH  22  26
ATOM     23  C   UNL     1       8.357   7.121   7.776  0.00  0.00    +0.000 A 
ATOM     24  C   UNL     1       8.970   6.709   8.940  0.00  0.00    +0.000 A 
ATOM     25  C   UNL     1       8.218   6.386  10.067  0.00  0.00    +0.000 A 
ATOM     26  C   UNL     1       6.849   6.465  10.064  0.00  0.00    +0.000 A 
ATOM     27  C   UNL     1       6.230   6.876   8.902  0.00  0.00    +0.000 A 
ATOM     28  C   UNL     1       6.978   7.198   7.778  0.00  0.00    +0.000 A 
BRANCH  23  30
ATOM     29  C   UNL     1      10.469   7.249   6.602  0.00  0.00    +0.000 C 
ATOM     30  O   UNL     1       9.070   7.453   6.624  0.00  0.00    +0.000 OA
ENDBRANCH  23  30
ENDBRANCH  22  26
ENDBRANCH  21  22
ENDBRANCH  20  21
ENDBRANCH  17  20
ENDBRANCH   1  19
TORSDOF 7
ENDMDL
MODEL 9
REMARK VINA RESULT:      -6.9     18.206     19.898
REMARK  Name = 
REMARK  7 active torsions:
REMARK  status: ('A' for Active; 'I' for Inactive)
REMARK    1  A    between atoms: O_2  and  C_3
REMARK    2  A    between atoms: C_6  and  C_7
REMARK    3  A    between atoms: C_7  and  C_8
REMARK    4  A    between atoms: C_8  and  C_9
REMARK    5  A    between atoms: C_9  and  C_10
REMARK    6  A    between atoms: N_12  and  C_13
REMARK    7  A    between atoms: C_16  and  C_17
REMARK                            x       y       z     vdW  Elec       q    Type
REMARK                         _______ _______ _______ _____ _____    ______ ____
ROOT
ATOM      1  C   UNL     1      26.635  18.571  21.679  0.00  0.00    +0.000 A 
ATOM      2  C   UNL     1      27.596  19.517  21.981  0.00  0.00    +0.000 A 
ATOM      3  C   UNL     1      28.941  19.146  22.119  0.00  0.00    +0.000 A 
ATOM      4  C   UNL     1      29.330  17.842  21.958  0.00  0.00    +0.000 A 
ATOM      5  C   UNL     1      28.366  16.909  21.657  0.00  0.00    +0.000 A 
ATOM      6  C   UNL     1      27.031  17.275  21.520  0.00  0.00    +0.000 A 
ENDROOT
BRANCH   4   7
ATOM      7  C   UNL     1      30.729  17.421  22.096  0.00  0.00    +0.000 A 
ATOM      8  N   UNL     1      31.381  16.982  23.146  0.00  0.00    +0.000 NA
ATOM      9  C   UNL     1      32.634  16.655  23.063  0.00  0.00    +0.000 A 
ATOM     10  C   UNL     1      33.443  16.173  24.110  0.00  0.00    +0.000 A 
ATOM     11  C   UNL     1      34.746  15.861  23.916  0.00  0.00    +0.000 A 
ATOM     12  C   UNL     1      35.372  15.986  22.705  0.00  0.00    +0.000 A 
ATOM     13  C   UNL     1      36.789  15.642  22.509  0.00  0.00    +0.000 C 
ATOM     14  C   UNL     1      34.595  16.461  21.649  0.00  0.00    +0.000 A 
ATOM     15  C   UNL     1      33.246  16.786  21.847  0.00  0.00    +0.000 A 
ATOM     16  S   UNL     1      31.962  17.379  20.883  0.00  0.00    +0.000 S 
ENDBRANCH   4   7
BRANCH   1  19
ATOM     17  C   UNL     1      24.766  19.373  20.272  0.00  0.00    +0.000 C 
ATOM     18  O   UNL     1      25.580  19.344  19.313  0.00  0.00    +0.000 OA
ATOM     19  N   UNL     1      25.265  18.977  21.543  0.00  0.00    +0.000 NA
BRANCH  17  20
ATOM     20  C   UNL     1      23.364  19.804  20.059  0.00  0.00    +0.000 C 
BRANCH  20  21
ATOM     21  C   UNL     1      22.442  18.746  20.614  0.00  0.00    +0.000 C 
BRANCH  21  22
ATOM     22  C   UNL     1      22.208  17.741  19.484  0.00  0.00    +0.000 C 
BRANCH  22  26
ATOM     23  C   UNL     1      18.970  19.084  16.972  0.00  0.00    +0.000 A 
ATOM     24  C   UNL     1      18.788  18.844  18.318  0.00  0.00    +0.000 A 
ATOM     25  C   UNL     1      19.845  18.410  19.114  0.00  0.00    +0.000 A 
ATOM     26  C   UNL     1      21.099  18.207  18.596  0.00  0.00    +0.000 A 
ATOM     27  C   UNL     1      21.287  18.447  17.251  0.00  0.00    +0.000 A 
ATOM     28  C   UNL     1      20.234  18.879  16.455  0.00  0.00    +0.000 A 
BRANCH  23  30
ATOM     29  C   UNL     1      18.149  20.659  15.328  0.00  0.00    +0.000 C 
ATOM     30  O   UNL     1      17.940  19.519  16.138  0.00  0.00    +0.000 OA
ENDBRANCH  23  30
ENDBRANCH  22  26
ENDBRANCH  21  22
ENDBRANCH  20  21
ENDBRANCH  17  20
ENDBRANCH   1  19
TORSDOF 7
ENDMDL
MODEL 10
REMARK VINA RESULT:      -6.9      7.083      9.698
REMARK  Name = 
REMARK  7 active torsions:
REMARK  status: ('A' for Active; 'I' for Inactive)
REMARK    1  A    between atoms: O_2  and  C_3
REMARK    2  A    between atoms: C_6  and  C_7
REMARK    3  A    between atoms: C_7  and  C_8
REMARK    4  A    between atoms: C_8  and  C_9
REMARK    5  A    between atoms: C_9  and  C_10
REMARK    6  A    between atoms: N_12  and  C_13
REMARK    7  A    between atoms: C_16  and  C_17
REMARK                            x       y       z     vdW  Elec       q    Type
REMARK                         _______ _______ _______ _____ _____    ______ ____
ROOT
ATOM      1  C   UNL     1      36.822   1.229  15.822  0.00  0.00    +0.000 A 
ATOM      2  C   UNL     1      36.456   2.452  16.352  0.00  0.00    +0.000 A 
ATOM      3  C   UNL     1      36.186   3.541  15.511  0.00  0.00    +0.000 A 
ATOM      4  C   UNL     1      36.280   3.417  14.150  0.00  0.00    +0.000 A 
ATOM      5  C   UNL     1      36.646   2.197  13.632  0.00  0.00    +0.000 A 
ATOM      6  C   UNL     1      36.914   1.115  14.465  0.00  0.00    +0.000 A 
ENDROOT
BRANCH   4   7
ATOM      7  C   UNL     1      36.005   4.537  13.242  0.00  0.00    +0.000 A 
ATOM      8  N   UNL     1      35.170   5.541  13.365  0.00  0.00    +0.000 NA
ATOM      9  C   UNL     1      35.072   6.442  12.437  0.00  0.00    +0.000 A 
ATOM     10  C   UNL     1      34.219   7.564  12.448  0.00  0.00    +0.000 A 
ATOM     11  C   UNL     1      34.194   8.448  11.423  0.00  0.00    +0.000 A 
ATOM     12  C   UNL     1      34.983   8.326  10.311  0.00  0.00    +0.000 A 
ATOM     13  C   UNL     1      34.945   9.295   9.205  0.00  0.00    +0.000 C 
ATOM     14  C   UNL     1      35.838   7.224  10.273  0.00  0.00    +0.000 A 
ATOM     15  C   UNL     1      35.866   6.306  11.332  0.00  0.00    +0.000 A 
ATOM     16  S   UNL     1      36.718   4.870  11.701  0.00  0.00    +0.000 S 
ENDBRANCH   4   7
BRANCH   1  19
ATOM     17  C   UNL     1      36.040  -0.743  17.091  0.00  0.00    +0.000 C 
ATOM     18  O   UNL     1      34.900  -0.493  16.623  0.00  0.00    +0.000 OA
ATOM     19  N   UNL     1      37.093   0.131  16.704  0.00  0.00    +0.000 NA
BRANCH  17  20
ATOM     20  C   UNL     1      36.248  -1.897  17.999  0.00  0.00    +0.000 C 
BRANCH  20  21
ATOM     21  C   UNL     1      37.694  -2.320  17.922  0.00  0.00    +0.000 C 
BRANCH  21  22
ATOM     22  C   UNL     1      37.742  -3.518  16.969  0.00  0.00    +0.000 C 
BRANCH  22  26
ATOM     23  C   UNL     1      39.912  -2.467  13.394  0.00  0.00    +0.000 A 
ATOM     24  C   UNL     1      40.523  -2.486  14.630  0.00  0.00    +0.000 A 
ATOM     25  C   UNL     1      39.807  -2.827  15.774  0.00  0.00    +0.000 A 
ATOM     26  C   UNL     1      38.476  -3.156  15.718  0.00  0.00    +0.000 A 
ATOM     27  C   UNL     1      37.860  -3.140  14.484  0.00  0.00    +0.000 A 
ATOM     28  C   UNL     1      38.573  -2.800  13.342  0.00  0.00    +0.000 A 
BRANCH  23  30
ATOM     29  C   UNL     1      39.916  -1.385  11.228  0.00  0.00    +0.000 C 
ATOM     30  O   UNL     1      40.591  -2.131  12.222  0.00  0.00    +0.000 OA
ENDBRANCH  23  30
ENDBRANCH  22  26
ENDBRANCH  21  22
ENDBRANCH  20  21
ENDBRANCH  17  20
ENDBRANCH   1  19
TORSDOF 7
ENDMDL
