MODEL 1
REMARK VINA RESULT:      -7.1      0.000      0.000
REMARK  Name = 
REMARK  8 active torsions:
REMARK  status: ('A' for Active; 'I' for Inactive)
REMARK    1  A    between atoms: C_2  and  O_3
REMARK    2  A    between atoms: O_3  and  C_4
REMARK    3  A    between atoms: C_6  and  C_7
REMARK    4  A    between atoms: N_8  and  C_9
REMARK    5  A    between atoms: C_12  and  N_13
REMARK    6  A    between atoms: C_21  and  O_22
REMARK    7  A    between atoms: O_22  and  C_23
REMARK    8  A    between atoms: C_23  and  C_24
REMARK                            x       y       z     vdW  Elec       q    Type
REMARK                         _______ _______ _______ _____ _____    ______ ____
ROOT
ATOM      1  C   UNL     1      36.624   0.369  15.113  0.00  0.00    +0.000 A 
ATOM      2  C   UNL     1      36.759   1.592  15.733  0.00  0.00    +0.000 A 
ATOM      3  C   UNL     1      37.722   2.491  15.368  0.00  0.00    +0.000 A 
ATOM      4  C   UNL     1      38.588   2.141  14.327  0.00  0.00    +0.000 A 
ATOM      5  C   UNL     1      38.445   0.916  13.714  0.00  0.00    +0.000 A 
ATOM      6  C   UNL     1      37.477   0.006  14.079  0.00  0.00    +0.000 A 
ENDROOT
BRANCH   3   7
ATOM      7  C   UNL     1      37.925   3.788  15.969  0.00  0.00    +0.000 C 
ATOM      8  N   UNL     1      38.527   4.019  17.063  0.00  0.00    +0.000 NA
BRANCH   8   9
ATOM      9  C   UNL     1      38.708   5.310  17.626  0.00  0.00    +0.000 A 
ATOM     10  C   UNL     1      39.225   5.389  18.897  0.00  0.00    +0.000 A 
ATOM     11  C   UNL     1      39.431   6.619  19.516  0.00  0.00    +0.000 A 
ATOM     12  C   UNL     1      39.110   7.788  18.838  0.00  0.00    +0.000 A 
ATOM     13  C   UNL     1      38.598   7.709  17.578  0.00  0.00    +0.000 A 
ATOM     14  C   UNL     1      38.392   6.469  16.960  0.00  0.00    +0.000 A 
BRANCH  12  15
ATOM     15  N   UNL     1      39.350   9.007  19.534  0.00  0.00    +0.000 NA
ATOM     16  C   UNL     1      38.385   9.617  20.366  0.00  0.00    +0.000 C 
ATOM     17  C   UNL     1      38.617  10.891  21.102  0.00  0.00    +0.000 C 
ATOM     18  O   UNL     1      37.262   9.016  20.469  0.00  0.00    +0.000 OA
ENDBRANCH  12  15
ENDBRANCH   8   9
ENDBRANCH   3   7
BRANCH   1  19
ATOM     19  O   UNL     1      35.651  -0.555  15.474  0.00  0.00    +0.000 OA
BRANCH  19  21
ATOM     20  C   UNL     1      34.596  -2.094  16.941  0.00  0.00    +0.000 C 
ATOM     21  C   UNL     1      35.232  -0.725  16.808  0.00  0.00    +0.000 C 
ENDBRANCH  19  21
ENDBRANCH   1  19
BRANCH   6  22
ATOM     22  O   UNL     1      37.325  -1.241  13.459  0.00  0.00    +0.000 OA
BRANCH  22  23
ATOM     23  C   UNL     1      38.353  -2.189  13.560  0.00  0.00    +0.000 C 
BRANCH  23  24
ATOM     24  C   UNL     1      38.265  -2.906  14.871  0.00  0.00    +0.000 A 
ATOM     25  C   UNL     1      39.146  -2.601  15.888  0.00  0.00    +0.000 A 
ATOM     26  C   UNL     1      39.042  -3.276  17.083  0.00  0.00    +0.000 A 
ATOM     27  C   UNL     1      38.063  -4.236  17.228  0.00  0.00    +0.000 A 
ATOM     28  C   UNL     1      37.186  -4.534  16.201  0.00  0.00    +0.000 A 
ATOM     29  C   UNL     1      37.277  -3.871  15.010  0.00  0.00    +0.000 A 
ENDBRANCH  23  24
ENDBRANCH  22  23
ENDBRANCH   6  22
TORSDOF 8
ENDMDL
MODEL 2
REMARK VINA RESULT:      -7.0      5.641      7.644
REMARK  Name = 
REMARK  8 active torsions:
REMARK  status: ('A' for Active; 'I' for Inactive)
REMARK    1  A    between atoms: C_2  and  O_3
REMARK    2  A    between atoms: O_3  and  C_4
REMARK    3  A    between atoms: C_6  and  C_7
REMARK    4  A    between atoms: N_8  and  C_9
REMARK    5  A    between atoms: C_12  and  N_13
REMARK    6  A    between atoms: C_21  and  O_22
REMARK    7  A    between atoms: O_22  and  C_23
REMARK    8  A    between atoms: C_23  and  C_24
REMARK                            x       y       z     vdW  Elec       q    Type
REMARK                         _______ _______ _______ _____ _____    ______ ____
ROOT
ATOM      1  C   UNL     1      37.134   3.584  16.445  0.00  0.00    +0.000 A 
ATOM      2  C   UNL     1      36.830   4.380  15.363  0.00  0.00    +0.000 A 
ATOM      3  C   UNL     1      35.733   4.156  14.579  0.00  0.00    +0.000 A 
ATOM      4  C   UNL     1      34.902   3.079  14.903  0.00  0.00    +0.000 A 
ATOM      5  C   UNL     1      35.215   2.288  15.986  0.00  0.00    +0.000 A 
ATOM      6  C   UNL     1      36.320   2.509  16.779  0.00  0.00    +0.000 A 
ENDROOT
BRANCH   3   7
ATOM      7  C   UNL     1      35.350   4.945  13.432  0.00  0.00    +0.000 C 
ATOM      8  N   UNL     1      36.120   5.327  12.496  0.00  0.00    +0.000 NA
BRANCH   8   9
ATOM      9  C   UNL     1      35.708   6.103  11.381  0.00  0.00    +0.000 A 
ATOM     10  C   UNL     1      34.524   6.794  11.483  0.00  0.00    +0.000 A 
ATOM     11  C   UNL     1      34.053   7.576  10.432  0.00  0.00    +0.000 A 
ATOM     12  C   UNL     1      34.794   7.662   9.259  0.00  0.00    +0.000 A 
ATOM     13  C   UNL     1      35.967   6.978   9.160  0.00  0.00    +0.000 A 
ATOM     14  C   UNL     1      36.436   6.192  10.220  0.00  0.00    +0.000 A 
BRANCH  12  15
ATOM     15  N   UNL     1      34.250   8.482   8.229  0.00  0.00    +0.000 NA
ATOM     16  C   UNL     1      33.606   7.954   7.089  0.00  0.00    +0.000 C 
ATOM     17  C   UNL     1      33.031   8.794   6.002  0.00  0.00    +0.000 C 
ATOM     18  O   UNL     1      33.532   6.680   7.017  0.00  0.00    +0.000 OA
ENDBRANCH  12  15
ENDBRANCH   8   9
ENDBRANCH   3   7
BRANCH   1  19
ATOM     19  O   UNL     1      38.246   3.798  17.250  0.00  0.00    +0.000 OA
BRANCH  19  21
ATOM     20  C   UNL     1      39.177   5.407  18.727  0.00  0.00    +0.000 C 
ATOM     21  C   UNL     1      38.927   5.031  17.279  0.00  0.00    +0.000 C 
ENDBRANCH  19  21
ENDBRANCH   1  19
BRANCH   6  22
ATOM     22  O   UNL     1      36.643   1.709  17.883  0.00  0.00    +0.000 OA
BRANCH  22  23
ATOM     23  C   UNL     1      35.930   0.523  18.105  0.00  0.00    +0.000 C 
BRANCH  23  24
ATOM     24  C   UNL     1      36.853  -0.654  18.032  0.00  0.00    +0.000 A 
ATOM     25  C   UNL     1      37.232  -1.307  19.187  0.00  0.00    +0.000 A 
ATOM     26  C   UNL     1      38.082  -2.387  19.090  0.00  0.00    +0.000 A 
ATOM     27  C   UNL     1      38.528  -2.780  17.846  0.00  0.00    +0.000 A 
ATOM     28  C   UNL     1      38.141  -2.116  16.696  0.00  0.00    +0.000 A 
ATOM     29  C   UNL     1      37.297  -1.044  16.777  0.00  0.00    +0.000 A 
ENDBRANCH  23  24
ENDBRANCH  22  23
ENDBRANCH   6  22
TORSDOF 8
ENDMDL
MODEL 3
REMARK VINA RESULT:      -6.9      1.144      2.393
REMARK  Name = 
REMARK  8 active torsions:
REMARK  status: ('A' for Active; 'I' for Inactive)
REMARK    1  A    between atoms: C_2  and  O_3
REMARK    2  A    between atoms: O_3  and  C_4
REMARK    3  A    between atoms: C_6  and  C_7
REMARK    4  A    between atoms: N_8  and  C_9
REMARK    5  A    between atoms: C_12  and  N_13
REMARK    6  A    between atoms: C_21  and  O_22
REMARK    7  A    between atoms: O_22  and  C_23
REMARK    8  A    between atoms: C_23  and  C_24
REMARK                            x       y       z     vdW  Elec       q    Type
REMARK                         _______ _______ _______ _____ _____    ______ ____
ROOT
ATOM      1  C   UNL     1      37.232   0.643  15.029  0.00  0.00    +0.000 A 
ATOM      2  C   UNL     1      37.682   1.899  15.372  0.00  0.00    +0.000 A 
ATOM      3  C   UNL     1      37.065   2.658  16.326  0.00  0.00    +0.000 A 
ATOM      4  C   UNL     1      35.941   2.125  16.966  0.00  0.00    +0.000 A 
ATOM      5  C   UNL     1      35.498   0.870  16.615  0.00  0.00    +0.000 A 
ATOM      6  C   UNL     1      36.116   0.100  15.654  0.00  0.00    +0.000 A 
ENDROOT
BRANCH   3   7
ATOM      7  C   UNL     1      37.477   3.979  16.739  0.00  0.00    +0.000 C 
ATOM      8  N   UNL     1      38.213   4.255  17.737  0.00  0.00    +0.000 NA
BRANCH   8   9
ATOM      9  C   UNL     1      38.599   5.568  18.114  0.00  0.00    +0.000 A 
ATOM     10  C   UNL     1      39.470   5.702  19.170  0.00  0.00    +0.000 A 
ATOM     11  C   UNL     1      39.893   6.957  19.599  0.00  0.00    +0.000 A 
ATOM     12  C   UNL     1      39.430   8.095  18.949  0.00  0.00    +0.000 A 
ATOM     13  C   UNL     1      38.568   7.960  17.904  0.00  0.00    +0.000 A 
ATOM     14  C   UNL     1      38.143   6.696  17.476  0.00  0.00    +0.000 A 
BRANCH  12  15
ATOM     15  N   UNL     1      39.908   9.342  19.443  0.00  0.00    +0.000 NA
ATOM     16  C   UNL     1      39.268  10.050  20.484  0.00  0.00    +0.000 C 
ATOM     17  C   UNL     1      39.753  11.355  21.014  0.00  0.00    +0.000 C 
ATOM     18  O   UNL     1      38.217   9.513  20.974  0.00  0.00    +0.000 OA
ENDBRANCH  12  15
ENDBRANCH   8   9
ENDBRANCH   3   7
BRANCH   1  19
ATOM     19  O   UNL     1      37.848  -0.140  14.060  0.00  0.00    +0.000 OA
BRANCH  19  21
ATOM     20  C   UNL     1      39.485  -1.374  15.257  0.00  0.00    +0.000 C 
ATOM     21  C   UNL     1      39.225  -0.435  14.095  0.00  0.00    +0.000 C 
ENDBRANCH  19  21
ENDBRANCH   1  19
BRANCH   6  22
ATOM     22  O   UNL     1      35.672  -1.178  15.293  0.00  0.00    +0.000 OA
BRANCH  22  23
ATOM     23  C   UNL     1      35.256  -2.070  16.292  0.00  0.00    +0.000 C 
BRANCH  23  24
ATOM     24  C   UNL     1      36.441  -2.754  16.898  0.00  0.00    +0.000 A 
ATOM     25  C   UNL     1      36.924  -3.921  16.343  0.00  0.00    +0.000 A 
ATOM     26  C   UNL     1      38.016  -4.529  16.921  0.00  0.00    +0.000 A 
ATOM     27  C   UNL     1      38.592  -3.955  18.034  0.00  0.00    +0.000 A 
ATOM     28  C   UNL     1      38.098  -2.785  18.581  0.00  0.00    +0.000 A 
ATOM     29  C   UNL     1      37.016  -2.171  18.018  0.00  0.00    +0.000 A 
ENDBRANCH  23  24
ENDBRANCH  22  23
ENDBRANCH   6  22
TORSDOF 8
ENDMDL
MODEL 4
REMARK VINA RESULT:      -6.7      2.663     10.332
REMARK  Name = 
REMARK  8 active torsions:
REMARK  status: ('A' for Active; 'I' for Inactive)
REMARK    1  A    between atoms: C_2  and  O_3
REMARK    2  A    between atoms: O_3  and  C_4
REMARK    3  A    between atoms: C_6  and  C_7
REMARK    4  A    between atoms: N_8  and  C_9
REMARK    5  A    between atoms: C_12  and  N_13
REMARK    6  A    between atoms: C_21  and  O_22
REMARK    7  A    between atoms: O_22  and  C_23
REMARK    8  A    between atoms: C_23  and  C_24
REMARK                            x       y       z     vdW  Elec       q    Type
REMARK                         _______ _______ _______ _____ _____    ______ ____
ROOT
ATOM      1  C   UNL     1      39.081   5.844  17.039  0.00  0.00    +0.000 A 
ATOM      2  C   UNL     1      38.598   4.559  16.930  0.00  0.00    +0.000 A 
ATOM      3  C   UNL     1      37.698   4.199  15.967  0.00  0.00    +0.000 A 
ATOM      4  C   UNL     1      37.264   5.181  15.071  0.00  0.00    +0.000 A 
ATOM      5  C   UNL     1      37.752   6.463  15.189  0.00  0.00    +0.000 A 
ATOM      6  C   UNL     1      38.660   6.832  16.157  0.00  0.00    +0.000 A 
ENDROOT
BRANCH   3   7
ATOM      7  C   UNL     1      37.147   2.876  15.790  0.00  0.00    +0.000 C 
ATOM      8  N   UNL     1      36.855   2.057  16.717  0.00  0.00    +0.000 NA
BRANCH   8   9
ATOM      9  C   UNL     1      36.315   0.761  16.506  0.00  0.00    +0.000 A 
ATOM     10  C   UNL     1      36.840   0.006  15.484  0.00  0.00    +0.000 A 
ATOM     11  C   UNL     1      36.362  -1.274  15.215  0.00  0.00    +0.000 A 
ATOM     12  C   UNL     1      35.337  -1.799  15.992  0.00  0.00    +0.000 A 
ATOM     13  C   UNL     1      34.818  -1.050  17.004  0.00  0.00    +0.000 A 
ATOM     14  C   UNL     1      35.301   0.238  17.271  0.00  0.00    +0.000 A 
BRANCH  12  15
ATOM     15  N   UNL     1      34.902  -3.113  15.658  0.00  0.00    +0.000 NA
ATOM     16  C   UNL     1      35.606  -4.275  16.045  0.00  0.00    +0.000 C 
ATOM     17  C   UNL     1      35.167  -5.657  15.705  0.00  0.00    +0.000 C 
ATOM     18  O   UNL     1      36.675  -4.093  16.721  0.00  0.00    +0.000 OA
ENDBRANCH  12  15
ENDBRANCH   8   9
ENDBRANCH   3   7
BRANCH   1  19
ATOM     19  O   UNL     1      39.996   6.225  18.013  0.00  0.00    +0.000 OA
BRANCH  19  21
ATOM     20  C   UNL     1      40.989   6.469  20.155  0.00  0.00    +0.000 C 
ATOM     21  C   UNL     1      39.755   6.036  19.388  0.00  0.00    +0.000 C 
ENDBRANCH  19  21
ENDBRANCH   1  19
BRANCH   6  22
ATOM     22  O   UNL     1      39.161   8.134  16.283  0.00  0.00    +0.000 OA
BRANCH  22  23
ATOM     23  C   UNL     1      38.317   9.155  16.741  0.00  0.00    +0.000 C 
BRANCH  23  24
ATOM     24  C   UNL     1      38.409   9.269  18.231  0.00  0.00    +0.000 A 
ATOM     25  C   UNL     1      37.377   8.809  19.024  0.00  0.00    +0.000 A 
ATOM     26  C   UNL     1      37.489   8.927  20.391  0.00  0.00    +0.000 A 
ATOM     27  C   UNL     1      38.623   9.500  20.926  0.00  0.00    +0.000 A 
ATOM     28  C   UNL     1      39.650   9.958  20.119  0.00  0.00    +0.000 A 
ATOM     29  C   UNL     1      39.553   9.847  18.761  0.00  0.00    +0.000 A 
ENDBRANCH  23  24
ENDBRANCH  22  23
ENDBRANCH   6  22
TORSDOF 8
ENDMDL
MODEL 5
REMARK VINA RESULT:      -6.7      1.545      2.868
REMARK  Name = 
REMARK  8 active torsions:
REMARK  status: ('A' for Active; 'I' for Inactive)
REMARK    1  A    between atoms: C_2  and  O_3
REMARK    2  A    between atoms: O_3  and  C_4
REMARK    3  A    between atoms: C_6  and  C_7
REMARK    4  A    between atoms: N_8  and  C_9
REMARK    5  A    between atoms: C_12  and  N_13
REMARK    6  A    between atoms: C_21  and  O_22
REMARK    7  A    between atoms: O_22  and  C_23
REMARK    8  A    between atoms: C_23  and  C_24
REMARK                            x       y       z     vdW  Elec       q    Type
REMARK                         _______ _______ _______ _____ _____    ______ ____
ROOT
ATOM      1  C   UNL     1      37.312   0.190  14.934  0.00  0.00    +0.000 A 
ATOM      2  C   UNL     1      37.618   1.470  15.341  0.00  0.00    +0.000 A 
ATOM      3  C   UNL     1      36.893   2.123  16.297  0.00  0.00    +0.000 A 
ATOM      4  C   UNL     1      35.807   1.454  16.871  0.00  0.00    +0.000 A 
ATOM      5  C   UNL     1      35.509   0.175  16.458  0.00  0.00    +0.000 A 
ATOM      6  C   UNL     1      36.237  -0.489  15.494  0.00  0.00    +0.000 A 
ENDROOT
BRANCH   3   7
ATOM      7  C   UNL     1      37.151   3.461  16.774  0.00  0.00    +0.000 C 
ATOM      8  N   UNL     1      38.285   3.932  17.103  0.00  0.00    +0.000 NA
BRANCH   8   9
ATOM      9  C   UNL     1      38.502   5.255  17.569  0.00  0.00    +0.000 A 
ATOM     10  C   UNL     1      39.072   5.413  18.810  0.00  0.00    +0.000 A 
ATOM     11  C   UNL     1      39.316   6.679  19.335  0.00  0.00    +0.000 A 
ATOM     12  C   UNL     1      38.980   7.804  18.593  0.00  0.00    +0.000 A 
ATOM     13  C   UNL     1      38.415   7.646  17.364  0.00  0.00    +0.000 A 
ATOM     14  C   UNL     1      38.171   6.371  16.840  0.00  0.00    +0.000 A 
BRANCH  12  15
ATOM     15  N   UNL     1      39.260   9.063  19.195  0.00  0.00    +0.000 NA
ATOM     16  C   UNL     1      38.433   9.643  20.182  0.00  0.00    +0.000 C 
ATOM     17  C   UNL     1      38.710  10.958  20.823  0.00  0.00    +0.000 C 
ATOM     18  O   UNL     1      37.397   8.974  20.519  0.00  0.00    +0.000 OA
ENDBRANCH  12  15
ENDBRANCH   8   9
ENDBRANCH   3   7
BRANCH   1  19
ATOM     19  O   UNL     1      38.041  -0.487  13.964  0.00  0.00    +0.000 OA
BRANCH  19  21
ATOM     20  C   UNL     1      39.766  -1.621  15.135  0.00  0.00    +0.000 C 
ATOM     21  C   UNL     1      39.440  -0.629  14.035  0.00  0.00    +0.000 C 
ENDBRANCH  19  21
ENDBRANCH   1  19
BRANCH   6  22
ATOM     22  O   UNL     1      35.940  -1.790  15.070  0.00  0.00    +0.000 OA
BRANCH  22  23
ATOM     23  C   UNL     1      36.291  -2.877  15.883  0.00  0.00    +0.000 C 
BRANCH  23  24
ATOM     24  C   UNL     1      35.322  -4.001  15.687  0.00  0.00    +0.000 A 
ATOM     25  C   UNL     1      34.027  -3.736  15.291  0.00  0.00    +0.000 A 
ATOM     26  C   UNL     1      33.157  -4.789  15.118  0.00  0.00    +0.000 A 
ATOM     27  C   UNL     1      33.604  -6.073  15.347  0.00  0.00    +0.000 A 
ATOM     28  C   UNL     1      34.905  -6.326  15.745  0.00  0.00    +0.000 A 
ATOM     29  C   UNL     1      35.779  -5.290  15.920  0.00  0.00    +0.000 A 
ENDBRANCH  23  24
ENDBRANCH  22  23
ENDBRANCH   6  22
TORSDOF 8
ENDMDL
MODEL 6
REMARK VINA RESULT:      -6.6      1.693      2.815
REMARK  Name = 
REMARK  8 active torsions:
REMARK  status: ('A' for Active; 'I' for Inactive)
REMARK    1  A    between atoms: C_2  and  O_3
REMARK    2  A    between atoms: O_3  and  C_4
REMARK    3  A    between atoms: C_6  and  C_7
REMARK    4  A    between atoms: N_8  and  C_9
REMARK    5  A    between atoms: C_12  and  N_13
REMARK    6  A    between atoms: C_21  and  O_22
REMARK    7  A    between atoms: O_22  and  C_23
REMARK    8  A    between atoms: C_23  and  C_24
REMARK                            x       y       z     vdW  Elec       q    Type
REMARK                         _______ _______ _______ _____ _____    ______ ____
ROOT
ATOM      1  C   UNL     1      37.982   1.662  14.730  0.00  0.00    +0.000 A 
ATOM      2  C   UNL     1      38.391   2.831  15.333  0.00  0.00    +0.000 A 
ATOM      3  C   UNL     1      37.698   3.401  16.364  0.00  0.00    +0.000 A 
ATOM      4  C   UNL     1      36.536   2.761  16.808  0.00  0.00    +0.000 A 
ATOM      5  C   UNL     1      36.134   1.594  16.198  0.00  0.00    +0.000 A 
ATOM      6  C   UNL     1      36.830   1.015  15.159  0.00  0.00    +0.000 A 
ENDROOT
BRANCH   3   7
ATOM      7  C   UNL     1      38.064   4.620  17.044  0.00  0.00    +0.000 C 
ATOM      8  N   UNL     1      38.734   4.705  18.120  0.00  0.00    +0.000 NA
BRANCH   8   9
ATOM      9  C   UNL     1      39.076   5.923  18.763  0.00  0.00    +0.000 A 
ATOM     10  C   UNL     1      38.286   7.022  18.516  0.00  0.00    +0.000 A 
ATOM     11  C   UNL     1      38.559   8.252  19.109  0.00  0.00    +0.000 A 
ATOM     12  C   UNL     1      39.646   8.373  19.965  0.00  0.00    +0.000 A 
ATOM     13  C   UNL     1      40.427   7.285  20.208  0.00  0.00    +0.000 A 
ATOM     14  C   UNL     1      40.150   6.049  19.609  0.00  0.00    +0.000 A 
BRANCH  12  15
ATOM     15  N   UNL     1      39.860   9.661  20.534  0.00  0.00    +0.000 NA
ATOM     16  C   UNL     1      40.709  10.626  19.948  0.00  0.00    +0.000 C 
ATOM     17  C   UNL     1      40.945  11.978  20.527  0.00  0.00    +0.000 C 
ATOM     18  O   UNL     1      41.291  10.287  18.862  0.00  0.00    +0.000 OA
ENDBRANCH  12  15
ENDBRANCH   8   9
ENDBRANCH   3   7
BRANCH   1  19
ATOM     19  O   UNL     1      38.676   1.072  13.681  0.00  0.00    +0.000 OA
BRANCH  19  21
ATOM     20  C   UNL     1      40.330  -0.426  14.491  0.00  0.00    +0.000 C 
ATOM     21  C   UNL     1      40.068   0.857  13.727  0.00  0.00    +0.000 C 
ENDBRANCH  19  21
ENDBRANCH   1  19
BRANCH   6  22
ATOM     22  O   UNL     1      36.427  -0.172  14.534  0.00  0.00    +0.000 OA
BRANCH  22  23
ATOM     23  C   UNL     1      35.913  -1.219  15.313  0.00  0.00    +0.000 C 
BRANCH  23  24
ATOM     24  C   UNL     1      37.028  -1.945  15.999  0.00  0.00    +0.000 A 
ATOM     25  C   UNL     1      37.316  -1.678  17.322  0.00  0.00    +0.000 A 
ATOM     26  C   UNL     1      38.347  -2.361  17.927  0.00  0.00    +0.000 A 
ATOM     27  C   UNL     1      39.058  -3.289  17.197  0.00  0.00    +0.000 A 
ATOM     28  C   UNL     1      38.759  -3.548  15.872  0.00  0.00    +0.000 A 
ATOM     29  C   UNL     1      37.739  -2.877  15.258  0.00  0.00    +0.000 A 
ENDBRANCH  23  24
ENDBRANCH  22  23
ENDBRANCH   6  22
TORSDOF 8
ENDMDL
MODEL 7
REMARK VINA RESULT:      -6.6     25.234     28.967
REMARK  Name = 
REMARK  8 active torsions:
REMARK  status: ('A' for Active; 'I' for Inactive)
REMARK    1  A    between atoms: C_2  and  O_3
REMARK    2  A    between atoms: O_3  and  C_4
REMARK    3  A    between atoms: C_6  and  C_7
REMARK    4  A    between atoms: N_8  and  C_9
REMARK    5  A    between atoms: C_12  and  N_13
REMARK    6  A    between atoms: C_21  and  O_22
REMARK    7  A    between atoms: O_22  and  C_23
REMARK    8  A    between atoms: C_23  and  C_24
REMARK                            x       y       z     vdW  Elec       q    Type
REMARK                         _______ _______ _______ _____ _____    ______ ____
ROOT
ATOM      1  C   UNL     1      27.769  15.247  38.649  0.00  0.00    +0.000 A 
ATOM      2  C   UNL     1      27.774  14.295  39.645  0.00  0.00    +0.000 A 
ATOM      3  C   UNL     1      26.627  13.699  40.087  0.00  0.00    +0.000 A 
ATOM      4  C   UNL     1      25.417  14.079  39.496  0.00  0.00    +0.000 A 
ATOM      5  C   UNL     1      25.423  15.031  38.502  0.00  0.00    +0.000 A 
ATOM      6  C   UNL     1      26.577  15.636  38.052  0.00  0.00    +0.000 A 
ENDROOT
BRANCH   3   7
ATOM      7  C   UNL     1      26.552  12.697  41.124  0.00  0.00    +0.000 C 
ATOM      8  N   UNL     1      26.619  11.439  40.955  0.00  0.00    +0.000 NA
BRANCH   8   9
ATOM      9  C   UNL     1      26.542  10.481  42.000  0.00  0.00    +0.000 A 
ATOM     10  C   UNL     1      26.789   9.166  41.683  0.00  0.00    +0.000 A 
ATOM     11  C   UNL     1      26.731   8.169  42.653  0.00  0.00    +0.000 A 
ATOM     12  C   UNL     1      26.419   8.507  43.964  0.00  0.00    +0.000 A 
ATOM     13  C   UNL     1      26.174   9.810  44.276  0.00  0.00    +0.000 A 
ATOM     14  C   UNL     1      26.232  10.810  43.297  0.00  0.00    +0.000 A 
BRANCH  12  15
ATOM     15  N   UNL     1      26.380   7.434  44.900  0.00  0.00    +0.000 NA
ATOM     16  C   UNL     1      25.184   6.778  45.264  0.00  0.00    +0.000 C 
ATOM     17  C   UNL     1      25.122   5.655  46.240  0.00  0.00    +0.000 C 
ATOM     18  O   UNL     1      24.113   7.199  44.708  0.00  0.00    +0.000 OA
ENDBRANCH  12  15
ENDBRANCH   8   9
ENDBRANCH   3   7
BRANCH   1  19
ATOM     19  O   UNL     1      28.927  15.863  38.189  0.00  0.00    +0.000 OA
BRANCH  19  21
ATOM     20  C   UNL     1      29.630  15.151  36.037  0.00  0.00    +0.000 C 
ATOM     21  C   UNL     1      29.943  15.151  37.520  0.00  0.00    +0.000 C 
ENDBRANCH  19  21
ENDBRANCH   1  19
BRANCH   6  22
ATOM     22  O   UNL     1      26.590  16.605  37.041  0.00  0.00    +0.000 OA
BRANCH  22  23
ATOM     23  C   UNL     1      25.394  16.934  36.387  0.00  0.00    +0.000 C 
BRANCH  23  24
ATOM     24  C   UNL     1      25.367  16.320  35.022  0.00  0.00    +0.000 A 
ATOM     25  C   UNL     1      25.798  15.022  34.839  0.00  0.00    +0.000 A 
ATOM     26  C   UNL     1      25.762  14.483  33.573  0.00  0.00    +0.000 A 
ATOM     27  C   UNL     1      25.298  15.254  32.528  0.00  0.00    +0.000 A 
ATOM     28  C   UNL     1      24.870  16.555  32.724  0.00  0.00    +0.000 A 
ATOM     29  C   UNL     1      24.899  17.102  33.976  0.00  0.00    +0.000 A 
ENDBRANCH  23  24
ENDBRANCH  22  23
ENDBRANCH   6  22
TORSDOF 8
ENDMDL
MODEL 8
REMARK VINA RESULT:      -6.5      1.748      2.856
REMARK  Name = 
REMARK  8 active torsions:
REMARK  status: ('A' for Active; 'I' for Inactive)
REMARK    1  A    between atoms: C_2  and  O_3
REMARK    2  A    between atoms: O_3  and  C_4
REMARK    3  A    between atoms: C_6  and  C_7
REMARK    4  A    between atoms: N_8  and  C_9
REMARK    5  A    between atoms: C_12  and  N_13
REMARK    6  A    between atoms: C_21  and  O_22
REMARK    7  A    between atoms: O_22  and  C_23
REMARK    8  A    between atoms: C_23  and  C_24
REMARK                            x       y       z     vdW  Elec       q    Type
REMARK                         _______ _______ _______ _____ _____    ______ ____
ROOT
ATOM      1  C   UNL     1      37.721   1.482  14.415  0.00  0.00    +0.000 A 
ATOM      2  C   UNL     1      38.034   2.670  15.038  0.00  0.00    +0.000 A 
ATOM      3  C   UNL     1      37.414   3.076  16.186  0.00  0.00    +0.000 A 
ATOM      4  C   UNL     1      36.431   2.244  16.733  0.00  0.00    +0.000 A 
ATOM      5  C   UNL     1      36.125   1.059  16.103  0.00  0.00    +0.000 A 
ATOM      6  C   UNL     1      36.748   0.644  14.945  0.00  0.00    +0.000 A 
ENDROOT
BRANCH   3   7
ATOM      7  C   UNL     1      37.687   4.304  16.895  0.00  0.00    +0.000 C 
ATOM      8  N   UNL     1      38.639   4.500  17.712  0.00  0.00    +0.000 NA
BRANCH   8   9
ATOM      9  C   UNL     1      38.878   5.723  18.392  0.00  0.00    +0.000 A 
ATOM     10  C   UNL     1      39.894   5.754  19.319  0.00  0.00    +0.000 A 
ATOM     11  C   UNL     1      40.187   6.916  20.027  0.00  0.00    +0.000 A 
ATOM     12  C   UNL     1      39.444   8.066  19.793  0.00  0.00    +0.000 A 
ATOM     13  C   UNL     1      38.438   8.034  18.875  0.00  0.00    +0.000 A 
ATOM     14  C   UNL     1      38.145   6.862  18.166  0.00  0.00    +0.000 A 
BRANCH  12  15
ATOM     15  N   UNL     1      39.803   9.215  20.553  0.00  0.00    +0.000 NA
ATOM     16  C   UNL     1      40.818  10.112  20.153  0.00  0.00    +0.000 C 
ATOM     17  C   UNL     1      41.208  11.319  20.934  0.00  0.00    +0.000 C 
ATOM     18  O   UNL     1      41.415   9.842  19.056  0.00  0.00    +0.000 OA
ENDBRANCH  12  15
ENDBRANCH   8   9
ENDBRANCH   3   7
BRANCH   1  19
ATOM     19  O   UNL     1      38.343   1.056  13.248  0.00  0.00    +0.000 OA
BRANCH  19  21
ATOM     20  C   UNL     1      37.126   0.877  11.218  0.00  0.00    +0.000 C 
ATOM     21  C   UNL     1      38.132   1.691  12.008  0.00  0.00    +0.000 C 
ENDBRANCH  19  21
ENDBRANCH   1  19
BRANCH   6  22
ATOM     22  O   UNL     1      36.442  -0.560  14.299  0.00  0.00    +0.000 OA
BRANCH  22  23
ATOM     23  C   UNL     1      36.802  -1.774  14.901  0.00  0.00    +0.000 C 
BRANCH  23  24
ATOM     24  C   UNL     1      38.200  -2.145  14.515  0.00  0.00    +0.000 A 
ATOM     25  C   UNL     1      39.193  -2.188  15.472  0.00  0.00    +0.000 A 
ATOM     26  C   UNL     1      40.470  -2.532  15.089  0.00  0.00    +0.000 A 
ATOM     27  C   UNL     1      40.718  -2.822  13.764  0.00  0.00    +0.000 A 
ATOM     28  C   UNL     1      39.714  -2.774  12.814  0.00  0.00    +0.000 A 
ATOM     29  C   UNL     1      38.442  -2.435  13.180  0.00  0.00    +0.000 A 
ENDBRANCH  23  24
ENDBRANCH  22  23
ENDBRANCH   6  22
TORSDOF 8
ENDMDL
MODEL 9
REMARK VINA RESULT:      -6.4      4.733      6.353
REMARK  Name = 
REMARK  8 active torsions:
REMARK  status: ('A' for Active; 'I' for Inactive)
REMARK    1  A    between atoms: C_2  and  O_3
REMARK    2  A    between atoms: O_3  and  C_4
REMARK    3  A    between atoms: C_6  and  C_7
REMARK    4  A    between atoms: N_8  and  C_9
REMARK    5  A    between atoms: C_12  and  N_13
REMARK    6  A    between atoms: C_21  and  O_22
REMARK    7  A    between atoms: O_22  and  C_23
REMARK    8  A    between atoms: C_23  and  C_24
REMARK                            x       y       z     vdW  Elec       q    Type
REMARK                         _______ _______ _______ _____ _____    ______ ____
ROOT
ATOM      1  C   UNL     1      36.856   0.814  15.865  0.00  0.00    +0.000 A 
ATOM      2  C   UNL     1      36.787   1.854  14.964  0.00  0.00    +0.000 A 
ATOM      3  C   UNL     1      35.753   2.748  14.962  0.00  0.00    +0.000 A 
ATOM      4  C   UNL     1      34.742   2.586  15.914  0.00  0.00    +0.000 A 
ATOM      5  C   UNL     1      34.819   1.543  16.809  0.00  0.00    +0.000 A 
ATOM      6  C   UNL     1      35.859   0.639  16.816  0.00  0.00    +0.000 A 
ENDROOT
BRANCH   3   7
ATOM      7  C   UNL     1      35.612   3.860  14.052  0.00  0.00    +0.000 C 
ATOM      8  N   UNL     1      36.483   4.258  13.216  0.00  0.00    +0.000 NA
BRANCH   8   9
ATOM      9  C   UNL     1      36.310   5.358  12.336  0.00  0.00    +0.000 A 
ATOM     10  C   UNL     1      35.189   6.138  12.497  0.00  0.00    +0.000 A 
ATOM     11  C   UNL     1      34.949   7.233  11.671  0.00  0.00    +0.000 A 
ATOM     12  C   UNL     1      35.858   7.545  10.667  0.00  0.00    +0.000 A 
ATOM     13  C   UNL     1      36.967   6.771  10.509  0.00  0.00    +0.000 A 
ATOM     14  C   UNL     1      37.204   5.670  11.341  0.00  0.00    +0.000 A 
BRANCH  12  15
ATOM     15  N   UNL     1      35.546   8.679   9.865  0.00  0.00    +0.000 NA
ATOM     16  C   UNL     1      34.800   8.590   8.669  0.00  0.00    +0.000 C 
ATOM     17  C   UNL     1      34.463   9.764   7.816  0.00  0.00    +0.000 C 
ATOM     18  O   UNL     1      34.408   7.422   8.329  0.00  0.00    +0.000 OA
ENDBRANCH  12  15
ENDBRANCH   8   9
ENDBRANCH   3   7
BRANCH   1  19
ATOM     19  O   UNL     1      37.900  -0.103  15.879  0.00  0.00    +0.000 OA
BRANCH  19  21
ATOM     20  C   UNL     1      37.829  -1.469  13.940  0.00  0.00    +0.000 C 
ATOM     21  C   UNL     1      38.623  -0.438  14.717  0.00  0.00    +0.000 C 
ENDBRANCH  19  21
ENDBRANCH   1  19
BRANCH   6  22
ATOM     22  O   UNL     1      35.945  -0.424  17.724  0.00  0.00    +0.000 OA
BRANCH  22  23
ATOM     23  C   UNL     1      34.993  -1.452  17.672  0.00  0.00    +0.000 C 
BRANCH  23  24
ATOM     24  C   UNL     1      35.502  -2.582  16.832  0.00  0.00    +0.000 A 
ATOM     25  C   UNL     1      36.688  -3.207  17.159  0.00  0.00    +0.000 A 
ATOM     26  C   UNL     1      37.131  -4.243  16.369  0.00  0.00    +0.000 A 
ATOM     27  C   UNL     1      36.381  -4.625  15.278  0.00  0.00    +0.000 A 
ATOM     28  C   UNL     1      35.193  -3.990  14.960  0.00  0.00    +0.000 A 
ATOM     29  C   UNL     1      34.740  -2.960  15.736  0.00  0.00    +0.000 A 
ENDBRANCH  23  24
ENDBRANCH  22  23
ENDBRANCH   6  22
TORSDOF 8
ENDMDL
MODEL 10
REMARK VINA RESULT:      -6.3      3.758      4.235
REMARK  Name = 
REMARK  8 active torsions:
REMARK  status: ('A' for Active; 'I' for Inactive)
REMARK    1  A    between atoms: C_2  and  O_3
REMARK    2  A    between atoms: O_3  and  C_4
REMARK    3  A    between atoms: C_6  and  C_7
REMARK    4  A    between atoms: N_8  and  C_9
REMARK    5  A    between atoms: C_12  and  N_13
REMARK    6  A    between atoms: C_21  and  O_22
REMARK    7  A    between atoms: O_22  and  C_23
REMARK    8  A    between atoms: C_23  and  C_24
REMARK                            x       y       z     vdW  Elec       q    Type
REMARK                         _______ _______ _______ _____ _____    ______ ____
ROOT
ATOM      1  C   UNL     1      36.186   0.385  15.304  0.00  0.00    +0.000 A 
ATOM      2  C   UNL     1      35.958   1.723  15.535  0.00  0.00    +0.000 A 
ATOM      3  C   UNL     1      36.242   2.682  14.604  0.00  0.00    +0.000 A 
ATOM      4  C   UNL     1      36.780   2.272  13.380  0.00  0.00    +0.000 A 
ATOM      5  C   UNL     1      37.004   0.931  13.158  0.00  0.00    +0.000 A 
ATOM      6  C   UNL     1      36.720  -0.039  14.094  0.00  0.00    +0.000 A 
ENDROOT
BRANCH   3   7
ATOM      7  C   UNL     1      36.032   4.100  14.774  0.00  0.00    +0.000 C 
ATOM      8  N   UNL     1      35.377   4.859  13.992  0.00  0.00    +0.000 NA
BRANCH   8   9
ATOM      9  C   UNL     1      35.191   6.252  14.190  0.00  0.00    +0.000 A 
ATOM     10  C   UNL     1      33.901   6.718  14.294  0.00  0.00    +0.000 A 
ATOM     11  C   UNL     1      33.638   8.071  14.488  0.00  0.00    +0.000 A 
ATOM     12  C   UNL     1      34.696   8.968  14.580  0.00  0.00    +0.000 A 
ATOM     13  C   UNL     1      35.972   8.505  14.477  0.00  0.00    +0.000 A 
ATOM     14  C   UNL     1      36.233   7.142  14.281  0.00  0.00    +0.000 A 
BRANCH  12  15
ATOM     15  N   UNL     1      34.349  10.334  14.780  0.00  0.00    +0.000 NA
ATOM     16  C   UNL     1      34.067  11.217  13.715  0.00  0.00    +0.000 C 
ATOM     17  C   UNL     1      33.703  12.649  13.904  0.00  0.00    +0.000 C 
ATOM     18  O   UNL     1      34.141  10.728  12.536  0.00  0.00    +0.000 OA
ENDBRANCH  12  15
ENDBRANCH   8   9
ENDBRANCH   3   7
BRANCH   1  19
ATOM     19  O   UNL     1      35.902  -0.601  16.241  0.00  0.00    +0.000 OA
BRANCH  19  21
ATOM     20  C   UNL     1      36.310  -1.431  18.427  0.00  0.00    +0.000 C 
ATOM     21  C   UNL     1      35.707  -0.309  17.605  0.00  0.00    +0.000 C 
ENDBRANCH  19  21
ENDBRANCH   1  19
BRANCH   6  22
ATOM     22  O   UNL     1      36.945  -1.404  13.874  0.00  0.00    +0.000 OA
BRANCH  22  23
ATOM     23  C   UNL     1      38.224  -1.935  14.096  0.00  0.00    +0.000 C 
BRANCH  23  24
ATOM     24  C   UNL     1      38.187  -2.909  15.233  0.00  0.00    +0.000 A 
ATOM     25  C   UNL     1      39.132  -2.837  16.236  0.00  0.00    +0.000 A 
ATOM     26  C   UNL     1      39.074  -3.745  17.269  0.00  0.00    +0.000 A 
ATOM     27  C   UNL     1      38.077  -4.697  17.271  0.00  0.00    +0.000 A 
ATOM     28  C   UNL     1      37.136  -4.760  16.258  0.00  0.00    +0.000 A 
ATOM     29  C   UNL     1      37.181  -3.865  15.227  0.00  0.00    +0.000 A 
ENDBRANCH  23  24
ENDBRANCH  22  23
ENDBRANCH   6  22
TORSDOF 8
ENDMDL
