MODEL 1
REMARK VINA RESULT:      -8.6      0.000      0.000
REMARK  Name = 
REMARK  7 active torsions:
REMARK  status: ('A' for Active; 'I' for Inactive)
REMARK    1  A    between atoms: O_2  and  C_3
REMARK    2  A    between atoms: C_8  and  C_9
REMARK    3  A    between atoms: C_12  and  C_13
REMARK    4  A    between atoms: C_19  and  C_20
REMARK    5  A    between atoms: N_22  and  C_23
REMARK    6  A    between atoms: C_23  and  C_24
REMARK    7  A    between atoms: C_27  and  C_28
REMARK                            x       y       z     vdW  Elec       q    Type
REMARK                         _______ _______ _______ _____ _____    ______ ____
ROOT
ATOM      1  C   UNL     1      37.847  -0.626  13.075  0.00  0.00    +0.000 C 
ATOM      2  O   UNL     1      37.401  -2.067  13.383  0.00  0.00    +0.000 OA
ATOM      3  N   UNL     1      38.053  -2.237  14.557  0.00  0.00    +0.000 NA
ATOM      4  C   UNL     1      37.547  -1.110  15.315  0.00  0.00    +0.000 C 
ATOM      5  C   UNL     1      37.379  -0.099  14.556  0.00  0.00    +0.000 C 
ENDROOT
BRANCH   1  11
ATOM      6  C   UNL     1      40.120  -1.765  12.722  0.00  0.00    +0.000 A 
ATOM      7  C   UNL     1      41.468  -1.902  13.070  0.00  0.00    +0.000 A 
ATOM      8  C   UNL     1      42.051  -1.135  14.046  0.00  0.00    +0.000 A 
ATOM      9  C   UNL     1      41.267  -0.190  14.715  0.00  0.00    +0.000 A 
ATOM     10  C   UNL     1      39.948  -0.065  14.365  0.00  0.00    +0.000 A 
ATOM     11  C   UNL     1      39.396  -0.823  13.404  0.00  0.00    +0.000 A 
BRANCH   6  13
ATOM     12  C   UNL     1      40.231  -2.618  10.472  0.00  0.00    +0.000 C 
ATOM     13  O   UNL     1      39.623  -2.575  11.729  0.00  0.00    +0.000 OA
ENDBRANCH   6  13
ENDBRANCH   1  11
BRANCH   4  14
ATOM     14  C   UNL     1      37.275  -1.106  16.763  0.00  0.00    +0.000 A 
ATOM     15  C   UNL     1      38.212  -1.866  17.498  0.00  0.00    +0.000 A 
ATOM     16  C   UNL     1      38.123  -1.985  18.862  0.00  0.00    +0.000 A 
ATOM     17  C   UNL     1      37.082  -1.330  19.489  0.00  0.00    +0.000 A 
ATOM     18  C   UNL     1      36.150  -0.577  18.774  0.00  0.00    +0.000 A 
ATOM     19  C   UNL     1      36.277  -0.485  17.400  0.00  0.00    +0.000 A 
ENDBRANCH   4  14
BRANCH   5  20
ATOM     20  C   UNL     1      36.805   1.226  14.689  0.00  0.00    +0.000 C 
ATOM     21  O   UNL     1      35.655   1.423  14.280  0.00  0.00    +0.000 OA
ATOM     22  N   UNL     1      37.460   2.314  15.277  0.00  0.00    +0.000 NA
BRANCH  22  23
ATOM     23  C   UNL     1      37.196   3.637  15.541  0.00  0.00    +0.000 C 
BRANCH  23  24
ATOM     24  C   UNL     1      38.145   4.301  16.436  0.00  0.00    +0.000 A 
ATOM     25  C   UNL     1      38.115   4.380  17.788  0.00  0.00    +0.000 A 
ATOM     26  C   UNL     1      39.048   5.129  18.498  0.00  0.00    +0.000 A 
ATOM     27  C   UNL     1      40.043   5.824  17.849  0.00  0.00    +0.000 A 
ATOM     28  C   UNL     1      40.051   5.722  16.469  0.00  0.00    +0.000 A 
ATOM     29  C   UNL     1      39.157   5.000  15.760  0.00  0.00    +0.000 A 
BRANCH  27  30
ATOM     30  C   UNL     1      41.045   6.696  18.516  0.00  0.00    +0.000 C 
ATOM     31  C   UNL     1      41.101   6.378  19.999  0.00  0.00    +0.000 C 
ATOM     32  C   UNL     1      42.416   6.537  17.889  0.00  0.00    +0.000 C 
ATOM     33  C   UNL     1      40.626   8.149  18.416  0.00  0.00    +0.000 C 
ENDBRANCH  27  30
ENDBRANCH  23  24
ENDBRANCH  22  23
ENDBRANCH   5  20
TORSDOF 7
ENDMDL
MODEL 2
REMARK VINA RESULT:      -8.3      2.013      4.467
REMARK  Name = 
REMARK  7 active torsions:
REMARK  status: ('A' for Active; 'I' for Inactive)
REMARK    1  A    between atoms: O_2  and  C_3
REMARK    2  A    between atoms: C_8  and  C_9
REMARK    3  A    between atoms: C_12  and  C_13
REMARK    4  A    between atoms: C_19  and  C_20
REMARK    5  A    between atoms: N_22  and  C_23
REMARK    6  A    between atoms: C_23  and  C_24
REMARK    7  A    between atoms: C_27  and  C_28
REMARK                            x       y       z     vdW  Elec       q    Type
REMARK                         _______ _______ _______ _____ _____    ______ ____
ROOT
ATOM      1  C   UNL     1      36.613  -0.310  16.597  0.00  0.00    +0.000 C 
ATOM      2  O   UNL     1      37.548  -1.007  17.603  0.00  0.00    +0.000 OA
ATOM      3  N   UNL     1      38.186  -1.840  16.747  0.00  0.00    +0.000 NA
ATOM      4  C   UNL     1      38.693  -0.893  15.774  0.00  0.00    +0.000 C 
ATOM      5  C   UNL     1      37.861   0.057  15.598  0.00  0.00    +0.000 C 
ENDROOT
BRANCH   1  11
ATOM      6  C   UNL     1      35.121  -2.388  16.383  0.00  0.00    +0.000 A 
ATOM      7  C   UNL     1      34.749  -3.538  15.680  0.00  0.00    +0.000 A 
ATOM      8  C   UNL     1      35.348  -3.899  14.499  0.00  0.00    +0.000 A 
ATOM      9  C   UNL     1      36.367  -3.089  13.989  0.00  0.00    +0.000 A 
ATOM     10  C   UNL     1      36.723  -1.964  14.687  0.00  0.00    +0.000 A 
ATOM     11  C   UNL     1      36.121  -1.626  15.839  0.00  0.00    +0.000 A 
BRANCH   6  13
ATOM     12  C   UNL     1      33.114  -1.741  17.547  0.00  0.00    +0.000 C 
ATOM     13  O   UNL     1      34.463  -2.106  17.555  0.00  0.00    +0.000 OA
ENDBRANCH   6  13
ENDBRANCH   1  11
BRANCH   4  14
ATOM     14  C   UNL     1      39.978  -1.004  15.061  0.00  0.00    +0.000 A 
ATOM     15  C   UNL     1      40.421  -2.341  14.937  0.00  0.00    +0.000 A 
ATOM     16  C   UNL     1      41.599  -2.647  14.306  0.00  0.00    +0.000 A 
ATOM     17  C   UNL     1      42.337  -1.597  13.795  0.00  0.00    +0.000 A 
ATOM     18  C   UNL     1      41.911  -0.274  13.913  0.00  0.00    +0.000 A 
ATOM     19  C   UNL     1      40.716  -0.011  14.557  0.00  0.00    +0.000 A 
ENDBRANCH   4  14
BRANCH   5  20
ATOM     20  C   UNL     1      37.848   1.318  14.880  0.00  0.00    +0.000 C 
ATOM     21  O   UNL     1      37.469   1.331  13.703  0.00  0.00    +0.000 OA
ATOM     22  N   UNL     1      38.219   2.546  15.438  0.00  0.00    +0.000 NA
BRANCH  22  23
ATOM     23  C   UNL     1      38.310   3.857  15.035  0.00  0.00    +0.000 C 
BRANCH  23  24
ATOM     24  C   UNL     1      38.853   4.784  16.031  0.00  0.00    +0.000 A 
ATOM     25  C   UNL     1      39.714   5.814  15.843  0.00  0.00    +0.000 A 
ATOM     26  C   UNL     1      40.213   6.553  16.911  0.00  0.00    +0.000 A 
ATOM     27  C   UNL     1      39.851   6.264  18.207  0.00  0.00    +0.000 A 
ATOM     28  C   UNL     1      38.968   5.210  18.368  0.00  0.00    +0.000 A 
ATOM     29  C   UNL     1      38.470   4.480  17.347  0.00  0.00    +0.000 A 
BRANCH  27  30
ATOM     30  C   UNL     1      40.376   6.958  19.411  0.00  0.00    +0.000 C 
ATOM     31  C   UNL     1      39.222   7.458  20.263  0.00  0.00    +0.000 C 
ATOM     32  C   UNL     1      41.275   6.048  20.222  0.00  0.00    +0.000 C 
ATOM     33  C   UNL     1      41.160   8.190  19.007  0.00  0.00    +0.000 C 
ENDBRANCH  27  30
ENDBRANCH  23  24
ENDBRANCH  22  23
ENDBRANCH   5  20
TORSDOF 7
ENDMDL
MODEL 3
REMARK VINA RESULT:      -8.3      1.922      4.509
REMARK  Name = 
REMARK  7 active torsions:
REMARK  status: ('A' for Active; 'I' for Inactive)
REMARK    1  A    between atoms: O_2  and  C_3
REMARK    2  A    between atoms: C_8  and  C_9
REMARK    3  A    between atoms: C_12  and  C_13
REMARK    4  A    between atoms: C_19  and  C_20
REMARK    5  A    between atoms: N_22  and  C_23
REMARK    6  A    between atoms: C_23  and  C_24
REMARK    7  A    between atoms: C_27  and  C_28
REMARK                            x       y       z     vdW  Elec       q    Type
REMARK                         _______ _______ _______ _____ _____    ______ ____
ROOT
ATOM      1  C   UNL     1      37.629  -1.148  16.827  0.00  0.00    +0.000 C 
ATOM      2  O   UNL     1      39.072  -1.677  16.923  0.00  0.00    +0.000 OA
ATOM      3  N   UNL     1      39.178  -2.209  15.682  0.00  0.00    +0.000 NA
ATOM      4  C   UNL     1      38.847  -1.059  14.864  0.00  0.00    +0.000 C 
ATOM      5  C   UNL     1      37.949  -0.352  15.429  0.00  0.00    +0.000 C 
ENDROOT
BRANCH   1  11
ATOM      6  C   UNL     1      37.073  -3.654  16.834  0.00  0.00    +0.000 A 
ATOM      7  C   UNL     1      36.502  -4.765  16.205  0.00  0.00    +0.000 A 
ATOM      8  C   UNL     1      35.876  -4.673  14.987  0.00  0.00    +0.000 A 
ATOM      9  C   UNL     1      35.814  -3.426  14.357  0.00  0.00    +0.000 A 
ATOM     10  C   UNL     1      36.377  -2.345  14.984  0.00  0.00    +0.000 A 
ATOM     11  C   UNL     1      36.982  -2.455  16.178  0.00  0.00    +0.000 A 
BRANCH   6  13
ATOM     12  C   UNL     1      38.561  -4.904  18.258  0.00  0.00    +0.000 C 
ATOM     13  O   UNL     1      37.676  -3.842  18.054  0.00  0.00    +0.000 OA
ENDBRANCH   6  13
ENDBRANCH   1  11
BRANCH   4  14
ATOM     14  C   UNL     1      39.439  -0.743  13.553  0.00  0.00    +0.000 A 
ATOM     15  C   UNL     1      40.652  -0.026  13.659  0.00  0.00    +0.000 A 
ATOM     16  C   UNL     1      41.353   0.363  12.546  0.00  0.00    +0.000 A 
ATOM     17  C   UNL     1      40.826   0.024  11.315  0.00  0.00    +0.000 A 
ATOM     18  C   UNL     1      39.629  -0.683  11.197  0.00  0.00    +0.000 A 
ATOM     19  C   UNL     1      38.955  -1.054  12.347  0.00  0.00    +0.000 A 
ENDBRANCH   4  14
BRANCH   5  20
ATOM     20  C   UNL     1      37.317   0.930  15.183  0.00  0.00    +0.000 C 
ATOM     21  O   UNL     1      36.358   0.985  14.404  0.00  0.00    +0.000 OA
ATOM     22  N   UNL     1      37.707   2.130  15.789  0.00  0.00    +0.000 NA
BRANCH  22  23
ATOM     23  C   UNL     1      37.325   3.450  15.765  0.00  0.00    +0.000 C 
BRANCH  23  24
ATOM     24  C   UNL     1      38.287   4.392  16.340  0.00  0.00    +0.000 A 
ATOM     25  C   UNL     1      39.276   5.075  15.714  0.00  0.00    +0.000 A 
ATOM     26  C   UNL     1      40.174   5.871  16.418  0.00  0.00    +0.000 A 
ATOM     27  C   UNL     1      40.091   5.996  17.786  0.00  0.00    +0.000 A 
ATOM     28  C   UNL     1      39.069   5.291  18.398  0.00  0.00    +0.000 A 
ATOM     29  C   UNL     1      38.186   4.514  17.735  0.00  0.00    +0.000 A 
BRANCH  27  30
ATOM     30  C   UNL     1      41.038   6.774  18.628  0.00  0.00    +0.000 C 
ATOM     31  C   UNL     1      42.459   6.562  18.138  0.00  0.00    +0.000 C 
ATOM     32  C   UNL     1      40.692   8.249  18.624  0.00  0.00    +0.000 C 
ATOM     33  C   UNL     1      41.009   6.267  20.056  0.00  0.00    +0.000 C 
ENDBRANCH  27  30
ENDBRANCH  23  24
ENDBRANCH  22  23
ENDBRANCH   5  20
TORSDOF 7
ENDMDL
MODEL 4
REMARK VINA RESULT:      -8.1      1.477      1.927
REMARK  Name = 
REMARK  7 active torsions:
REMARK  status: ('A' for Active; 'I' for Inactive)
REMARK    1  A    between atoms: O_2  and  C_3
REMARK    2  A    between atoms: C_8  and  C_9
REMARK    3  A    between atoms: C_12  and  C_13
REMARK    4  A    between atoms: C_19  and  C_20
REMARK    5  A    between atoms: N_22  and  C_23
REMARK    6  A    between atoms: C_23  and  C_24
REMARK    7  A    between atoms: C_27  and  C_28
REMARK                            x       y       z     vdW  Elec       q    Type
REMARK                         _______ _______ _______ _____ _____    ______ ____
ROOT
ATOM      1  C   UNL     1      37.752   1.296  12.595  0.00  0.00    +0.000 C 
ATOM      2  O   UNL     1      37.077  -0.015  12.153  0.00  0.00    +0.000 OA
ATOM      3  N   UNL     1      37.580  -0.835  13.105  0.00  0.00    +0.000 NA
ATOM      4  C   UNL     1      37.167  -0.141  14.309  0.00  0.00    +0.000 C 
ATOM      5  C   UNL     1      37.221   1.122  14.137  0.00  0.00    +0.000 C 
ENDROOT
BRANCH   1  11
ATOM      6  C   UNL     1      39.874   0.116  11.761  0.00  0.00    +0.000 A 
ATOM      7  C   UNL     1      41.147  -0.403  12.020  0.00  0.00    +0.000 A 
ATOM      8  C   UNL     1      41.724  -0.335  13.263  0.00  0.00    +0.000 A 
ATOM      9  C   UNL     1      41.011   0.271  14.302  0.00  0.00    +0.000 A 
ATOM     10  C   UNL     1      39.764   0.775  14.036  0.00  0.00    +0.000 A 
ATOM     11  C   UNL     1      39.218   0.701  12.811  0.00  0.00    +0.000 A 
BRANCH   6  13
ATOM     12  C   UNL     1      39.624   0.997   9.533  0.00  0.00    +0.000 C 
ATOM     13  O   UNL     1      39.377   0.004  10.485  0.00  0.00    +0.000 OA
ENDBRANCH   6  13
ENDBRANCH   1  11
BRANCH   4  14
ATOM     14  C   UNL     1      36.757  -0.783  15.569  0.00  0.00    +0.000 A 
ATOM     15  C   UNL     1      37.838  -1.382  16.255  0.00  0.00    +0.000 A 
ATOM     16  C   UNL     1      37.655  -2.033  17.448  0.00  0.00    +0.000 A 
ATOM     17  C   UNL     1      36.372  -2.078  17.956  0.00  0.00    +0.000 A 
ATOM     18  C   UNL     1      35.296  -1.491  17.288  0.00  0.00    +0.000 A 
ATOM     19  C   UNL     1      35.527  -0.846  16.087  0.00  0.00    +0.000 A 
ENDBRANCH   4  14
BRANCH   5  20
ATOM     20  C   UNL     1      36.832   2.298  14.891  0.00  0.00    +0.000 C 
ATOM     21  O   UNL     1      35.877   2.975  14.492  0.00  0.00    +0.000 OA
ATOM     22  N   UNL     1      37.454   2.720  16.071  0.00  0.00    +0.000 NA
BRANCH  22  23
ATOM     23  C   UNL     1      37.323   3.745  16.978  0.00  0.00    +0.000 C 
BRANCH  23  24
ATOM     24  C   UNL     1      38.479   4.638  17.087  0.00  0.00    +0.000 A 
ATOM     25  C   UNL     1      39.303   5.074  16.104  0.00  0.00    +0.000 A 
ATOM     26  C   UNL     1      40.422   5.853  16.379  0.00  0.00    +0.000 A 
ATOM     27  C   UNL     1      40.736   6.214  17.670  0.00  0.00    +0.000 A 
ATOM     28  C   UNL     1      39.874   5.758  18.653  0.00  0.00    +0.000 A 
ATOM     29  C   UNL     1      38.783   5.002  18.408  0.00  0.00    +0.000 A 
BRANCH  27  30
ATOM     30  C   UNL     1      41.938   6.992  18.067  0.00  0.00    +0.000 C 
ATOM     31  C   UNL     1      41.630   8.478  18.019  0.00  0.00    +0.000 C 
ATOM     32  C   UNL     1      42.419   6.596  19.448  0.00  0.00    +0.000 C 
ATOM     33  C   UNL     1      43.061   6.768  17.073  0.00  0.00    +0.000 C 
ENDBRANCH  27  30
ENDBRANCH  23  24
ENDBRANCH  22  23
ENDBRANCH   5  20
TORSDOF 7
ENDMDL
MODEL 5
REMARK VINA RESULT:      -8.1      2.815      5.819
REMARK  Name = 
REMARK  7 active torsions:
REMARK  status: ('A' for Active; 'I' for Inactive)
REMARK    1  A    between atoms: O_2  and  C_3
REMARK    2  A    between atoms: C_8  and  C_9
REMARK    3  A    between atoms: C_12  and  C_13
REMARK    4  A    between atoms: C_19  and  C_20
REMARK    5  A    between atoms: N_22  and  C_23
REMARK    6  A    between atoms: C_23  and  C_24
REMARK    7  A    between atoms: C_27  and  C_28
REMARK                            x       y       z     vdW  Elec       q    Type
REMARK                         _______ _______ _______ _____ _____    ______ ____
ROOT
ATOM      1  C   UNL     1      38.475   3.113  15.025  0.00  0.00    +0.000 C 
ATOM      2  O   UNL     1      38.341   2.836  13.516  0.00  0.00    +0.000 OA
ATOM      3  N   UNL     1      36.996   2.950  13.406  0.00  0.00    +0.000 NA
ATOM      4  C   UNL     1      36.790   4.277  13.952  0.00  0.00    +0.000 C 
ATOM      5  C   UNL     1      37.602   4.497  14.911  0.00  0.00    +0.000 C 
ENDROOT
BRANCH   1  11
ATOM      6  C   UNL     1      37.367   0.811  15.276  0.00  0.00    +0.000 A 
ATOM      7  C   UNL     1      36.289   0.032  15.706  0.00  0.00    +0.000 A 
ATOM      8  C   UNL     1      35.198   0.578  16.334  0.00  0.00    +0.000 A 
ATOM      9  C   UNL     1      35.167   1.960  16.544  0.00  0.00    +0.000 A 
ATOM     10  C   UNL     1      36.230   2.713  16.118  0.00  0.00    +0.000 A 
ATOM     11  C   UNL     1      37.290   2.159  15.508  0.00  0.00    +0.000 A 
BRANCH   6  13
ATOM     12  C   UNL     1      38.198  -0.684  13.579  0.00  0.00    +0.000 C 
ATOM     13  O   UNL     1      38.418   0.176  14.658  0.00  0.00    +0.000 OA
ENDBRANCH   6  13
ENDBRANCH   1  11
BRANCH   4  14
ATOM     14  C   UNL     1      35.778   5.243  13.493  0.00  0.00    +0.000 A 
ATOM     15  C   UNL     1      36.006   5.688  12.171  0.00  0.00    +0.000 A 
ATOM     16  C   UNL     1      35.172   6.594  11.567  0.00  0.00    +0.000 A 
ATOM     17  C   UNL     1      34.098   7.054  12.302  0.00  0.00    +0.000 A 
ATOM     18  C   UNL     1      33.862   6.624  13.608  0.00  0.00    +0.000 A 
ATOM     19  C   UNL     1      34.730   5.710  14.178  0.00  0.00    +0.000 A 
ENDBRANCH   4  14
BRANCH   5  20
ATOM     20  C   UNL     1      37.960   5.632  15.740  0.00  0.00    +0.000 C 
ATOM     21  O   UNL     1      38.284   6.693  15.193  0.00  0.00    +0.000 OA
ATOM     22  N   UNL     1      37.943   5.623  17.139  0.00  0.00    +0.000 NA
BRANCH  22  23
ATOM     23  C   UNL     1      38.216   6.498  18.163  0.00  0.00    +0.000 C 
BRANCH  23  24
ATOM     24  C   UNL     1      39.627   6.608  18.537  0.00  0.00    +0.000 A 
ATOM     25  C   UNL     1      40.722   6.427  17.758  0.00  0.00    +0.000 A 
ATOM     26  C   UNL     1      42.009   6.478  18.284  0.00  0.00    +0.000 A 
ATOM     27  C   UNL     1      42.221   6.715  19.623  0.00  0.00    +0.000 A 
ATOM     28  C   UNL     1      41.085   6.899  20.392  0.00  0.00    +0.000 A 
ATOM     29  C   UNL     1      39.828   6.856  19.904  0.00  0.00    +0.000 A 
BRANCH  27  30
ATOM     30  C   UNL     1      43.552   6.729  20.283  0.00  0.00    +0.000 C 
ATOM     31  C   UNL     1      43.642   5.594  21.289  0.00  0.00    +0.000 C 
ATOM     32  C   UNL     1      44.672   6.624  19.268  0.00  0.00    +0.000 C 
ATOM     33  C   UNL     1      43.730   8.006  21.080  0.00  0.00    +0.000 C 
ENDBRANCH  27  30
ENDBRANCH  23  24
ENDBRANCH  22  23
ENDBRANCH   5  20
TORSDOF 7
ENDMDL
MODEL 6
REMARK VINA RESULT:      -8.1      2.916      8.194
REMARK  Name = 
REMARK  7 active torsions:
REMARK  status: ('A' for Active; 'I' for Inactive)
REMARK    1  A    between atoms: O_2  and  C_3
REMARK    2  A    between atoms: C_8  and  C_9
REMARK    3  A    between atoms: C_12  and  C_13
REMARK    4  A    between atoms: C_19  and  C_20
REMARK    5  A    between atoms: N_22  and  C_23
REMARK    6  A    between atoms: C_23  and  C_24
REMARK    7  A    between atoms: C_27  and  C_28
REMARK                            x       y       z     vdW  Elec       q    Type
REMARK                         _______ _______ _______ _____ _____    ______ ____
ROOT
ATOM      1  C   UNL     1      37.501   6.450  15.476  0.00  0.00    +0.000 C 
ATOM      2  O   UNL     1      38.677   6.878  14.579  0.00  0.00    +0.000 OA
ATOM      3  N   UNL     1      39.598   5.983  15.009  0.00  0.00    +0.000 NA
ATOM      4  C   UNL     1      38.892   4.737  14.786  0.00  0.00    +0.000 C 
ATOM      5  C   UNL     1      37.647   4.880  15.024  0.00  0.00    +0.000 C 
ENDROOT
BRANCH   1  11
ATOM      6  C   UNL     1      38.919   7.468  17.358  0.00  0.00    +0.000 A 
ATOM      7  C   UNL     1      39.636   7.311  18.548  0.00  0.00    +0.000 A 
ATOM      8  C   UNL     1      39.744   6.098  19.181  0.00  0.00    +0.000 A 
ATOM      9  C   UNL     1      39.116   4.986  18.611  0.00  0.00    +0.000 A 
ATOM     10  C   UNL     1      38.415   5.153  17.445  0.00  0.00    +0.000 A 
ATOM     11  C   UNL     1      38.319   6.350  16.842  0.00  0.00    +0.000 A 
BRANCH   6  13
ATOM     12  C   UNL     1      38.431   9.820  17.544  0.00  0.00    +0.000 C 
ATOM     13  O   UNL     1      38.864   8.722  16.797  0.00  0.00    +0.000 OA
ENDBRANCH   6  13
ENDBRANCH   1  11
BRANCH   4  14
ATOM     14  C   UNL     1      39.508   3.468  14.364  0.00  0.00    +0.000 A 
ATOM     15  C   UNL     1      40.438   3.635  13.313  0.00  0.00    +0.000 A 
ATOM     16  C   UNL     1      41.114   2.566  12.780  0.00  0.00    +0.000 A 
ATOM     17  C   UNL     1      40.851   1.320  13.313  0.00  0.00    +0.000 A 
ATOM     18  C   UNL     1      39.934   1.142  14.349  0.00  0.00    +0.000 A 
ATOM     19  C   UNL     1      39.275   2.248  14.856  0.00  0.00    +0.000 A 
ENDBRANCH   4  14
BRANCH   5  20
ATOM     20  C   UNL     1      36.452   4.072  14.870  0.00  0.00    +0.000 C 
ATOM     21  O   UNL     1      35.819   4.137  13.810  0.00  0.00    +0.000 OA
ATOM     22  N   UNL     1      35.967   3.190  15.842  0.00  0.00    +0.000 NA
BRANCH  22  23
ATOM     23  C   UNL     1      34.910   2.324  15.989  0.00  0.00    +0.000 C 
BRANCH  23  24
ATOM     24  C   UNL     1      35.257   0.901  15.973  0.00  0.00    +0.000 A 
ATOM     25  C   UNL     1      34.916  -0.060  16.865  0.00  0.00    +0.000 A 
ATOM     26  C   UNL     1      35.402  -1.359  16.762  0.00  0.00    +0.000 A 
ATOM     27  C   UNL     1      36.254  -1.721  15.743  0.00  0.00    +0.000 A 
ATOM     28  C   UNL     1      36.582  -0.719  14.845  0.00  0.00    +0.000 A 
ATOM     29  C   UNL     1      36.121   0.547  14.925  0.00  0.00    +0.000 A 
BRANCH  27  30
ATOM     30  C   UNL     1      36.869  -3.064  15.585  0.00  0.00    +0.000 C 
ATOM     31  C   UNL     1      38.287  -3.050  16.128  0.00  0.00    +0.000 C 
ATOM     32  C   UNL     1      36.047  -4.131  16.279  0.00  0.00    +0.000 C 
ATOM     33  C   UNL     1      36.990  -3.417  14.115  0.00  0.00    +0.000 C 
ENDBRANCH  27  30
ENDBRANCH  23  24
ENDBRANCH  22  23
ENDBRANCH   5  20
TORSDOF 7
ENDMDL
MODEL 7
REMARK VINA RESULT:      -8.0      1.482      1.808
REMARK  Name = 
REMARK  7 active torsions:
REMARK  status: ('A' for Active; 'I' for Inactive)
REMARK    1  A    between atoms: O_2  and  C_3
REMARK    2  A    between atoms: C_8  and  C_9
REMARK    3  A    between atoms: C_12  and  C_13
REMARK    4  A    between atoms: C_19  and  C_20
REMARK    5  A    between atoms: N_22  and  C_23
REMARK    6  A    between atoms: C_23  and  C_24
REMARK    7  A    between atoms: C_27  and  C_28
REMARK                            x       y       z     vdW  Elec       q    Type
REMARK                         _______ _______ _______ _____ _____    ______ ____
ROOT
ATOM      1  C   UNL     1      38.805   0.556  12.468  0.00  0.00    +0.000 C 
ATOM      2  O   UNL     1      37.524  -0.246  12.179  0.00  0.00    +0.000 OA
ATOM      3  N   UNL     1      37.399  -0.872  13.373  0.00  0.00    +0.000 NA
ATOM      4  C   UNL     1      37.393   0.262  14.275  0.00  0.00    +0.000 C 
ATOM      5  C   UNL     1      38.179   1.174  13.853  0.00  0.00    +0.000 C 
ENDROOT
BRANCH   1  11
ATOM      6  C   UNL     1      39.934  -1.749  12.391  0.00  0.00    +0.000 A 
ATOM      7  C   UNL     1      40.650  -2.763  13.034  0.00  0.00    +0.000 A 
ATOM      8  C   UNL     1      41.045  -2.661  14.344  0.00  0.00    +0.000 A 
ATOM      9  C   UNL     1      40.715  -1.504  15.056  0.00  0.00    +0.000 A 
ATOM     10  C   UNL     1      40.013  -0.516  14.415  0.00  0.00    +0.000 A 
ATOM     11  C   UNL     1      39.638  -0.634  13.130  0.00  0.00    +0.000 A 
BRANCH   6  13
ATOM     12  C   UNL     1      40.509  -2.429  10.153  0.00  0.00    +0.000 C 
ATOM     13  O   UNL     1      39.582  -1.939  11.076  0.00  0.00    +0.000 OA
ENDBRANCH   6  13
ENDBRANCH   1  11
BRANCH   4  14
ATOM     14  C   UNL     1      36.612   0.362  15.520  0.00  0.00    +0.000 A 
ATOM     15  C   UNL     1      37.063  -0.526  16.522  0.00  0.00    +0.000 A 
ATOM     16  C   UNL     1      36.459  -0.582  17.752  0.00  0.00    +0.000 A 
ATOM     17  C   UNL     1      35.391   0.265  17.974  0.00  0.00    +0.000 A 
ATOM     18  C   UNL     1      34.936   1.145  16.992  0.00  0.00    +0.000 A 
ATOM     19  C   UNL     1      35.574   1.168  15.765  0.00  0.00    +0.000 A 
ENDBRANCH   4  14
BRANCH   5  20
ATOM     20  C   UNL     1      38.499   2.538  14.229  0.00  0.00    +0.000 C 
ATOM     21  O   UNL     1      39.684   2.853  14.385  0.00  0.00    +0.000 OA
ATOM     22  N   UNL     1      37.548   3.548  14.412  0.00  0.00    +0.000 NA
BRANCH  22  23
ATOM     23  C   UNL     1      37.535   4.880  14.752  0.00  0.00    +0.000 C 
BRANCH  23  24
ATOM     24  C   UNL     1      38.242   5.218  15.989  0.00  0.00    +0.000 A 
ATOM     25  C   UNL     1      38.212   4.574  17.181  0.00  0.00    +0.000 A 
ATOM     26  C   UNL     1      38.873   5.073  18.299  0.00  0.00    +0.000 A 
ATOM     27  C   UNL     1      39.586   6.248  18.237  0.00  0.00    +0.000 A 
ATOM     28  C   UNL     1      39.601   6.883  17.007  0.00  0.00    +0.000 A 
ATOM     29  C   UNL     1      38.969   6.416  15.909  0.00  0.00    +0.000 A 
BRANCH  27  30
ATOM     30  C   UNL     1      40.273   6.888  19.389  0.00  0.00    +0.000 C 
ATOM     31  C   UNL     1      39.246   7.449  20.356  0.00  0.00    +0.000 C 
ATOM     32  C   UNL     1      41.186   5.909  20.098  0.00  0.00    +0.000 C 
ATOM     33  C   UNL     1      41.094   8.072  18.919  0.00  0.00    +0.000 C 
ENDBRANCH  27  30
ENDBRANCH  23  24
ENDBRANCH  22  23
ENDBRANCH   5  20
TORSDOF 7
ENDMDL
MODEL 8
REMARK VINA RESULT:      -7.9      3.979      6.112
REMARK  Name = 
REMARK  7 active torsions:
REMARK  status: ('A' for Active; 'I' for Inactive)
REMARK    1  A    between atoms: O_2  and  C_3
REMARK    2  A    between atoms: C_8  and  C_9
REMARK    3  A    between atoms: C_12  and  C_13
REMARK    4  A    between atoms: C_19  and  C_20
REMARK    5  A    between atoms: N_22  and  C_23
REMARK    6  A    between atoms: C_23  and  C_24
REMARK    7  A    between atoms: C_27  and  C_28
REMARK                            x       y       z     vdW  Elec       q    Type
REMARK                         _______ _______ _______ _____ _____    ______ ____
ROOT
ATOM      1  C   UNL     1      35.382   1.864  15.489  0.00  0.00    +0.000 C 
ATOM      2  O   UNL     1      35.355   2.018  17.021  0.00  0.00    +0.000 OA
ATOM      3  N   UNL     1      36.689   2.067  17.245  0.00  0.00    +0.000 NA
ATOM      4  C   UNL     1      37.071   3.166  16.381  0.00  0.00    +0.000 C 
ATOM      5  C   UNL     1      36.372   3.160  15.314  0.00  0.00    +0.000 C 
ENDROOT
BRANCH   1  11
ATOM      6  C   UNL     1      36.266  -0.495  15.980  0.00  0.00    +0.000 A 
ATOM      7  C   UNL     1      37.298  -1.436  15.906  0.00  0.00    +0.000 A 
ATOM      8  C   UNL     1      38.500  -1.157  15.305  0.00  0.00    +0.000 A 
ATOM      9  C   UNL     1      38.695   0.114  14.755  0.00  0.00    +0.000 A 
ATOM     10  C   UNL     1      37.676   1.027  14.834  0.00  0.00    +0.000 A 
ATOM     11  C   UNL     1      36.506   0.733  15.423  0.00  0.00    +0.000 A 
BRANCH   6  13
ATOM     12  C   UNL     1      34.786  -2.215  16.789  0.00  0.00    +0.000 C 
ATOM     13  O   UNL     1      35.097  -0.866  16.599  0.00  0.00    +0.000 OA
ENDBRANCH   6  13
ENDBRANCH   1  11
BRANCH   4  14
ATOM     14  C   UNL     1      38.127   4.152  16.667  0.00  0.00    +0.000 A 
ATOM     15  C   UNL     1      38.182   4.516  18.031  0.00  0.00    +0.000 A 
ATOM     16  C   UNL     1      39.100   5.425  18.492  0.00  0.00    +0.000 A 
ATOM     17  C   UNL     1      39.970   5.971  17.570  0.00  0.00    +0.000 A 
ATOM     18  C   UNL     1      39.925   5.621  16.220  0.00  0.00    +0.000 A 
ATOM     19  C   UNL     1      38.983   4.700  15.799  0.00  0.00    +0.000 A 
ENDBRANCH   4  14
BRANCH   5  20
ATOM     20  C   UNL     1      36.200   4.035  14.171  0.00  0.00    +0.000 C 
ATOM     21  O   UNL     1      36.851   3.811  13.143  0.00  0.00    +0.000 OA
ATOM     22  N   UNL     1      35.319   5.122  14.136  0.00  0.00    +0.000 NA
BRANCH  22  23
ATOM     23  C   UNL     1      34.945   6.097  13.241  0.00  0.00    +0.000 C 
BRANCH  23  24
ATOM     24  C   UNL     1      34.876   7.455  13.785  0.00  0.00    +0.000 A 
ATOM     25  C   UNL     1      35.776   8.460  13.659  0.00  0.00    +0.000 A 
ATOM     26  C   UNL     1      35.611   9.676  14.314  0.00  0.00    +0.000 A 
ATOM     27  C   UNL     1      34.520   9.906  15.121  0.00  0.00    +0.000 A 
ATOM     28  C   UNL     1      33.616   8.863  15.228  0.00  0.00    +0.000 A 
ATOM     29  C   UNL     1      33.755   7.676  14.600  0.00  0.00    +0.000 A 
BRANCH  27  30
ATOM     30  C   UNL     1      34.289  11.147  15.905  0.00  0.00    +0.000 C 
ATOM     31  C   UNL     1      33.405  10.844  17.102  0.00  0.00    +0.000 C 
ATOM     32  C   UNL     1      35.597  11.764  16.357  0.00  0.00    +0.000 C 
ATOM     33  C   UNL     1      33.530  12.160  15.073  0.00  0.00    +0.000 C 
ENDBRANCH  27  30
ENDBRANCH  23  24
ENDBRANCH  22  23
ENDBRANCH   5  20
TORSDOF 7
ENDMDL
MODEL 9
REMARK VINA RESULT:      -7.8     26.465     29.470
REMARK  Name = 
REMARK  7 active torsions:
REMARK  status: ('A' for Active; 'I' for Inactive)
REMARK    1  A    between atoms: O_2  and  C_3
REMARK    2  A    between atoms: C_8  and  C_9
REMARK    3  A    between atoms: C_12  and  C_13
REMARK    4  A    between atoms: C_19  and  C_20
REMARK    5  A    between atoms: N_22  and  C_23
REMARK    6  A    between atoms: C_23  and  C_24
REMARK    7  A    between atoms: C_27  and  C_28
REMARK                            x       y       z     vdW  Elec       q    Type
REMARK                         _______ _______ _______ _____ _____    ______ ____
ROOT
ATOM      1  C   UNL     1      26.623  18.095  34.994  0.00  0.00    +0.000 C 
ATOM      2  O   UNL     1      25.286  18.849  35.118  0.00  0.00    +0.000 OA
ATOM      3  N   UNL     1      24.507  17.819  35.525  0.00  0.00    +0.000 NA
ATOM      4  C   UNL     1      25.236  17.373  36.696  0.00  0.00    +0.000 C 
ATOM      5  C   UNL     1      26.493  17.488  36.512  0.00  0.00    +0.000 C 
ENDROOT
BRANCH   1  11
ATOM      6  C   UNL     1      25.362  16.996  33.047  0.00  0.00    +0.000 A 
ATOM      7  C   UNL     1      24.881  15.842  32.420  0.00  0.00    +0.000 A 
ATOM      8  C   UNL     1      25.091  14.588  32.936  0.00  0.00    +0.000 A 
ATOM      9  C   UNL     1      25.807  14.466  34.130  0.00  0.00    +0.000 A 
ATOM     10  C   UNL     1      26.275  15.604  34.735  0.00  0.00    +0.000 A 
ATOM     11  C   UNL     1      26.061  16.822  34.212  0.00  0.00    +0.000 A 
BRANCH   6  13
ATOM     12  C   UNL     1      23.819  18.527  32.009  0.00  0.00    +0.000 C 
ATOM     13  O   UNL     1      25.105  18.209  32.455  0.00  0.00    +0.000 OA
ENDBRANCH   6  13
ENDBRANCH   1  11
BRANCH   4  14
ATOM     14  C   UNL     1      24.631  16.840  37.929  0.00  0.00    +0.000 A 
ATOM     15  C   UNL     1      24.546  15.430  37.932  0.00  0.00    +0.000 A 
ATOM     16  C   UNL     1      24.008  14.748  38.994  0.00  0.00    +0.000 A 
ATOM     17  C   UNL     1      23.553  15.495  40.062  0.00  0.00    +0.000 A 
ATOM     18  C   UNL     1      23.630  16.888  40.071  0.00  0.00    +0.000 A 
ATOM     19  C   UNL     1      24.180  17.535  38.978  0.00  0.00    +0.000 A 
ENDBRANCH   4  14
BRANCH   5  20
ATOM     20  C   UNL     1      27.687  17.335  37.320  0.00  0.00    +0.000 C 
ATOM     21  O   UNL     1      28.324  18.344  37.643  0.00  0.00    +0.000 OA
ATOM     22  N   UNL     1      28.170  16.107  37.788  0.00  0.00    +0.000 NA
BRANCH  22  23
ATOM     23  C   UNL     1      29.226  15.652  38.541  0.00  0.00    +0.000 C 
BRANCH  23  24
ATOM     24  C   UNL     1      28.928  14.520  39.420  0.00  0.00    +0.000 A 
ATOM     25  C   UNL     1      29.766  13.546  39.854  0.00  0.00    +0.000 A 
ATOM     26  C   UNL     1      29.311  12.477  40.619  0.00  0.00    +0.000 A 
ATOM     27  C   UNL     1      27.984  12.367  40.966  0.00  0.00    +0.000 A 
ATOM     28  C   UNL     1      27.153  13.377  40.513  0.00  0.00    +0.000 A 
ATOM     29  C   UNL     1      27.573  14.424  39.771  0.00  0.00    +0.000 A 
BRANCH  27  30
ATOM     30  C   UNL     1      27.396  11.234  41.728  0.00  0.00    +0.000 C 
ATOM     31  C   UNL     1      26.036  11.630  42.275  0.00  0.00    +0.000 C 
ATOM     32  C   UNL     1      27.278   9.994  40.867  0.00  0.00    +0.000 C 
ATOM     33  C   UNL     1      28.253  10.913  42.936  0.00  0.00    +0.000 C 
ENDBRANCH  27  30
ENDBRANCH  23  24
ENDBRANCH  22  23
ENDBRANCH   5  20
TORSDOF 7
ENDMDL
MODEL 10
REMARK VINA RESULT:      -7.7      3.648      5.459
REMARK  Name = 
REMARK  7 active torsions:
REMARK  status: ('A' for Active; 'I' for Inactive)
REMARK    1  A    between atoms: O_2  and  C_3
REMARK    2  A    between atoms: C_8  and  C_9
REMARK    3  A    between atoms: C_12  and  C_13
REMARK    4  A    between atoms: C_19  and  C_20
REMARK    5  A    between atoms: N_22  and  C_23
REMARK    6  A    between atoms: C_23  and  C_24
REMARK    7  A    between atoms: C_27  and  C_28
REMARK                            x       y       z     vdW  Elec       q    Type
REMARK                         _______ _______ _______ _____ _____    ______ ____
ROOT
ATOM      1  C   UNL     1      36.012   1.157  14.422  0.00  0.00    +0.000 C 
ATOM      2  O   UNL     1      36.735   0.640  15.679  0.00  0.00    +0.000 OA
ATOM      3  N   UNL     1      37.946   1.207  15.466  0.00  0.00    +0.000 NA
ATOM      4  C   UNL     1      37.573   2.601  15.328  0.00  0.00    +0.000 C 
ATOM      5  C   UNL     1      36.451   2.707  14.731  0.00  0.00    +0.000 C 
ENDROOT
BRANCH   1  11
ATOM      6  C   UNL     1      37.567  -0.480  13.200  0.00  0.00    +0.000 A 
ATOM      7  C   UNL     1      38.597  -0.707  12.282  0.00  0.00    +0.000 A 
ATOM      8  C   UNL     1      39.189   0.312  11.581  0.00  0.00    +0.000 A 
ATOM      9  C   UNL     1      38.747   1.621  11.798  0.00  0.00    +0.000 A 
ATOM     10  C   UNL     1      37.737   1.832  12.700  0.00  0.00    +0.000 A 
ATOM     11  C   UNL     1      37.168   0.819  13.374  0.00  0.00    +0.000 A 
BRANCH   6  13
ATOM     12  C   UNL     1      37.623  -2.825  13.748  0.00  0.00    +0.000 C 
ATOM     13  O   UNL     1      37.032  -1.563  13.855  0.00  0.00    +0.000 OA
ENDBRANCH   6  13
ENDBRANCH   1  11
BRANCH   4  14
ATOM     14  C   UNL     1      38.372   3.750  15.787  0.00  0.00    +0.000 A 
ATOM     15  C   UNL     1      38.001   4.194  17.076  0.00  0.00    +0.000 A 
ATOM     16  C   UNL     1      38.629   5.257  17.674  0.00  0.00    +0.000 A 
ATOM     17  C   UNL     1      39.641   5.876  16.967  0.00  0.00    +0.000 A 
ATOM     18  C   UNL     1      40.016   5.447  15.694  0.00  0.00    +0.000 A 
ATOM     19  C   UNL     1      39.355   4.372  15.128  0.00  0.00    +0.000 A 
ENDBRANCH   4  14
BRANCH   5  20
ATOM     20  C   UNL     1      35.527   3.782  14.422  0.00  0.00    +0.000 C 
ATOM     21  O   UNL     1      34.450   3.837  15.027  0.00  0.00    +0.000 OA
ATOM     22  N   UNL     1      35.779   4.793  13.488  0.00  0.00    +0.000 NA
BRANCH  22  23
ATOM     23  C   UNL     1      35.133   5.901  12.993  0.00  0.00    +0.000 C 
BRANCH  23  24
ATOM     24  C   UNL     1      35.070   7.048  13.901  0.00  0.00    +0.000 A 
ATOM     25  C   UNL     1      36.091   7.693  14.517  0.00  0.00    +0.000 A 
ATOM     26  C   UNL     1      35.863   8.718  15.430  0.00  0.00    +0.000 A 
ATOM     27  C   UNL     1      34.585   9.119  15.744  0.00  0.00    +0.000 A 
ATOM     28  C   UNL     1      33.563   8.446  15.097  0.00  0.00    +0.000 A 
ATOM     29  C   UNL     1      33.760   7.450  14.207  0.00  0.00    +0.000 A 
BRANCH  27  30
ATOM     30  C   UNL     1      34.242  10.161  16.747  0.00  0.00    +0.000 C 
ATOM     31  C   UNL     1      33.760  11.417  16.043  0.00  0.00    +0.000 C 
ATOM     32  C   UNL     1      33.192   9.665  17.720  0.00  0.00    +0.000 C 
ATOM     33  C   UNL     1      35.478  10.568  17.524  0.00  0.00    +0.000 C 
ENDBRANCH  27  30
ENDBRANCH  23  24
ENDBRANCH  22  23
ENDBRANCH   5  20
TORSDOF 7
ENDMDL
