MODEL 1
REMARK VINA RESULT:      -7.5      0.000      0.000
REMARK  Name = 
REMARK  2 active torsions:
REMARK  status: ('A' for Active; 'I' for Inactive)
REMARK    1  A    between atoms: C_2  and  C_5
REMARK    2  A    between atoms: C_10  and  C_12
REMARK                            x       y       z     vdW  Elec       q    Type
REMARK                         _______ _______ _______ _____ _____    ______ ____
ROOT
ATOM      1  C   UNL     1      14.936  12.527  32.871  0.00  0.00    +0.000 A 
ATOM      2  C   UNL     1      14.135  13.313  33.661  0.00  0.00    +0.000 A 
ATOM      3  S   UNL     1      14.631  12.881  35.225  0.00  0.00    +0.000 S 
ATOM      4  C   UNL     1      15.831  11.707  34.772  0.00  0.00    +0.000 A 
ATOM      5  N   UNL     1      16.631  10.874  35.655  0.00  0.00    +0.000 NA
ATOM      6  C   UNL     1      16.429  10.926  37.056  0.00  0.00    +0.000 C 
ATOM      7  O   UNL     1      15.529  11.732  37.434  0.00  0.00    +0.000 OA
ATOM      8  N   UNL     1      15.780  11.723  33.476  0.00  0.00    +0.000 NA
ENDROOT
BRANCH   6   9
ATOM      9  C   UNL     1      17.124  10.168  38.065  0.00  0.00    +0.000 A 
ATOM     10  C   UNL     1      16.517  10.021  39.304  0.00  0.00    +0.000 A 
ATOM     11  C   UNL     1      17.078   9.284  40.298  0.00  0.00    +0.000 A 
ATOM     12  C   UNL     1      18.266   8.674  40.084  0.00  0.00    +0.000 A 
ATOM     13  C   UNL     1      18.882   8.810  38.875  0.00  0.00    +0.000 A 
ATOM     14  C   UNL     1      18.314   9.563  37.836  0.00  0.00    +0.000 A 
ATOM     15  O   UNL     1      19.014   9.632  36.664  0.00  0.00    +0.000 OA
ENDBRANCH   6   9
BRANCH   1  17
ATOM     16  C   UNL     1      16.139  13.044  30.759  0.00  0.00    +0.000 C 
ATOM     17  C   UNL     1      14.820  12.568  31.363  0.00  0.00    +0.000 C 
ATOM     18  C   UNL     1      13.744  13.539  31.041  0.00  0.00    +0.000 C 
ATOM     19  C   UNL     1      14.541  11.198  30.853  0.00  0.00    +0.000 C 
ENDBRANCH   1  17
TORSDOF 2
ENDMDL
MODEL 2
REMARK VINA RESULT:      -6.5     19.774     22.000
REMARK  Name = 
REMARK  2 active torsions:
REMARK  status: ('A' for Active; 'I' for Inactive)
REMARK    1  A    between atoms: C_2  and  C_5
REMARK    2  A    between atoms: C_10  and  C_12
REMARK                            x       y       z     vdW  Elec       q    Type
REMARK                         _______ _______ _______ _____ _____    ______ ____
ROOT
ATOM      1  C   UNL     1      33.229  -4.335  33.467  0.00  0.00    +0.000 A 
ATOM      2  C   UNL     1      32.264  -4.406  34.442  0.00  0.00    +0.000 A 
ATOM      3  S   UNL     1      32.104  -2.784  34.913  0.00  0.00    +0.000 S 
ATOM      4  C   UNL     1      33.293  -2.111  33.838  0.00  0.00    +0.000 A 
ATOM      5  N   UNL     1      33.726  -0.726  33.752  0.00  0.00    +0.000 NA
ATOM      6  C   UNL     1      33.206   0.236  34.653  0.00  0.00    +0.000 C 
ATOM      7  O   UNL     1      32.371  -0.215  35.490  0.00  0.00    +0.000 OA
ATOM      8  N   UNL     1      33.727  -3.152  33.195  0.00  0.00    +0.000 NA
ENDROOT
BRANCH   6   9
ATOM      9  C   UNL     1      33.530   1.639  34.712  0.00  0.00    +0.000 A 
ATOM     10  C   UNL     1      33.340   2.401  33.568  0.00  0.00    +0.000 A 
ATOM     11  C   UNL     1      33.575   3.739  33.547  0.00  0.00    +0.000 A 
ATOM     12  C   UNL     1      34.010   4.356  34.670  0.00  0.00    +0.000 A 
ATOM     13  C   UNL     1      34.208   3.624  35.803  0.00  0.00    +0.000 A 
ATOM     14  C   UNL     1      33.966   2.242  35.844  0.00  0.00    +0.000 A 
ATOM     15  O   UNL     1      34.194   1.605  37.032  0.00  0.00    +0.000 OA
ENDBRANCH   6   9
BRANCH   1  17
ATOM     16  C   UNL     1      32.866  -6.778  33.192  0.00  0.00    +0.000 C 
ATOM     17  C   UNL     1      33.715  -5.583  32.763  0.00  0.00    +0.000 C 
ATOM     18  C   UNL     1      35.122  -5.794  33.185  0.00  0.00    +0.000 C 
ATOM     19  C   UNL     1      33.566  -5.408  31.292  0.00  0.00    +0.000 C 
ENDBRANCH   1  17
TORSDOF 2
ENDMDL
MODEL 3
REMARK VINA RESULT:      -6.5      1.384      2.006
REMARK  Name = 
REMARK  2 active torsions:
REMARK  status: ('A' for Active; 'I' for Inactive)
REMARK    1  A    between atoms: C_2  and  C_5
REMARK    2  A    between atoms: C_10  and  C_12
REMARK                            x       y       z     vdW  Elec       q    Type
REMARK                         _______ _______ _______ _____ _____    ______ ____
ROOT
ATOM      1  C   UNL     1      15.337  11.387  33.446  0.00  0.00    +0.000 A 
ATOM      2  C   UNL     1      14.827  12.480  34.102  0.00  0.00    +0.000 A 
ATOM      3  S   UNL     1      15.456  12.291  35.666  0.00  0.00    +0.000 S 
ATOM      4  C   UNL     1      16.329  10.813  35.389  0.00  0.00    +0.000 A 
ATOM      5  N   UNL     1      17.077  10.032  36.360  0.00  0.00    +0.000 NA
ATOM      6  C   UNL     1      17.098  10.424  37.721  0.00  0.00    +0.000 C 
ATOM      7  O   UNL     1      16.435  11.469  37.984  0.00  0.00    +0.000 OA
ATOM      8  N   UNL     1      16.091  10.565  34.138  0.00  0.00    +0.000 NA
ENDROOT
BRANCH   6   9
ATOM      9  C   UNL     1      17.776   9.764  38.807  0.00  0.00    +0.000 A 
ATOM     10  C   UNL     1      19.118   9.450  38.644  0.00  0.00    +0.000 A 
ATOM     11  C   UNL     1      19.847   8.871  39.633  0.00  0.00    +0.000 A 
ATOM     12  C   UNL     1      19.257   8.586  40.816  0.00  0.00    +0.000 A 
ATOM     13  C   UNL     1      17.938   8.881  40.995  0.00  0.00    +0.000 A 
ATOM     14  C   UNL     1      17.170   9.484  39.987  0.00  0.00    +0.000 A 
ATOM     15  O   UNL     1      15.859   9.741  40.272  0.00  0.00    +0.000 OA
ENDBRANCH   6   9
BRANCH   1  17
ATOM     16  C   UNL     1      16.297  10.867  31.213  0.00  0.00    +0.000 C 
ATOM     17  C   UNL     1      15.010  11.131  31.991  0.00  0.00    +0.000 C 
ATOM     18  C   UNL     1      14.358  12.361  31.475  0.00  0.00    +0.000 C 
ATOM     19  C   UNL     1      14.144   9.925  31.885  0.00  0.00    +0.000 C 
ENDBRANCH   1  17
TORSDOF 2
ENDMDL
MODEL 4
REMARK VINA RESULT:      -6.3     28.495     31.321
REMARK  Name = 
REMARK  2 active torsions:
REMARK  status: ('A' for Active; 'I' for Inactive)
REMARK    1  A    between atoms: C_2  and  C_5
REMARK    2  A    between atoms: C_10  and  C_12
REMARK                            x       y       z     vdW  Elec       q    Type
REMARK                         _______ _______ _______ _____ _____    ______ ____
ROOT
ATOM      1  C   UNL     1      34.578  21.464  10.206  0.00  0.00    +0.000 A 
ATOM      2  C   UNL     1      34.136  21.829   8.958  0.00  0.00    +0.000 A 
ATOM      3  S   UNL     1      32.590  22.446   9.286  0.00  0.00    +0.000 S 
ATOM      4  C   UNL     1      32.598  22.189  11.006  0.00  0.00    +0.000 A 
ATOM      5  N   UNL     1      31.518  22.448  11.944  0.00  0.00    +0.000 NA
ATOM      6  C   UNL     1      30.264  22.910  11.473  0.00  0.00    +0.000 C 
ATOM      7  O   UNL     1      30.192  23.066  10.219  0.00  0.00    +0.000 OA
ATOM      8  N   UNL     1      33.764  21.661  11.216  0.00  0.00    +0.000 NA
ENDROOT
BRANCH   6   9
ATOM      9  C   UNL     1      29.094  23.206  12.259  0.00  0.00    +0.000 A 
ATOM     10  C   UNL     1      29.239  24.044  13.355  0.00  0.00    +0.000 A 
ATOM     11  C   UNL     1      28.181  24.414  14.123  0.00  0.00    +0.000 A 
ATOM     12  C   UNL     1      26.945  23.955  13.820  0.00  0.00    +0.000 A 
ATOM     13  C   UNL     1      26.782  23.126  12.750  0.00  0.00    +0.000 A 
ATOM     14  C   UNL     1      27.862  22.737  11.943  0.00  0.00    +0.000 A 
ATOM     15  O   UNL     1      27.587  21.906  10.893  0.00  0.00    +0.000 OA
ENDBRANCH   6   9
BRANCH   1  17
ATOM     16  C   UNL     1      36.886  21.833  11.052  0.00  0.00    +0.000 C 
ATOM     17  C   UNL     1      35.940  20.831  10.393  0.00  0.00    +0.000 C 
ATOM     18  C   UNL     1      36.442  20.485   9.040  0.00  0.00    +0.000 C 
ATOM     19  C   UNL     1      35.814  19.649  11.288  0.00  0.00    +0.000 C 
ENDBRANCH   1  17
TORSDOF 2
ENDMDL
MODEL 5
REMARK VINA RESULT:      -6.2     22.542     25.142
REMARK  Name = 
REMARK  2 active torsions:
REMARK  status: ('A' for Active; 'I' for Inactive)
REMARK    1  A    between atoms: C_2  and  C_5
REMARK    2  A    between atoms: C_10  and  C_12
REMARK                            x       y       z     vdW  Elec       q    Type
REMARK                         _______ _______ _______ _____ _____    ______ ____
ROOT
ATOM      1  C   UNL     1      29.657  27.792  17.602  0.00  0.00    +0.000 A 
ATOM      2  C   UNL     1      29.238  28.861  18.355  0.00  0.00    +0.000 A 
ATOM      3  S   UNL     1      29.204  28.212  19.922  0.00  0.00    +0.000 S 
ATOM      4  C   UNL     1      29.719  26.601  19.517  0.00  0.00    +0.000 A 
ATOM      5  N   UNL     1      29.854  25.464  20.412  0.00  0.00    +0.000 NA
ATOM      6  C   UNL     1      29.489  25.586  21.775  0.00  0.00    +0.000 C 
ATOM      7  O   UNL     1      29.059  26.729  22.110  0.00  0.00    +0.000 OA
ATOM      8  N   UNL     1      29.886  26.663  18.231  0.00  0.00    +0.000 NA
ENDROOT
BRANCH   6   9
ATOM      9  C   UNL     1      29.550  24.565  22.789  0.00  0.00    +0.000 A 
ATOM     10  C   UNL     1      30.574  24.634  23.723  0.00  0.00    +0.000 A 
ATOM     11  C   UNL     1      30.682  23.741  24.741  0.00  0.00    +0.000 A 
ATOM     12  C   UNL     1      29.769  22.749  24.855  0.00  0.00    +0.000 A 
ATOM     13  C   UNL     1      28.758  22.660  23.945  0.00  0.00    +0.000 A 
ATOM     14  C   UNL     1      28.629  23.577  22.890  0.00  0.00    +0.000 A 
ATOM     15  O   UNL     1      27.577  23.399  22.036  0.00  0.00    +0.000 OA
ENDBRANCH   6   9
BRANCH   1  17
ATOM     16  C   UNL     1      29.028  29.121  15.599  0.00  0.00    +0.000 C 
ATOM     17  C   UNL     1      29.814  27.912  16.102  0.00  0.00    +0.000 C 
ATOM     18  C   UNL     1      29.255  26.671  15.511  0.00  0.00    +0.000 C 
ATOM     19  C   UNL     1      31.251  28.120  15.772  0.00  0.00    +0.000 C 
ENDBRANCH   1  17
TORSDOF 2
ENDMDL
MODEL 6
REMARK VINA RESULT:      -6.2      6.201      7.628
REMARK  Name = 
REMARK  2 active torsions:
REMARK  status: ('A' for Active; 'I' for Inactive)
REMARK    1  A    between atoms: C_2  and  C_5
REMARK    2  A    between atoms: C_10  and  C_12
REMARK                            x       y       z     vdW  Elec       q    Type
REMARK                         _______ _______ _______ _____ _____    ______ ____
ROOT
ATOM      1  C   UNL     1      23.106  10.014  37.537  0.00  0.00    +0.000 A 
ATOM      2  C   UNL     1      22.413  10.153  36.360  0.00  0.00    +0.000 A 
ATOM      3  S   UNL     1      20.814   9.859  36.844  0.00  0.00    +0.000 S 
ATOM      4  C   UNL     1      21.130   9.563  38.527  0.00  0.00    +0.000 A 
ATOM      5  N   UNL     1      20.175   9.179  39.553  0.00  0.00    +0.000 NA
ATOM      6  C   UNL     1      18.821   8.942  39.209  0.00  0.00    +0.000 C 
ATOM      7  O   UNL     1      18.549   9.097  37.983  0.00  0.00    +0.000 OA
ATOM      8  N   UNL     1      22.417   9.710  38.612  0.00  0.00    +0.000 NA
ENDROOT
BRANCH   6   9
ATOM      9  C   UNL     1      17.753   8.550  40.093  0.00  0.00    +0.000 A 
ATOM     10  C   UNL     1      16.775   9.487  40.391  0.00  0.00    +0.000 A 
ATOM     11  C   UNL     1      15.708   9.188  41.177  0.00  0.00    +0.000 A 
ATOM     12  C   UNL     1      15.587   7.943  41.691  0.00  0.00    +0.000 A 
ATOM     13  C   UNL     1      16.541   7.008  41.415  0.00  0.00    +0.000 A 
ATOM     14  C   UNL     1      17.647   7.298  40.601  0.00  0.00    +0.000 A 
ATOM     15  O   UNL     1      18.542   6.287  40.385  0.00  0.00    +0.000 OA
ENDBRANCH   6   9
BRANCH   1  17
ATOM     16  C   UNL     1      24.972  11.446  38.338  0.00  0.00    +0.000 C 
ATOM     17  C   UNL     1      24.610  10.173  37.576  0.00  0.00    +0.000 C 
ATOM     18  C   UNL     1      25.067  10.286  36.168  0.00  0.00    +0.000 C 
ATOM     19  C   UNL     1      25.210   9.014  38.292  0.00  0.00    +0.000 C 
ENDBRANCH   1  17
TORSDOF 2
ENDMDL
MODEL 7
REMARK VINA RESULT:      -6.2      6.009      8.140
REMARK  Name = 
REMARK  2 active torsions:
REMARK  status: ('A' for Active; 'I' for Inactive)
REMARK    1  A    between atoms: C_2  and  C_5
REMARK    2  A    between atoms: C_10  and  C_12
REMARK                            x       y       z     vdW  Elec       q    Type
REMARK                         _______ _______ _______ _____ _____    ______ ____
ROOT
ATOM      1  C   UNL     1      17.529   8.510  40.527  0.00  0.00    +0.000 A 
ATOM      2  C   UNL     1      16.833   9.511  39.894  0.00  0.00    +0.000 A 
ATOM      3  S   UNL     1      18.005  10.172  38.861  0.00  0.00    +0.000 S 
ATOM      4  C   UNL     1      19.324   9.131  39.310  0.00  0.00    +0.000 A 
ATOM      5  N   UNL     1      20.697   9.186  38.834  0.00  0.00    +0.000 NA
ATOM      6  C   UNL     1      21.098  10.213  37.945  0.00  0.00    +0.000 C 
ATOM      7  O   UNL     1      20.184  11.028  37.625  0.00  0.00    +0.000 OA
ATOM      8  N   UNL     1      18.791   8.355  40.203  0.00  0.00    +0.000 NA
ENDROOT
BRANCH   6   9
ATOM      9  C   UNL     1      22.410  10.418  37.387  0.00  0.00    +0.000 A 
ATOM     10  C   UNL     1      22.850   9.536  36.410  0.00  0.00    +0.000 A 
ATOM     11  C   UNL     1      24.053   9.682  35.797  0.00  0.00    +0.000 A 
ATOM     12  C   UNL     1      24.856  10.714  36.143  0.00  0.00    +0.000 A 
ATOM     13  C   UNL     1      24.445  11.590  37.104  0.00  0.00    +0.000 A 
ATOM     14  C   UNL     1      23.203  11.458  37.745  0.00  0.00    +0.000 A 
ATOM     15  O   UNL     1      22.888  12.392  38.691  0.00  0.00    +0.000 OA
ENDBRANCH   6   9
BRANCH   1  17
ATOM     16  C   UNL     1      17.102   6.174  41.257  0.00  0.00    +0.000 C 
ATOM     17  C   UNL     1      16.865   7.648  41.578  0.00  0.00    +0.000 C 
ATOM     18  C   UNL     1      15.412   7.944  41.522  0.00  0.00    +0.000 C 
ATOM     19  C   UNL     1      17.470   7.939  42.907  0.00  0.00    +0.000 C 
ENDBRANCH   1  17
TORSDOF 2
ENDMDL
MODEL 8
REMARK VINA RESULT:      -6.0     21.911     23.171
REMARK  Name = 
REMARK  2 active torsions:
REMARK  status: ('A' for Active; 'I' for Inactive)
REMARK    1  A    between atoms: C_2  and  C_5
REMARK    2  A    between atoms: C_10  and  C_12
REMARK                            x       y       z     vdW  Elec       q    Type
REMARK                         _______ _______ _______ _____ _____    ______ ____
ROOT
ATOM      1  C   UNL     1      25.326  -8.298  23.670  0.00  0.00    +0.000 A 
ATOM      2  C   UNL     1      25.338  -6.971  23.318  0.00  0.00    +0.000 A 
ATOM      3  S   UNL     1      23.880  -6.407  23.977  0.00  0.00    +0.000 S 
ATOM      4  C   UNL     1      23.334  -7.912  24.656  0.00  0.00    +0.000 A 
ATOM      5  N   UNL     1      22.077  -8.170  25.340  0.00  0.00    +0.000 NA
ATOM      6  C   UNL     1      21.109  -7.143  25.456  0.00  0.00    +0.000 C 
ATOM      7  O   UNL     1      21.439  -6.038  24.933  0.00  0.00    +0.000 OA
ATOM      8  N   UNL     1      24.288  -8.735  24.345  0.00  0.00    +0.000 NA
ENDROOT
BRANCH   6   9
ATOM      9  C   UNL     1      19.818  -7.230  26.090  0.00  0.00    +0.000 A 
ATOM     10  C   UNL     1      19.414  -8.463  26.582  0.00  0.00    +0.000 A 
ATOM     11  C   UNL     1      18.235  -8.626  27.235  0.00  0.00    +0.000 A 
ATOM     12  C   UNL     1      17.420  -7.561  27.415  0.00  0.00    +0.000 A 
ATOM     13  C   UNL     1      17.795  -6.342  26.934  0.00  0.00    +0.000 A 
ATOM     14  C   UNL     1      19.013  -6.153  26.261  0.00  0.00    +0.000 A 
ATOM     15  O   UNL     1      19.293  -4.889  25.823  0.00  0.00    +0.000 OA
ENDBRANCH   6   9
BRANCH   1  17
ATOM     16  C   UNL     1      25.932 -10.267  22.280  0.00  0.00    +0.000 C 
ATOM     17  C   UNL     1      26.454  -9.221  23.262  0.00  0.00    +0.000 C 
ATOM     18  C   UNL     1      26.930  -9.889  24.498  0.00  0.00    +0.000 C 
ATOM     19  C   UNL     1      27.514  -8.429  22.581  0.00  0.00    +0.000 C 
ENDBRANCH   1  17
TORSDOF 2
ENDMDL
MODEL 9
REMARK VINA RESULT:      -5.9     20.870     22.294
REMARK  Name = 
REMARK  2 active torsions:
REMARK  status: ('A' for Active; 'I' for Inactive)
REMARK    1  A    between atoms: C_2  and  C_5
REMARK    2  A    between atoms: C_10  and  C_12
REMARK                            x       y       z     vdW  Elec       q    Type
REMARK                         _______ _______ _______ _____ _____    ______ ____
ROOT
ATOM      1  C   UNL     1      12.471  -9.466  25.347  0.00  0.00    +0.000 A 
ATOM      2  C   UNL     1      12.766 -10.395  26.314  0.00  0.00    +0.000 A 
ATOM      3  S   UNL     1      14.353  -9.981  26.745  0.00  0.00    +0.000 S 
ATOM      4  C   UNL     1      14.551  -8.645  25.650  0.00  0.00    +0.000 A 
ATOM      5  N   UNL     1      15.742  -7.839  25.444  0.00  0.00    +0.000 NA
ATOM      6  C   UNL     1      16.939  -8.151  26.135  0.00  0.00    +0.000 C 
ATOM      7  O   UNL     1      16.861  -9.149  26.910  0.00  0.00    +0.000 OA
ATOM      8  N   UNL     1      13.407  -8.599  25.038  0.00  0.00    +0.000 NA
ENDROOT
BRANCH   6   9
ATOM      9  C   UNL     1      18.203  -7.466  26.042  0.00  0.00    +0.000 A 
ATOM     10  C   UNL     1      19.267  -8.137  25.457  0.00  0.00    +0.000 A 
ATOM     11  C   UNL     1      20.480  -7.552  25.286  0.00  0.00    +0.000 A 
ATOM     12  C   UNL     1      20.669  -6.277  25.697  0.00  0.00    +0.000 A 
ATOM     13  C   UNL     1      19.637  -5.601  26.280  0.00  0.00    +0.000 A 
ATOM     14  C   UNL     1      18.376  -6.188  26.460  0.00  0.00    +0.000 A 
ATOM     15  O   UNL     1      17.411  -5.422  27.052  0.00  0.00    +0.000 OA
ENDBRANCH   6   9
BRANCH   1  17
ATOM     16  C   UNL     1      10.021  -9.204  25.663  0.00  0.00    +0.000 C 
ATOM     17  C   UNL     1      11.130  -9.470  24.648  0.00  0.00    +0.000 C 
ATOM     18  C   UNL     1      10.955 -10.823  24.061  0.00  0.00    +0.000 C 
ATOM     19  C   UNL     1      11.102  -8.385  23.630  0.00  0.00    +0.000 C 
ENDBRANCH   1  17
TORSDOF 2
ENDMDL
MODEL 10
REMARK VINA RESULT:      -5.9     21.547     24.216
REMARK  Name = 
REMARK  2 active torsions:
REMARK  status: ('A' for Active; 'I' for Inactive)
REMARK    1  A    between atoms: C_2  and  C_5
REMARK    2  A    between atoms: C_10  and  C_12
REMARK                            x       y       z     vdW  Elec       q    Type
REMARK                         _______ _______ _______ _____ _____    ______ ____
ROOT
ATOM      1  C   UNL     1      33.314  -2.109  35.118  0.00  0.00    +0.000 A 
ATOM      2  C   UNL     1      32.315  -2.901  35.626  0.00  0.00    +0.000 A 
ATOM      3  S   UNL     1      32.269  -4.185  34.518  0.00  0.00    +0.000 S 
ATOM      4  C   UNL     1      33.529  -3.624  33.460  0.00  0.00    +0.000 A 
ATOM      5  N   UNL     1      33.985  -4.238  32.223  0.00  0.00    +0.000 NA
ATOM      6  C   UNL     1      33.340  -5.397  31.727  0.00  0.00    +0.000 C 
ATOM      7  O   UNL     1      32.381  -5.818  32.438  0.00  0.00    +0.000 OA
ATOM      8  N   UNL     1      33.901  -2.511  34.014  0.00  0.00    +0.000 NA
ENDROOT
BRANCH   6   9
ATOM      9  C   UNL     1      33.656  -6.122  30.523  0.00  0.00    +0.000 A 
ATOM     10  C   UNL     1      33.265  -5.575  29.310  0.00  0.00    +0.000 A 
ATOM     11  C   UNL     1      33.562  -6.166  28.124  0.00  0.00    +0.000 A 
ATOM     12  C   UNL     1      34.259  -7.325  28.114  0.00  0.00    +0.000 A 
ATOM     13  C   UNL     1      34.648  -7.883  29.296  0.00  0.00    +0.000 A 
ATOM     14  C   UNL     1      34.354  -7.284  30.530  0.00  0.00    +0.000 A 
ATOM     15  O   UNL     1      34.794  -7.925  31.655  0.00  0.00    +0.000 OA
ENDBRANCH   6   9
BRANCH   1  17
ATOM     16  C   UNL     1      35.191  -0.805  36.093  0.00  0.00    +0.000 C 
ATOM     17  C   UNL     1      33.694  -0.809  35.792  0.00  0.00    +0.000 C 
ATOM     18  C   UNL     1      32.929  -0.744  37.062  0.00  0.00    +0.000 C 
ATOM     19  C   UNL     1      33.399   0.326  34.874  0.00  0.00    +0.000 C 
ENDBRANCH   1  17
TORSDOF 2
ENDMDL
