MODEL 1
REMARK VINA RESULT:      -6.6      0.000      0.000
REMARK  Name = 
REMARK  4 active torsions:
REMARK  status: ('A' for Active; 'I' for Inactive)
REMARK    1  A    between atoms: N_2  and  C_3
REMARK    2  A    between atoms: N_2  and  C_6
REMARK    3  A    between atoms: C_3  and  C_4
REMARK    4  A    between atoms: C_9  and  C_10
REMARK                            x       y       z     vdW  Elec       q    Type
REMARK                         _______ _______ _______ _____ _____    ______ ____
ROOT
ATOM      1  C   UNL     1      27.252  23.900  27.361  0.00  0.00    +0.000 A 
ATOM      2  C   UNL     1      28.378  23.189  26.907  0.00  0.00    +0.000 A 
ATOM      3  C   UNL     1      28.666  23.044  25.571  0.00  0.00    +0.000 A 
ATOM      4  C   UNL     1      27.802  23.627  24.663  0.00  0.00    +0.000 A 
ATOM      5  C   UNL     1      26.704  24.318  25.125  0.00  0.00    +0.000 A 
ATOM      6  N   UNL     1      25.717  24.964  24.461  0.00  0.00    +0.000 NA
ATOM      7  C   UNL     1      24.835  25.499  25.316  0.00  0.00    +0.000 A 
ATOM      8  C   UNL     1      23.681  26.232  25.188  0.00  0.00    +0.000 A 
ATOM      9  C   UNL     1      22.931  26.673  26.261  0.00  0.00    +0.000 A 
ATOM     10  C   UNL     1      23.414  26.333  27.506  0.00  0.00    +0.000 A 
ATOM     11  C   UNL     1      24.567  25.600  27.684  0.00  0.00    +0.000 A 
ATOM     12  C   UNL     1      25.288  25.175  26.579  0.00  0.00    +0.000 A 
ATOM     13  N   UNL     1      26.435  24.452  26.437  0.00  0.00    +0.000 N 
ATOM     14  C   UNL     1      29.918  22.248  25.400  0.00  0.00    +0.000 C 
ATOM     15  C   UNL     1      30.568  22.313  26.771  0.00  0.00    +0.000 C 
ATOM     16  C   UNL     1      29.419  22.494  27.729  0.00  0.00    +0.000 C 
ENDROOT
BRANCH   1  18
ATOM     17  C   UNL     1      27.718  25.005  29.517  0.00  0.00    +0.000 C 
ATOM     18  N   UNL     1      27.037  23.999  28.756  0.00  0.00    +0.000 N 
BRANCH  18  19
ATOM     19  C   UNL     1      26.123  23.094  29.388  0.00  0.00    +0.000 C 
BRANCH  19  20
ATOM     20  C   UNL     1      26.774  22.116  30.316  0.00  0.00    +0.000 C 
ATOM     21  O   UNL     1      25.802  21.367  30.999  0.00  0.00    +0.000 OA
ENDBRANCH  19  20
ENDBRANCH  18  19
ENDBRANCH   1  18
BRANCH   4  22
ATOM     22  C   UNL     1      28.112  23.474  23.270  0.00  0.00    +0.000 C 
ATOM     23  N   UNL     1      28.345  23.358  22.143  0.00  0.00    +0.000 NA
ENDBRANCH   4  22
TORSDOF 4
ENDMDL
MODEL 2
REMARK VINA RESULT:      -6.2      2.355      6.420
REMARK  Name = 
REMARK  4 active torsions:
REMARK  status: ('A' for Active; 'I' for Inactive)
REMARK    1  A    between atoms: N_2  and  C_3
REMARK    2  A    between atoms: N_2  and  C_6
REMARK    3  A    between atoms: C_3  and  C_4
REMARK    4  A    between atoms: C_9  and  C_10
REMARK                            x       y       z     vdW  Elec       q    Type
REMARK                         _______ _______ _______ _____ _____    ______ ____
ROOT
ATOM      1  C   UNL     1      26.238  24.758  26.510  0.00  0.00    +0.000 A 
ATOM      2  C   UNL     1      25.132  25.400  27.099  0.00  0.00    +0.000 A 
ATOM      3  C   UNL     1      24.977  25.492  28.461  0.00  0.00    +0.000 A 
ATOM      4  C   UNL     1      25.955  24.927  29.258  0.00  0.00    +0.000 A 
ATOM      5  C   UNL     1      27.030  24.302  28.664  0.00  0.00    +0.000 A 
ATOM      6  N   UNL     1      28.101  23.675  29.203  0.00  0.00    +0.000 NA
ATOM      7  C   UNL     1      28.909  23.198  28.247  0.00  0.00    +0.000 A 
ATOM      8  C   UNL     1      30.092  22.501  28.233  0.00  0.00    +0.000 A 
ATOM      9  C   UNL     1      30.739  22.115  27.075  0.00  0.00    +0.000 A 
ATOM     10  C   UNL     1      30.122  22.477  25.898  0.00  0.00    +0.000 A 
ATOM     11  C   UNL     1      28.937  23.177  25.862  0.00  0.00    +0.000 A 
ATOM     12  C   UNL     1      28.319  23.543  27.047  0.00  0.00    +0.000 A 
ATOM     13  N   UNL     1      27.169  24.219  27.328  0.00  0.00    +0.000 N 
ATOM     14  C   UNL     1      23.717  26.226  28.784  0.00  0.00    +0.000 C 
ATOM     15  C   UNL     1      23.375  26.931  27.483  0.00  0.00    +0.000 C 
ATOM     16  C   UNL     1      23.981  26.064  26.410  0.00  0.00    +0.000 C 
ENDROOT
BRANCH   1  18
ATOM     17  C   UNL     1      26.989  25.758  24.383  0.00  0.00    +0.000 C 
ATOM     18  N   UNL     1      26.316  24.714  25.098  0.00  0.00    +0.000 N 
BRANCH  18  19
ATOM     19  C   UNL     1      25.727  23.608  24.401  0.00  0.00    +0.000 C 
BRANCH  19  20
ATOM     20  C   UNL     1      26.214  23.442  22.995  0.00  0.00    +0.000 C 
ATOM     21  O   UNL     1      25.279  22.720  22.235  0.00  0.00    +0.000 OA
ENDBRANCH  19  20
ENDBRANCH  18  19
ENDBRANCH   1  18
BRANCH   4  22
ATOM     22  C   UNL     1      25.787  25.032  30.679  0.00  0.00    +0.000 C 
ATOM     23  N   UNL     1      25.635  25.111  31.823  0.00  0.00    +0.000 NA
ENDBRANCH   4  22
TORSDOF 4
ENDMDL
MODEL 3
REMARK VINA RESULT:      -6.2      2.720      5.712
REMARK  Name = 
REMARK  4 active torsions:
REMARK  status: ('A' for Active; 'I' for Inactive)
REMARK    1  A    between atoms: N_2  and  C_3
REMARK    2  A    between atoms: N_2  and  C_6
REMARK    3  A    between atoms: C_3  and  C_4
REMARK    4  A    between atoms: C_9  and  C_10
REMARK                            x       y       z     vdW  Elec       q    Type
REMARK                         _______ _______ _______ _____ _____    ______ ____
ROOT
ATOM      1  C   UNL     1      28.245  22.902  28.664  0.00  0.00    +0.000 A 
ATOM      2  C   UNL     1      27.744  23.106  27.365  0.00  0.00    +0.000 A 
ATOM      3  C   UNL     1      28.546  23.042  26.250  0.00  0.00    +0.000 A 
ATOM      4  C   UNL     1      29.887  22.768  26.441  0.00  0.00    +0.000 A 
ATOM      5  C   UNL     1      30.361  22.572  27.720  0.00  0.00    +0.000 A 
ATOM      6  N   UNL     1      31.606  22.302  28.174  0.00  0.00    +0.000 NA
ATOM      7  C   UNL     1      31.617  22.197  29.510  0.00  0.00    +0.000 A 
ATOM      8  C   UNL     1      32.579  21.945  30.456  0.00  0.00    +0.000 A 
ATOM      9  C   UNL     1      32.324  21.891  31.813  0.00  0.00    +0.000 A 
ATOM     10  C   UNL     1      31.014  22.108  32.181  0.00  0.00    +0.000 A 
ATOM     11  C   UNL     1      30.015  22.363  31.268  0.00  0.00    +0.000 A 
ATOM     12  C   UNL     1      30.315  22.411  29.916  0.00  0.00    +0.000 A 
ATOM     13  N   UNL     1      29.563  22.638  28.802  0.00  0.00    +0.000 N 
ATOM     14  C   UNL     1      27.736  23.295  25.022  0.00  0.00    +0.000 C 
ATOM     15  C   UNL     1      26.307  23.083  25.490  0.00  0.00    +0.000 C 
ATOM     16  C   UNL     1      26.336  23.412  26.960  0.00  0.00    +0.000 C 
ENDROOT
BRANCH   1  18
ATOM     17  C   UNL     1      26.655  21.813  30.204  0.00  0.00    +0.000 C 
ATOM     18  N   UNL     1      27.345  22.985  29.752  0.00  0.00    +0.000 N 
BRANCH  18  19
ATOM     19  C   UNL     1      27.146  24.249  30.400  0.00  0.00    +0.000 C 
BRANCH  19  20
ATOM     20  C   UNL     1      25.757  24.792  30.268  0.00  0.00    +0.000 C 
ATOM     21  O   UNL     1      25.255  25.163  31.526  0.00  0.00    +0.000 OA
ENDBRANCH  19  20
ENDBRANCH  18  19
ENDBRANCH   1  18
BRANCH   4  22
ATOM     22  C   UNL     1      30.716  22.698  25.272  0.00  0.00    +0.000 C 
ATOM     23  N   UNL     1      31.384  22.624  24.329  0.00  0.00    +0.000 NA
ENDBRANCH   4  22
TORSDOF 4
ENDMDL
MODEL 4
REMARK VINA RESULT:      -6.1     31.730     33.338
REMARK  Name = 
REMARK  4 active torsions:
REMARK  status: ('A' for Active; 'I' for Inactive)
REMARK    1  A    between atoms: N_2  and  C_3
REMARK    2  A    between atoms: N_2  and  C_6
REMARK    3  A    between atoms: C_3  and  C_4
REMARK    4  A    between atoms: C_9  and  C_10
REMARK                            x       y       z     vdW  Elec       q    Type
REMARK                         _______ _______ _______ _____ _____    ______ ____
ROOT
ATOM      1  C   UNL     1      20.885  -9.221  26.212  0.00  0.00    +0.000 A 
ATOM      2  C   UNL     1      19.657  -9.032  26.874  0.00  0.00    +0.000 A 
ATOM      3  C   UNL     1      19.029  -7.811  26.920  0.00  0.00    +0.000 A 
ATOM      4  C   UNL     1      19.646  -6.748  26.288  0.00  0.00    +0.000 A 
ATOM      5  C   UNL     1      20.848  -6.951  25.646  0.00  0.00    +0.000 A 
ATOM      6  N   UNL     1      21.649  -6.096  24.970  0.00  0.00    +0.000 NA
ATOM      7  C   UNL     1      22.740  -6.723  24.509  0.00  0.00    +0.000 A 
ATOM      8  C   UNL     1      23.845  -6.346  23.786  0.00  0.00    +0.000 A 
ATOM      9  C   UNL     1      24.860  -7.213  23.432  0.00  0.00    +0.000 A 
ATOM     10  C   UNL     1      24.706  -8.516  23.852  0.00  0.00    +0.000 A 
ATOM     11  C   UNL     1      23.616  -8.941  24.579  0.00  0.00    +0.000 A 
ATOM     12  C   UNL     1      22.620  -8.037  24.914  0.00  0.00    +0.000 A 
ATOM     13  N   UNL     1      21.453  -8.153  25.609  0.00  0.00    +0.000 N 
ATOM     14  C   UNL     1      17.750  -7.921  27.684  0.00  0.00    +0.000 C 
ATOM     15  C   UNL     1      17.480  -9.416  27.706  0.00  0.00    +0.000 C 
ATOM     16  C   UNL     1      18.843 -10.050  27.610  0.00  0.00    +0.000 C 
ENDROOT
BRANCH   1  18
ATOM     17  C   UNL     1      21.110 -11.455  25.190  0.00  0.00    +0.000 C 
ATOM     18  N   UNL     1      21.457 -10.515  26.215  0.00  0.00    +0.000 N 
BRANCH  18  19
ATOM     19  C   UNL     1      22.394 -10.863  27.243  0.00  0.00    +0.000 C 
BRANCH  19  20
ATOM     20  C   UNL     1      22.166 -12.214  27.846  0.00  0.00    +0.000 C 
ATOM     21  O   UNL     1      21.350 -12.112  28.984  0.00  0.00    +0.000 OA
ENDBRANCH  19  20
ENDBRANCH  18  19
ENDBRANCH   1  18
BRANCH   4  22
ATOM     22  C   UNL     1      18.981  -5.477  26.337  0.00  0.00    +0.000 C 
ATOM     23  N   UNL     1      18.455  -4.448  26.391  0.00  0.00    +0.000 NA
ENDBRANCH   4  22
TORSDOF 4
ENDMDL
MODEL 5
REMARK VINA RESULT:      -6.1      2.569      4.509
REMARK  Name = 
REMARK  4 active torsions:
REMARK  status: ('A' for Active; 'I' for Inactive)
REMARK    1  A    between atoms: N_2  and  C_3
REMARK    2  A    between atoms: N_2  and  C_6
REMARK    3  A    between atoms: C_3  and  C_4
REMARK    4  A    between atoms: C_9  and  C_10
REMARK                            x       y       z     vdW  Elec       q    Type
REMARK                         _______ _______ _______ _____ _____    ______ ____
ROOT
ATOM      1  C   UNL     1      27.671  24.567  25.247  0.00  0.00    +0.000 A 
ATOM      2  C   UNL     1      28.707  23.713  25.668  0.00  0.00    +0.000 A 
ATOM      3  C   UNL     1      28.653  23.022  26.854  0.00  0.00    +0.000 A 
ATOM      4  C   UNL     1      27.530  23.190  27.643  0.00  0.00    +0.000 A 
ATOM      5  C   UNL     1      26.525  24.030  27.215  0.00  0.00    +0.000 A 
ATOM      6  N   UNL     1      25.347  24.369  27.788  0.00  0.00    +0.000 NA
ATOM      7  C   UNL     1      24.672  25.234  27.019  0.00  0.00    +0.000 A 
ATOM      8  C   UNL     1      23.466  25.884  27.117  0.00  0.00    +0.000 A 
ATOM      9  C   UNL     1      22.985  26.754  26.158  0.00  0.00    +0.000 A 
ATOM     10  C   UNL     1      23.800  26.943  25.063  0.00  0.00    +0.000 A 
ATOM     11  C   UNL     1      25.017  26.314  24.921  0.00  0.00    +0.000 A 
ATOM     12  C   UNL     1      25.462  25.449  25.908  0.00  0.00    +0.000 A 
ATOM     13  N   UNL     1      26.592  24.701  26.050  0.00  0.00    +0.000 N 
ATOM     14  C   UNL     1      29.889  22.201  27.026  0.00  0.00    +0.000 C 
ATOM     15  C   UNL     1      30.472  22.143  25.625  0.00  0.00    +0.000 C 
ATOM     16  C   UNL     1      29.990  23.406  24.960  0.00  0.00    +0.000 C 
ENDROOT
BRANCH   1  18
ATOM     17  C   UNL     1      28.360  26.560  23.967  0.00  0.00    +0.000 C 
ATOM     18  N   UNL     1      27.813  25.236  24.008  0.00  0.00    +0.000 N 
BRANCH  18  19
ATOM     19  C   UNL     1      27.417  24.567  22.803  0.00  0.00    +0.000 C 
BRANCH  19  20
ATOM     20  C   UNL     1      28.217  24.953  21.598  0.00  0.00    +0.000 C 
ATOM     21  O   UNL     1      29.284  24.059  21.412  0.00  0.00    +0.000 OA
ENDBRANCH  19  20
ENDBRANCH  18  19
ENDBRANCH   1  18
BRANCH   4  22
ATOM     22  C   UNL     1      27.479  22.461  28.878  0.00  0.00    +0.000 C 
ATOM     23  N   UNL     1      27.441  21.858  29.865  0.00  0.00    +0.000 NA
ENDBRANCH   4  22
TORSDOF 4
ENDMDL
MODEL 6
REMARK VINA RESULT:      -5.8      2.355      5.096
REMARK  Name = 
REMARK  4 active torsions:
REMARK  status: ('A' for Active; 'I' for Inactive)
REMARK    1  A    between atoms: N_2  and  C_3
REMARK    2  A    between atoms: N_2  and  C_6
REMARK    3  A    between atoms: C_3  and  C_4
REMARK    4  A    between atoms: C_9  and  C_10
REMARK                            x       y       z     vdW  Elec       q    Type
REMARK                         _______ _______ _______ _____ _____    ______ ____
ROOT
ATOM      1  C   UNL     1      28.472  23.809  26.182  0.00  0.00    +0.000 A 
ATOM      2  C   UNL     1      27.471  23.743  25.195  0.00  0.00    +0.000 A 
ATOM      3  C   UNL     1      27.750  23.881  23.856  0.00  0.00    +0.000 A 
ATOM      4  C   UNL     1      29.068  24.092  23.495  0.00  0.00    +0.000 A 
ATOM      5  C   UNL     1      30.034  24.154  24.474  0.00  0.00    +0.000 A 
ATOM      6  N   UNL     1      31.370  24.353  24.393  0.00  0.00    +0.000 NA
ATOM      7  C   UNL     1      31.931  24.347  25.609  0.00  0.00    +0.000 A 
ATOM      8  C   UNL     1      33.208  24.500  26.091  0.00  0.00    +0.000 A 
ATOM      9  C   UNL     1      33.531  24.454  27.433  0.00  0.00    +0.000 A 
ATOM     10  C   UNL     1      32.476  24.237  28.292  0.00  0.00    +0.000 A 
ATOM     11  C   UNL     1      31.179  24.077  27.857  0.00  0.00    +0.000 A 
ATOM     12  C   UNL     1      30.899  24.133  26.500  0.00  0.00    +0.000 A 
ATOM     13  N   UNL     1      29.746  24.018  25.782  0.00  0.00    +0.000 N 
ATOM     14  C   UNL     1      26.494  23.763  23.057  0.00  0.00    +0.000 C 
ATOM     15  C   UNL     1      25.521  23.110  24.023  0.00  0.00    +0.000 C 
ATOM     16  C   UNL     1      26.003  23.526  25.388  0.00  0.00    +0.000 C 
ENDROOT
BRANCH   1  18
ATOM     17  C   UNL     1      27.706  24.798  28.309  0.00  0.00    +0.000 C 
ATOM     18  N   UNL     1      28.092  23.654  27.536  0.00  0.00    +0.000 N 
BRANCH  18  19
ATOM     19  C   UNL     1      28.085  22.341  28.114  0.00  0.00    +0.000 C 
BRANCH  19  20
ATOM     20  C   UNL     1      27.286  22.233  29.375  0.00  0.00    +0.000 C 
ATOM     21  O   UNL     1      28.138  22.130  30.487  0.00  0.00    +0.000 OA
ENDBRANCH  19  20
ENDBRANCH  18  19
ENDBRANCH   1  18
BRANCH   4  22
ATOM     22  C   UNL     1      29.351  24.230  22.095  0.00  0.00    +0.000 C 
ATOM     23  N   UNL     1      29.582  24.359  20.968  0.00  0.00    +0.000 NA
ENDBRANCH   4  22
TORSDOF 4
ENDMDL
MODEL 7
REMARK VINA RESULT:      -5.8      2.365      4.419
REMARK  Name = 
REMARK  4 active torsions:
REMARK  status: ('A' for Active; 'I' for Inactive)
REMARK    1  A    between atoms: N_2  and  C_3
REMARK    2  A    between atoms: N_2  and  C_6
REMARK    3  A    between atoms: C_3  and  C_4
REMARK    4  A    between atoms: C_9  and  C_10
REMARK                            x       y       z     vdW  Elec       q    Type
REMARK                         _______ _______ _______ _____ _____    ______ ____
ROOT
ATOM      1  C   UNL     1      27.274  24.230  26.480  0.00  0.00    +0.000 A 
ATOM      2  C   UNL     1      28.488  23.519  26.494  0.00  0.00    +0.000 A 
ATOM      3  C   UNL     1      29.114  23.158  27.664  0.00  0.00    +0.000 A 
ATOM      4  C   UNL     1      28.507  23.518  28.853  0.00  0.00    +0.000 A 
ATOM      5  C   UNL     1      27.320  24.215  28.819  0.00  0.00    +0.000 A 
ATOM      6  N   UNL     1      26.538  24.685  29.819  0.00  0.00    +0.000 NA
ATOM      7  C   UNL     1      25.464  25.319  29.329  0.00  0.00    +0.000 A 
ATOM      8  C   UNL     1      24.384  25.967  29.878  0.00  0.00    +0.000 A 
ATOM      9  C   UNL     1      23.384  26.558  29.130  0.00  0.00    +0.000 A 
ATOM     10  C   UNL     1      23.527  26.461  27.763  0.00  0.00    +0.000 A 
ATOM     11  C   UNL     1      24.591  25.822  27.167  0.00  0.00    +0.000 A 
ATOM     12  C   UNL     1      25.574  25.244  27.955  0.00  0.00    +0.000 A 
ATOM     13  N   UNL     1      26.718  24.562  27.666  0.00  0.00    +0.000 N 
ATOM     14  C   UNL     1      30.373  22.415  27.362  0.00  0.00    +0.000 C 
ATOM     15  C   UNL     1      30.200  21.999  25.911  0.00  0.00    +0.000 C 
ATOM     16  C   UNL     1      29.290  23.046  25.323  0.00  0.00    +0.000 C 
ENDROOT
BRANCH   1  18
ATOM     17  C   UNL     1      26.962  25.834  24.632  0.00  0.00    +0.000 C 
ATOM     18  N   UNL     1      26.702  24.557  25.228  0.00  0.00    +0.000 N 
BRANCH  18  19
ATOM     19  C   UNL     1      25.875  23.591  24.564  0.00  0.00    +0.000 C 
BRANCH  19  20
ATOM     20  C   UNL     1      26.234  23.363  23.129  0.00  0.00    +0.000 C 
ATOM     21  O   UNL     1      25.181  22.720  22.458  0.00  0.00    +0.000 OA
ENDBRANCH  19  20
ENDBRANCH  18  19
ENDBRANCH   1  18
BRANCH   4  22
ATOM     22  C   UNL     1      29.165  23.133  30.069  0.00  0.00    +0.000 C 
ATOM     23  N   UNL     1      29.683  22.809  31.051  0.00  0.00    +0.000 NA
ENDBRANCH   4  22
TORSDOF 4
ENDMDL
MODEL 8
REMARK VINA RESULT:      -5.7     18.579     21.259
REMARK  Name = 
REMARK  4 active torsions:
REMARK  status: ('A' for Active; 'I' for Inactive)
REMARK    1  A    between atoms: N_2  and  C_3
REMARK    2  A    between atoms: N_2  and  C_6
REMARK    3  A    between atoms: C_3  and  C_4
REMARK    4  A    between atoms: C_9  and  C_10
REMARK                            x       y       z     vdW  Elec       q    Type
REMARK                         _______ _______ _______ _____ _____    ______ ____
ROOT
ATOM      1  C   UNL     1      19.097   9.298  40.178  0.00  0.00    +0.000 A 
ATOM      2  C   UNL     1      17.714   9.498  40.348  0.00  0.00    +0.000 A 
ATOM      3  C   UNL     1      16.903   9.927  39.325  0.00  0.00    +0.000 A 
ATOM      4  C   UNL     1      17.492  10.164  38.096  0.00  0.00    +0.000 A 
ATOM      5  C   UNL     1      18.847   9.965  37.949  0.00  0.00    +0.000 A 
ATOM      6  N   UNL     1      19.657  10.127  36.877  0.00  0.00    +0.000 NA
ATOM      7  C   UNL     1      20.925   9.822  37.183  0.00  0.00    +0.000 A 
ATOM      8  C   UNL     1      22.115   9.812  36.498  0.00  0.00    +0.000 A 
ATOM      9  C   UNL     1      23.321   9.448  37.063  0.00  0.00    +0.000 A 
ATOM     10  C   UNL     1      23.271   9.081  38.390  0.00  0.00    +0.000 A 
ATOM     11  C   UNL     1      22.102   9.074  39.119  0.00  0.00    +0.000 A 
ATOM     12  C   UNL     1      20.913   9.449  38.513  0.00  0.00    +0.000 A 
ATOM     13  N   UNL     1      19.629   9.544  38.960  0.00  0.00    +0.000 N 
ATOM     14  C   UNL     1      15.493  10.042  39.802  0.00  0.00    +0.000 C 
ATOM     15  C   UNL     1      15.486   9.223  41.082  0.00  0.00    +0.000 C 
ATOM     16  C   UNL     1      16.902   9.298  41.589  0.00  0.00    +0.000 C 
ENDROOT
BRANCH   1  18
ATOM     17  C   UNL     1      20.490   9.803  42.150  0.00  0.00    +0.000 C 
ATOM     18  N   UNL     1      19.853   8.852  41.288  0.00  0.00    +0.000 N 
BRANCH  18  19
ATOM     19  C   UNL     1      19.958   7.445  41.541  0.00  0.00    +0.000 C 
BRANCH  19  20
ATOM     20  C   UNL     1      19.432   6.584  40.435  0.00  0.00    +0.000 C 
ATOM     21  O   UNL     1      18.240   5.955  40.829  0.00  0.00    +0.000 OA
ENDBRANCH  19  20
ENDBRANCH  18  19
ENDBRANCH   1  18
BRANCH   4  22
ATOM     22  C   UNL     1      16.637  10.608  37.033  0.00  0.00    +0.000 C 
ATOM     23  N   UNL     1      15.938  10.975  36.186  0.00  0.00    +0.000 NA
ENDBRANCH   4  22
TORSDOF 4
ENDMDL
MODEL 9
REMARK VINA RESULT:      -5.7     18.127     21.199
REMARK  Name = 
REMARK  4 active torsions:
REMARK  status: ('A' for Active; 'I' for Inactive)
REMARK    1  A    between atoms: N_2  and  C_3
REMARK    2  A    between atoms: N_2  and  C_6
REMARK    3  A    between atoms: C_3  and  C_4
REMARK    4  A    between atoms: C_9  and  C_10
REMARK                            x       y       z     vdW  Elec       q    Type
REMARK                         _______ _______ _______ _____ _____    ______ ____
ROOT
ATOM      1  C   UNL     1      19.037   9.691  38.864  0.00  0.00    +0.000 A 
ATOM      2  C   UNL     1      18.182   9.410  39.946  0.00  0.00    +0.000 A 
ATOM      3  C   UNL     1      18.638   8.849  41.115  0.00  0.00    +0.000 A 
ATOM      4  C   UNL     1      19.987   8.561  41.204  0.00  0.00    +0.000 A 
ATOM      5  C   UNL     1      20.808   8.843  40.135  0.00  0.00    +0.000 A 
ATOM      6  N   UNL     1      22.138   8.657  39.963  0.00  0.00    +0.000 NA
ATOM      7  C   UNL     1      22.527   9.072  38.750  0.00  0.00    +0.000 A 
ATOM      8  C   UNL     1      23.722   9.112  38.075  0.00  0.00    +0.000 A 
ATOM      9  C   UNL     1      23.860   9.602  36.791  0.00  0.00    +0.000 A 
ATOM     10  C   UNL     1      22.703  10.064  36.202  0.00  0.00    +0.000 A 
ATOM     11  C   UNL     1      21.482  10.044  36.840  0.00  0.00    +0.000 A 
ATOM     12  C   UNL     1      21.388   9.542  38.128  0.00  0.00    +0.000 A 
ATOM     13  N   UNL     1      20.348   9.392  38.996  0.00  0.00    +0.000 N 
ATOM     14  C   UNL     1      17.507   8.673  42.074  0.00  0.00    +0.000 C 
ATOM     15  C   UNL     1      16.426   9.584  41.517  0.00  0.00    +0.000 C 
ATOM     16  C   UNL     1      16.707   9.646  40.038  0.00  0.00    +0.000 C 
ENDROOT
BRANCH   1  18
ATOM     17  C   UNL     1      18.412  11.697  37.571  0.00  0.00    +0.000 C 
ATOM     18  N   UNL     1      18.479  10.272  37.701  0.00  0.00    +0.000 N 
BRANCH  18  19
ATOM     19  C   UNL     1      17.998   9.416  36.655  0.00  0.00    +0.000 C 
BRANCH  19  20
ATOM     20  C   UNL     1      17.261  10.134  35.568  0.00  0.00    +0.000 C 
ATOM     21  O   UNL     1      17.970  10.051  34.359  0.00  0.00    +0.000 OA
ENDBRANCH  19  20
ENDBRANCH  18  19
ENDBRANCH   1  18
BRANCH   4  22
ATOM     22  C   UNL     1      20.456   7.980  42.430  0.00  0.00    +0.000 C 
ATOM     23  N   UNL     1      20.850   7.516  43.414  0.00  0.00    +0.000 NA
ENDBRANCH   4  22
TORSDOF 4
ENDMDL
MODEL 10
REMARK VINA RESULT:      -5.6     20.105     22.083
REMARK  Name = 
REMARK  4 active torsions:
REMARK  status: ('A' for Active; 'I' for Inactive)
REMARK    1  A    between atoms: N_2  and  C_3
REMARK    2  A    between atoms: N_2  and  C_6
REMARK    3  A    between atoms: C_3  and  C_4
REMARK    4  A    between atoms: C_9  and  C_10
REMARK                            x       y       z     vdW  Elec       q    Type
REMARK                         _______ _______ _______ _____ _____    ______ ____
ROOT
ATOM      1  C   UNL     1      25.868   4.805  16.730  0.00  0.00    +0.000 A 
ATOM      2  C   UNL     1      26.800   5.601  17.421  0.00  0.00    +0.000 A 
ATOM      3  C   UNL     1      27.558   6.559  16.790  0.00  0.00    +0.000 A 
ATOM      4  C   UNL     1      27.380   6.723  15.429  0.00  0.00    +0.000 A 
ATOM      5  C   UNL     1      26.464   5.934  14.769  0.00  0.00    +0.000 A 
ATOM      6  N   UNL     1      26.108   5.888  13.464  0.00  0.00    +0.000 NA
ATOM      7  C   UNL     1      25.171   4.953  13.255  0.00  0.00    +0.000 A 
ATOM      8  C   UNL     1      24.481   4.498  12.159  0.00  0.00    +0.000 A 
ATOM      9  C   UNL     1      23.540   3.488  12.211  0.00  0.00    +0.000 A 
ATOM     10  C   UNL     1      23.320   2.944  13.458  0.00  0.00    +0.000 A 
ATOM     11  C   UNL     1      23.987   3.367  14.586  0.00  0.00    +0.000 A 
ATOM     12  C   UNL     1      24.925   4.383  14.488  0.00  0.00    +0.000 A 
ATOM     13  N   UNL     1      25.728   5.000  15.400  0.00  0.00    +0.000 N 
ATOM     14  C   UNL     1      28.448   7.240  17.777  0.00  0.00    +0.000 C 
ATOM     15  C   UNL     1      27.825   6.888  19.117  0.00  0.00    +0.000 C 
ATOM     16  C   UNL     1      27.133   5.570  18.880  0.00  0.00    +0.000 C 
ENDROOT
BRANCH   1  18
ATOM     17  C   UNL     1      25.615   2.502  17.577  0.00  0.00    +0.000 C 
ATOM     18  N   UNL     1      25.130   3.846  17.463  0.00  0.00    +0.000 N 
BRANCH  18  19
ATOM     19  C   UNL     1      23.906   4.241  18.096  0.00  0.00    +0.000 C 
BRANCH  19  20
ATOM     20  C   UNL     1      22.873   3.160  18.158  0.00  0.00    +0.000 C 
ATOM     21  O   UNL     1      21.634   3.689  18.556  0.00  0.00    +0.000 OA
ENDBRANCH  19  20
ENDBRANCH  18  19
ENDBRANCH   1  18
BRANCH   4  22
ATOM     22  C   UNL     1      28.172   7.728  14.779  0.00  0.00    +0.000 C 
ATOM     23  N   UNL     1      28.823   8.526  14.251  0.00  0.00    +0.000 NA
ENDBRANCH   4  22
TORSDOF 4
ENDMDL
