MODEL 1
REMARK VINA RESULT:      -7.5      0.000      0.000
REMARK  Name = 
REMARK  7 active torsions:
REMARK  status: ('A' for Active; 'I' for Inactive)
REMARK    1  A    between atoms: C_2  and  C_4
REMARK    2  A    between atoms: C_7  and  N_8
REMARK    3  A    between atoms: N_8  and  C_9
REMARK    4  A    between atoms: C_10  and  S_11
REMARK    5  A    between atoms: S_11  and  C_12
REMARK    6  A    between atoms: N_20  and  C_21
REMARK    7  A    between atoms: C_21  and  C_22
REMARK                            x       y       z     vdW  Elec       q    Type
REMARK                         _______ _______ _______ _____ _____    ______ ____
ROOT
ATOM      1  C   UNL     1      38.324   1.852  13.827  0.00  0.00    +0.000 C 
ATOM      2  C   UNL     1      37.139   2.192  14.308  0.00  0.00    +0.000 C 
ATOM      3  C   UNL     1      37.174   3.589  14.722  0.00  0.00    +0.000 C 
ATOM      4  O   UNL     1      36.198   4.224  15.227  0.00  0.00    +0.000 OA
ATOM      5  N   UNL     1      38.484   4.059  14.450  0.00  0.00    +0.000 N 
ATOM      6  C   UNL     1      39.234   2.991  13.885  0.00  0.00    +0.000 C 
ATOM      7  O   UNL     1      40.440   3.002  13.506  0.00  0.00    +0.000 OA
ENDROOT
BRANCH   1   8
ATOM      8  N   UNL     1      38.650   0.559  13.329  0.00  0.00    +0.000 NA
BRANCH   8  12
ATOM      9  C   UNL     1      38.511  -2.829  15.804  0.00  0.00    +0.000 A 
ATOM     10  C   UNL     1      37.996  -2.856  14.529  0.00  0.00    +0.000 A 
ATOM     11  C   UNL     1      38.045  -1.746  13.728  0.00  0.00    +0.000 A 
ATOM     12  C   UNL     1      38.613  -0.590  14.194  0.00  0.00    +0.000 A 
ATOM     13  C   UNL     1      39.131  -0.554  15.467  0.00  0.00    +0.000 A 
ATOM     14  C   UNL     1      39.080  -1.680  16.277  0.00  0.00    +0.000 A 
BRANCH   9  16
ATOM     15  C   UNL     1      38.523  -3.637  18.081  0.00  0.00    +0.000 C 
ATOM     16  C   UNL     1      38.421  -4.082  16.620  0.00  0.00    +0.000 C 
ATOM     17  C   UNL     1      37.072  -4.712  16.348  0.00  0.00    +0.000 C 
ENDBRANCH   9  16
ENDBRANCH   8  12
ENDBRANCH   1   8
BRANCH   2  18
ATOM     18  S   UNL     1      35.686   1.131  14.445  0.00  0.00    +0.000 S 
BRANCH  18  19
ATOM     19  C   UNL     1      35.694   0.359  16.045  0.00  0.00    +0.000 A 
ATOM     20  C   UNL     1      36.073   1.082  17.143  0.00  0.00    +0.000 A 
ATOM     21  C   UNL     1      36.086   0.503  18.392  0.00  0.00    +0.000 A 
ATOM     22  C   UNL     1      35.709  -0.829  18.515  0.00  0.00    +0.000 A 
ATOM     23  C   UNL     1      35.333  -1.540  17.402  0.00  0.00    +0.000 A 
ATOM     24  C   UNL     1      35.325  -0.951  16.171  0.00  0.00    +0.000 A 
ENDBRANCH  18  19
ENDBRANCH   2  18
BRANCH   5  25
ATOM     25  C   UNL     1      38.968   5.386  14.701  0.00  0.00    +0.000 C 
BRANCH  25  26
ATOM     26  C   UNL     1      39.331   5.476  16.150  0.00  0.00    +0.000 A 
ATOM     27  C   UNL     1      40.483   6.121  16.540  0.00  0.00    +0.000 A 
ATOM     28  C   UNL     1      40.880   6.244  17.846  0.00  0.00    +0.000 A 
ATOM     29  C   UNL     1      40.057   5.680  18.807  0.00  0.00    +0.000 A 
ATOM     30  C   UNL     1      38.896   5.026  18.459  0.00  0.00    +0.000 A 
ATOM     31  C   UNL     1      38.546   4.933  17.132  0.00  0.00    +0.000 A 
ENDBRANCH  25  26
ENDBRANCH   5  25
TORSDOF 7
ENDMDL
MODEL 2
REMARK VINA RESULT:      -7.4      2.887      7.963
REMARK  Name = 
REMARK  7 active torsions:
REMARK  status: ('A' for Active; 'I' for Inactive)
REMARK    1  A    between atoms: C_2  and  C_4
REMARK    2  A    between atoms: C_7  and  N_8
REMARK    3  A    between atoms: N_8  and  C_9
REMARK    4  A    between atoms: C_10  and  S_11
REMARK    5  A    between atoms: S_11  and  C_12
REMARK    6  A    between atoms: N_20  and  C_21
REMARK    7  A    between atoms: C_21  and  C_22
REMARK                            x       y       z     vdW  Elec       q    Type
REMARK                         _______ _______ _______ _____ _____    ______ ____
ROOT
ATOM      1  C   UNL     1      37.513   3.820  16.046  0.00  0.00    +0.000 C 
ATOM      2  C   UNL     1      36.836   3.666  14.919  0.00  0.00    +0.000 C 
ATOM      3  C   UNL     1      35.760   2.707  15.136  0.00  0.00    +0.000 C 
ATOM      4  O   UNL     1      34.925   2.337  14.254  0.00  0.00    +0.000 OA
ATOM      5  N   UNL     1      35.849   2.298  16.491  0.00  0.00    +0.000 N 
ATOM      6  C   UNL     1      36.942   2.980  17.093  0.00  0.00    +0.000 C 
ATOM      7  O   UNL     1      37.353   2.893  18.286  0.00  0.00    +0.000 OA
ENDROOT
BRANCH   1   8
ATOM      8  N   UNL     1      38.634   4.684  16.198  0.00  0.00    +0.000 NA
BRANCH   8  12
ATOM      9  C   UNL     1      38.812   7.434  19.365  0.00  0.00    +0.000 A 
ATOM     10  C   UNL     1      39.528   6.261  19.400  0.00  0.00    +0.000 A 
ATOM     11  C   UNL     1      39.464   5.368  18.362  0.00  0.00    +0.000 A 
ATOM     12  C   UNL     1      38.680   5.640  17.272  0.00  0.00    +0.000 A 
ATOM     13  C   UNL     1      37.962   6.812  17.229  0.00  0.00    +0.000 A 
ATOM     14  C   UNL     1      38.028   7.715  18.282  0.00  0.00    +0.000 A 
BRANCH   9  16
ATOM     15  C   UNL     1      40.262   9.096  20.351  0.00  0.00    +0.000 C 
ATOM     16  C   UNL     1      38.933   8.360  20.537  0.00  0.00    +0.000 C 
ATOM     17  C   UNL     1      37.773   9.331  20.477  0.00  0.00    +0.000 C 
ENDBRANCH   9  16
ENDBRANCH   8  12
ENDBRANCH   1   8
BRANCH   2  18
ATOM     18  S   UNL     1      37.157   4.489  13.346  0.00  0.00    +0.000 S 
BRANCH  18  19
ATOM     19  C   UNL     1      35.796   5.572  12.982  0.00  0.00    +0.000 A 
ATOM     20  C   UNL     1      34.925   5.920  13.977  0.00  0.00    +0.000 A 
ATOM     21  C   UNL     1      33.864   6.758  13.717  0.00  0.00    +0.000 A 
ATOM     22  C   UNL     1      33.696   7.243  12.426  0.00  0.00    +0.000 A 
ATOM     23  C   UNL     1      34.581   6.883  11.439  0.00  0.00    +0.000 A 
ATOM     24  C   UNL     1      35.627   6.051  11.714  0.00  0.00    +0.000 A 
ENDBRANCH  18  19
ENDBRANCH   2  18
BRANCH   5  25
ATOM     25  C   UNL     1      34.984   1.358  17.142  0.00  0.00    +0.000 C 
BRANCH  25  26
ATOM     26  C   UNL     1      35.811   0.181  17.556  0.00  0.00    +0.000 A 
ATOM     27  C   UNL     1      36.464  -0.577  16.610  0.00  0.00    +0.000 A 
ATOM     28  C   UNL     1      37.239  -1.666  16.912  0.00  0.00    +0.000 A 
ATOM     29  C   UNL     1      37.355  -2.000  18.251  0.00  0.00    +0.000 A 
ATOM     30  C   UNL     1      36.719  -1.267  19.228  0.00  0.00    +0.000 A 
ATOM     31  C   UNL     1      35.954  -0.183  18.868  0.00  0.00    +0.000 A 
ENDBRANCH  25  26
ENDBRANCH   5  25
TORSDOF 7
ENDMDL
MODEL 3
REMARK VINA RESULT:      -7.4      1.945      6.230
REMARK  Name = 
REMARK  7 active torsions:
REMARK  status: ('A' for Active; 'I' for Inactive)
REMARK    1  A    between atoms: C_2  and  C_4
REMARK    2  A    between atoms: C_7  and  N_8
REMARK    3  A    between atoms: N_8  and  C_9
REMARK    4  A    between atoms: C_10  and  S_11
REMARK    5  A    between atoms: S_11  and  C_12
REMARK    6  A    between atoms: N_20  and  C_21
REMARK    7  A    between atoms: C_21  and  C_22
REMARK                            x       y       z     vdW  Elec       q    Type
REMARK                         _______ _______ _______ _____ _____    ______ ____
ROOT
ATOM      1  C   UNL     1      37.463   3.233  14.332  0.00  0.00    +0.000 C 
ATOM      2  C   UNL     1      36.637   2.218  14.532  0.00  0.00    +0.000 C 
ATOM      3  C   UNL     1      37.095   1.071  13.758  0.00  0.00    +0.000 C 
ATOM      4  O   UNL     1      36.524  -0.062  13.729  0.00  0.00    +0.000 OA
ATOM      5  N   UNL     1      38.266   1.485  13.075  0.00  0.00    +0.000 N 
ATOM      6  C   UNL     1      38.526   2.841  13.414  0.00  0.00    +0.000 C 
ATOM      7  O   UNL     1      39.476   3.575  13.016  0.00  0.00    +0.000 OA
ENDROOT
BRANCH   1   8
ATOM      8  N   UNL     1      37.321   4.516  14.933  0.00  0.00    +0.000 NA
BRANCH   8  12
ATOM      9  C   UNL     1      39.648   5.617  18.249  0.00  0.00    +0.000 A 
ATOM     10  C   UNL     1      39.827   6.215  17.023  0.00  0.00    +0.000 A 
ATOM     11  C   UNL     1      39.063   5.849  15.946  0.00  0.00    +0.000 A 
ATOM     12  C   UNL     1      38.106   4.878  16.082  0.00  0.00    +0.000 A 
ATOM     13  C   UNL     1      37.921   4.276  17.304  0.00  0.00    +0.000 A 
ATOM     14  C   UNL     1      38.696   4.647  18.394  0.00  0.00    +0.000 A 
BRANCH   9  16
ATOM     15  C   UNL     1      41.761   6.685  18.728  0.00  0.00    +0.000 C 
ATOM     16  C   UNL     1      40.521   6.070  19.379  0.00  0.00    +0.000 C 
ATOM     17  C   UNL     1      39.754   7.116  20.161  0.00  0.00    +0.000 C 
ENDBRANCH   9  16
ENDBRANCH   8  12
ENDBRANCH   1   8
BRANCH   2  18
ATOM     18  S   UNL     1      35.172   2.211  15.585  0.00  0.00    +0.000 S 
BRANCH  18  19
ATOM     19  C   UNL     1      35.386   0.980  16.849  0.00  0.00    +0.000 A 
ATOM     20  C   UNL     1      36.124   1.275  17.962  0.00  0.00    +0.000 A 
ATOM     21  C   UNL     1      36.302   0.336  18.953  0.00  0.00    +0.000 A 
ATOM     22  C   UNL     1      35.718  -0.915  18.801  0.00  0.00    +0.000 A 
ATOM     23  C   UNL     1      34.980  -1.195  17.676  0.00  0.00    +0.000 A 
ATOM     24  C   UNL     1      34.813  -0.252  16.703  0.00  0.00    +0.000 A 
ENDBRANCH  18  19
ENDBRANCH   2  18
BRANCH   5  25
ATOM     25  C   UNL     1      39.054   0.674  12.192  0.00  0.00    +0.000 C 
BRANCH  25  26
ATOM     26  C   UNL     1      39.966  -0.166  13.030  0.00  0.00    +0.000 A 
ATOM     27  C   UNL     1      39.691  -1.499  13.237  0.00  0.00    +0.000 A 
ATOM     28  C   UNL     1      40.480  -2.329  13.990  0.00  0.00    +0.000 A 
ATOM     29  C   UNL     1      41.609  -1.770  14.564  0.00  0.00    +0.000 A 
ATOM     30  C   UNL     1      41.920  -0.442  14.381  0.00  0.00    +0.000 A 
ATOM     31  C   UNL     1      41.094   0.346  13.615  0.00  0.00    +0.000 A 
ENDBRANCH  25  26
ENDBRANCH   5  25
TORSDOF 7
ENDMDL
MODEL 4
REMARK VINA RESULT:      -7.3      2.281      3.788
REMARK  Name = 
REMARK  7 active torsions:
REMARK  status: ('A' for Active; 'I' for Inactive)
REMARK    1  A    between atoms: C_2  and  C_4
REMARK    2  A    between atoms: C_7  and  N_8
REMARK    3  A    between atoms: N_8  and  C_9
REMARK    4  A    between atoms: C_10  and  S_11
REMARK    5  A    between atoms: S_11  and  C_12
REMARK    6  A    between atoms: N_20  and  C_21
REMARK    7  A    between atoms: C_21  and  C_22
REMARK                            x       y       z     vdW  Elec       q    Type
REMARK                         _______ _______ _______ _____ _____    ______ ____
ROOT
ATOM      1  C   UNL     1      36.366  -0.203  14.596  0.00  0.00    +0.000 C 
ATOM      2  C   UNL     1      35.611  -0.213  15.683  0.00  0.00    +0.000 C 
ATOM      3  C   UNL     1      35.238   1.155  16.019  0.00  0.00    +0.000 C 
ATOM      4  O   UNL     1      34.517   1.492  17.007  0.00  0.00    +0.000 OA
ATOM      5  N   UNL     1      35.835   1.989  15.039  0.00  0.00    +0.000 N 
ATOM      6  C   UNL     1      36.551   1.166  14.128  0.00  0.00    +0.000 C 
ATOM      7  O   UNL     1      37.219   1.524  13.115  0.00  0.00    +0.000 OA
ENDROOT
BRANCH   1   8
ATOM      8  N   UNL     1      36.909  -1.367  13.983  0.00  0.00    +0.000 NA
BRANCH   8  12
ATOM      9  C   UNL     1      41.062  -1.983  13.982  0.00  0.00    +0.000 A 
ATOM     10  C   UNL     1      40.429  -1.402  15.056  0.00  0.00    +0.000 A 
ATOM     11  C   UNL     1      39.072  -1.204  15.048  0.00  0.00    +0.000 A 
ATOM     12  C   UNL     1      38.330  -1.588  13.962  0.00  0.00    +0.000 A 
ATOM     13  C   UNL     1      38.957  -2.170  12.885  0.00  0.00    +0.000 A 
ATOM     14  C   UNL     1      40.330  -2.369  12.894  0.00  0.00    +0.000 A 
BRANCH   9  16
ATOM     15  C   UNL     1      42.976  -2.709  12.699  0.00  0.00    +0.000 C 
ATOM     16  C   UNL     1      42.546  -2.167  14.064  0.00  0.00    +0.000 C 
ATOM     17  C   UNL     1      43.165  -0.809  14.318  0.00  0.00    +0.000 C 
ENDBRANCH   9  16
ENDBRANCH   8  12
ENDBRANCH   1   8
BRANCH   2  18
ATOM     18  S   UNL     1      35.100  -1.663  16.629  0.00  0.00    +0.000 S 
BRANCH  18  19
ATOM     19  C   UNL     1      36.541  -2.401  17.361  0.00  0.00    +0.000 A 
ATOM     20  C   UNL     1      37.018  -3.585  16.868  0.00  0.00    +0.000 A 
ATOM     21  C   UNL     1      38.134  -4.174  17.420  0.00  0.00    +0.000 A 
ATOM     22  C   UNL     1      38.764  -3.544  18.486  0.00  0.00    +0.000 A 
ATOM     23  C   UNL     1      38.270  -2.355  18.969  0.00  0.00    +0.000 A 
ATOM     24  C   UNL     1      37.164  -1.785  18.409  0.00  0.00    +0.000 A 
ENDBRANCH  18  19
ENDBRANCH   2  18
BRANCH   5  25
ATOM     25  C   UNL     1      35.732   3.419  14.979  0.00  0.00    +0.000 C 
BRANCH  25  26
ATOM     26  C   UNL     1      36.998   3.994  15.531  0.00  0.00    +0.000 A 
ATOM     27  C   UNL     1      37.278   3.898  16.877  0.00  0.00    +0.000 A 
ATOM     28  C   UNL     1      38.415   4.400  17.454  0.00  0.00    +0.000 A 
ATOM     29  C   UNL     1      39.316   5.033  16.615  0.00  0.00    +0.000 A 
ATOM     30  C   UNL     1      39.075   5.150  15.264  0.00  0.00    +0.000 A 
ATOM     31  C   UNL     1      37.917   4.628  14.738  0.00  0.00    +0.000 A 
ENDBRANCH  25  26
ENDBRANCH   5  25
TORSDOF 7
ENDMDL
MODEL 5
REMARK VINA RESULT:      -7.3      2.337      3.174
REMARK  Name = 
REMARK  7 active torsions:
REMARK  status: ('A' for Active; 'I' for Inactive)
REMARK    1  A    between atoms: C_2  and  C_4
REMARK    2  A    between atoms: C_7  and  N_8
REMARK    3  A    between atoms: N_8  and  C_9
REMARK    4  A    between atoms: C_10  and  S_11
REMARK    5  A    between atoms: S_11  and  C_12
REMARK    6  A    between atoms: N_20  and  C_21
REMARK    7  A    between atoms: C_21  and  C_22
REMARK                            x       y       z     vdW  Elec       q    Type
REMARK                         _______ _______ _______ _____ _____    ______ ____
ROOT
ATOM      1  C   UNL     1      38.023   1.322  13.988  0.00  0.00    +0.000 C 
ATOM      2  C   UNL     1      37.051   1.047  14.843  0.00  0.00    +0.000 C 
ATOM      3  C   UNL     1      36.582   2.287  15.448  0.00  0.00    +0.000 C 
ATOM      4  O   UNL     1      35.656   2.371  16.312  0.00  0.00    +0.000 OA
ATOM      5  N   UNL     1      37.356   3.332  14.882  0.00  0.00    +0.000 N 
ATOM      6  C   UNL     1      38.273   2.759  13.959  0.00  0.00    +0.000 C 
ATOM      7  O   UNL     1      39.136   3.351  13.249  0.00  0.00    +0.000 OA
ENDROOT
BRANCH   1   8
ATOM      8  N   UNL     1      38.714   0.347  13.215  0.00  0.00    +0.000 NA
BRANCH   8  12
ATOM      9  C   UNL     1      42.466  -1.076  14.446  0.00  0.00    +0.000 A 
ATOM     10  C   UNL     1      42.336   0.144  13.825  0.00  0.00    +0.000 A 
ATOM     11  C   UNL     1      41.107   0.601  13.426  0.00  0.00    +0.000 A 
ATOM     12  C   UNL     1      39.989  -0.160  13.645  0.00  0.00    +0.000 A 
ATOM     13  C   UNL     1      40.111  -1.381  14.266  0.00  0.00    +0.000 A 
ATOM     14  C   UNL     1      41.357  -1.842  14.669  0.00  0.00    +0.000 A 
BRANCH   9  16
ATOM     15  C   UNL     1      44.492  -2.078  13.592  0.00  0.00    +0.000 C 
ATOM     16  C   UNL     1      43.842  -1.508  14.854  0.00  0.00    +0.000 C 
ATOM     17  C   UNL     1      44.588  -0.278  15.329  0.00  0.00    +0.000 C 
ENDBRANCH   9  16
ENDBRANCH   8  12
ENDBRANCH   1   8
BRANCH   2  18
ATOM     18  S   UNL     1      36.382  -0.584  15.228  0.00  0.00    +0.000 S 
BRANCH  18  19
ATOM     19  C   UNL     1      36.825  -1.001  16.898  0.00  0.00    +0.000 A 
ATOM     20  C   UNL     1      36.046  -0.564  17.933  0.00  0.00    +0.000 A 
ATOM     21  C   UNL     1      36.371  -0.876  19.234  0.00  0.00    +0.000 A 
ATOM     22  C   UNL     1      37.505  -1.642  19.475  0.00  0.00    +0.000 A 
ATOM     23  C   UNL     1      38.277  -2.072  18.422  0.00  0.00    +0.000 A 
ATOM     24  C   UNL     1      37.940  -1.754  17.139  0.00  0.00    +0.000 A 
ENDBRANCH  18  19
ENDBRANCH   2  18
BRANCH   5  25
ATOM     25  C   UNL     1      37.235   4.727  15.191  0.00  0.00    +0.000 C 
BRANCH  25  26
ATOM     26  C   UNL     1      38.259   5.059  16.231  0.00  0.00    +0.000 A 
ATOM     27  C   UNL     1      39.398   5.754  15.889  0.00  0.00    +0.000 A 
ATOM     28  C   UNL     1      40.377   6.094  16.786  0.00  0.00    +0.000 A 
ATOM     29  C   UNL     1      40.185   5.705  18.101  0.00  0.00    +0.000 A 
ATOM     30  C   UNL     1      39.060   5.010  18.484  0.00  0.00    +0.000 A 
ATOM     31  C   UNL     1      38.108   4.696  17.542  0.00  0.00    +0.000 A 
ENDBRANCH  25  26
ENDBRANCH   5  25
TORSDOF 7
ENDMDL
MODEL 6
REMARK VINA RESULT:      -7.3      2.879      6.495
REMARK  Name = 
REMARK  7 active torsions:
REMARK  status: ('A' for Active; 'I' for Inactive)
REMARK    1  A    between atoms: C_2  and  C_4
REMARK    2  A    between atoms: C_7  and  N_8
REMARK    3  A    between atoms: N_8  and  C_9
REMARK    4  A    between atoms: C_10  and  S_11
REMARK    5  A    between atoms: S_11  and  C_12
REMARK    6  A    between atoms: N_20  and  C_21
REMARK    7  A    between atoms: C_21  and  C_22
REMARK                            x       y       z     vdW  Elec       q    Type
REMARK                         _______ _______ _______ _____ _____    ______ ____
ROOT
ATOM      1  C   UNL     1      37.469   4.084  15.231  0.00  0.00    +0.000 C 
ATOM      2  C   UNL     1      36.343   3.472  15.563  0.00  0.00    +0.000 C 
ATOM      3  C   UNL     1      35.261   3.976  14.727  0.00  0.00    +0.000 C 
ATOM      4  O   UNL     1      34.052   3.596  14.792  0.00  0.00    +0.000 OA
ATOM      5  N   UNL     1      35.834   4.945  13.863  0.00  0.00    +0.000 N 
ATOM      6  C   UNL     1      37.223   5.036  14.154  0.00  0.00    +0.000 C 
ATOM      7  O   UNL     1      38.086   5.782  13.607  0.00  0.00    +0.000 OA
ENDROOT
BRANCH   1   8
ATOM      8  N   UNL     1      38.729   3.837  15.845  0.00  0.00    +0.000 NA
BRANCH   8  12
ATOM      9  C   UNL     1      40.301   6.547  18.638  0.00  0.00    +0.000 A 
ATOM     10  C   UNL     1      39.298   5.672  18.982  0.00  0.00    +0.000 A 
ATOM     11  C   UNL     1      38.790   4.790  18.064  0.00  0.00    +0.000 A 
ATOM     12  C   UNL     1      39.282   4.773  16.786  0.00  0.00    +0.000 A 
ATOM     13  C   UNL     1      40.286   5.646  16.434  0.00  0.00    +0.000 A 
ATOM     14  C   UNL     1      40.798   6.538  17.365  0.00  0.00    +0.000 A 
BRANCH   9  16
ATOM     15  C   UNL     1      39.589   7.832  20.557  0.00  0.00    +0.000 C 
ATOM     16  C   UNL     1      40.805   7.481  19.696  0.00  0.00    +0.000 C 
ATOM     17  C   UNL     1      41.838   6.734  20.513  0.00  0.00    +0.000 C 
ENDBRANCH   9  16
ENDBRANCH   8  12
ENDBRANCH   1   8
BRANCH   2  18
ATOM     18  S   UNL     1      36.135   2.211  16.837  0.00  0.00    +0.000 S 
BRANCH  18  19
ATOM     19  C   UNL     1      36.177   0.611  16.066  0.00  0.00    +0.000 A 
ATOM     20  C   UNL     1      35.487  -0.428  16.627  0.00  0.00    +0.000 A 
ATOM     21  C   UNL     1      35.506  -1.676  16.046  0.00  0.00    +0.000 A 
ATOM     22  C   UNL     1      36.239  -1.859  14.880  0.00  0.00    +0.000 A 
ATOM     23  C   UNL     1      36.927  -0.804  14.331  0.00  0.00    +0.000 A 
ATOM     24  C   UNL     1      36.897   0.426  14.920  0.00  0.00    +0.000 A 
ENDBRANCH  18  19
ENDBRANCH   2  18
BRANCH   5  25
ATOM     25  C   UNL     1      35.132   5.701  12.868  0.00  0.00    +0.000 C 
BRANCH  25  26
ATOM     26  C   UNL     1      34.839   7.053  13.439  0.00  0.00    +0.000 A 
ATOM     27  C   UNL     1      33.869   7.205  14.405  0.00  0.00    +0.000 A 
ATOM     28  C   UNL     1      33.546   8.410  14.974  0.00  0.00    +0.000 A 
ATOM     29  C   UNL     1      34.251   9.518  14.536  0.00  0.00    +0.000 A 
ATOM     30  C   UNL     1      35.229   9.409  13.573  0.00  0.00    +0.000 A 
ATOM     31  C   UNL     1      35.512   8.175  13.036  0.00  0.00    +0.000 A 
ENDBRANCH  25  26
ENDBRANCH   5  25
TORSDOF 7
ENDMDL
MODEL 7
REMARK VINA RESULT:      -7.2      2.364      7.222
REMARK  Name = 
REMARK  7 active torsions:
REMARK  status: ('A' for Active; 'I' for Inactive)
REMARK    1  A    between atoms: C_2  and  C_4
REMARK    2  A    between atoms: C_7  and  N_8
REMARK    3  A    between atoms: N_8  and  C_9
REMARK    4  A    between atoms: C_10  and  S_11
REMARK    5  A    between atoms: S_11  and  C_12
REMARK    6  A    between atoms: N_20  and  C_21
REMARK    7  A    between atoms: C_21  and  C_22
REMARK                            x       y       z     vdW  Elec       q    Type
REMARK                         _______ _______ _______ _____ _____    ______ ____
ROOT
ATOM      1  C   UNL     1      36.276   0.884  14.785  0.00  0.00    +0.000 C 
ATOM      2  C   UNL     1      36.897   0.042  13.974  0.00  0.00    +0.000 C 
ATOM      3  C   UNL     1      36.709  -1.318  14.464  0.00  0.00    +0.000 C 
ATOM      4  O   UNL     1      37.178  -2.361  13.914  0.00  0.00    +0.000 OA
ATOM      5  N   UNL     1      35.922  -1.220  15.639  0.00  0.00    +0.000 N 
ATOM      6  C   UNL     1      35.632   0.153  15.870  0.00  0.00    +0.000 C 
ATOM      7  O   UNL     1      34.957   0.658  16.813  0.00  0.00    +0.000 OA
ENDROOT
BRANCH   1   8
ATOM      8  N   UNL     1      36.250   2.297  14.610  0.00  0.00    +0.000 NA
BRANCH   8  12
ATOM      9  C   UNL     1      38.991   4.746  16.638  0.00  0.00    +0.000 A 
ATOM     10  C   UNL     1      37.857   4.278  17.261  0.00  0.00    +0.000 A 
ATOM     11  C   UNL     1      36.967   3.479  16.592  0.00  0.00    +0.000 A 
ATOM     12  C   UNL     1      37.202   3.136  15.286  0.00  0.00    +0.000 A 
ATOM     13  C   UNL     1      38.334   3.600  14.657  0.00  0.00    +0.000 A 
ATOM     14  C   UNL     1      39.233   4.409  15.336  0.00  0.00    +0.000 A 
BRANCH   9  16
ATOM     15  C   UNL     1      39.890   6.985  16.757  0.00  0.00    +0.000 C 
ATOM     16  C   UNL     1      39.917   5.613  17.435  0.00  0.00    +0.000 C 
ATOM     17  C   UNL     1      39.365   5.704  18.842  0.00  0.00    +0.000 C 
ENDBRANCH   9  16
ENDBRANCH   8  12
ENDBRANCH   1   8
BRANCH   2  18
ATOM     18  S   UNL     1      37.835   0.464  12.492  0.00  0.00    +0.000 S 
BRANCH  18  19
ATOM     19  C   UNL     1      39.541   0.044  12.759  0.00  0.00    +0.000 A 
ATOM     20  C   UNL     1      40.221  -0.659  11.803  0.00  0.00    +0.000 A 
ATOM     21  C   UNL     1      41.543  -0.994  11.990  0.00  0.00    +0.000 A 
ATOM     22  C   UNL     1      42.172  -0.605  13.166  0.00  0.00    +0.000 A 
ATOM     23  C   UNL     1      41.473   0.100  14.115  0.00  0.00    +0.000 A 
ATOM     24  C   UNL     1      40.163   0.425  13.914  0.00  0.00    +0.000 A 
ENDBRANCH  18  19
ENDBRANCH   2  18
BRANCH   5  25
ATOM     25  C   UNL     1      35.493  -2.319  16.456  0.00  0.00    +0.000 C 
BRANCH  25  26
ATOM     26  C   UNL     1      36.574  -2.602  17.450  0.00  0.00    +0.000 A 
ATOM     27  C   UNL     1      37.494  -3.599  17.213  0.00  0.00    +0.000 A 
ATOM     28  C   UNL     1      38.511  -3.915  18.076  0.00  0.00    +0.000 A 
ATOM     29  C   UNL     1      38.594  -3.176  19.244  0.00  0.00    +0.000 A 
ATOM     30  C   UNL     1      37.695  -2.171  19.519  0.00  0.00    +0.000 A 
ATOM     31  C   UNL     1      36.694  -1.895  18.617  0.00  0.00    +0.000 A 
ENDBRANCH  25  26
ENDBRANCH   5  25
TORSDOF 7
ENDMDL
MODEL 8
REMARK VINA RESULT:      -7.1      3.766      7.914
REMARK  Name = 
REMARK  7 active torsions:
REMARK  status: ('A' for Active; 'I' for Inactive)
REMARK    1  A    between atoms: C_2  and  C_4
REMARK    2  A    between atoms: C_7  and  N_8
REMARK    3  A    between atoms: N_8  and  C_9
REMARK    4  A    between atoms: C_10  and  S_11
REMARK    5  A    between atoms: S_11  and  C_12
REMARK    6  A    between atoms: N_20  and  C_21
REMARK    7  A    between atoms: C_21  and  C_22
REMARK                            x       y       z     vdW  Elec       q    Type
REMARK                         _______ _______ _______ _____ _____    ______ ____
ROOT
ATOM      1  C   UNL     1      39.175  -0.582  15.403  0.00  0.00    +0.000 C 
ATOM      2  C   UNL     1      39.973  -1.635  15.324  0.00  0.00    +0.000 C 
ATOM      3  C   UNL     1      39.406  -2.722  16.112  0.00  0.00    +0.000 C 
ATOM      4  O   UNL     1      39.927  -3.872  16.246  0.00  0.00    +0.000 OA
ATOM      5  N   UNL     1      38.199  -2.231  16.671  0.00  0.00    +0.000 N 
ATOM      6  C   UNL     1      38.024  -0.886  16.244  0.00  0.00    +0.000 C 
ATOM      7  O   UNL     1      37.075  -0.098  16.524  0.00  0.00    +0.000 OA
ENDROOT
BRANCH   1   8
ATOM      8  N   UNL     1      39.419   0.662  14.754  0.00  0.00    +0.000 NA
BRANCH   8  12
ATOM      9  C   UNL     1      38.034   1.275  10.838  0.00  0.00    +0.000 A 
ATOM     10  C   UNL     1      37.465   0.325  11.654  0.00  0.00    +0.000 A 
ATOM     11  C   UNL     1      37.923   0.131  12.931  0.00  0.00    +0.000 A 
ATOM     12  C   UNL     1      38.960   0.889  13.409  0.00  0.00    +0.000 A 
ATOM     13  C   UNL     1      39.534   1.840  12.599  0.00  0.00    +0.000 A 
ATOM     14  C   UNL     1      39.069   2.035  11.307  0.00  0.00    +0.000 A 
BRANCH   9  16
ATOM     15  C   UNL     1      36.968   2.869   9.369  0.00  0.00    +0.000 C 
ATOM     16  C   UNL     1      37.479   1.429   9.455  0.00  0.00    +0.000 C 
ATOM     17  C   UNL     1      38.613   1.206   8.477  0.00  0.00    +0.000 C 
ENDBRANCH   9  16
ENDBRANCH   8  12
ENDBRANCH   1   8
BRANCH   2  18
ATOM     18  S   UNL     1      41.519  -1.751  14.402  0.00  0.00    +0.000 S 
BRANCH  18  19
ATOM     19  C   UNL     1      41.151  -1.702  12.665  0.00  0.00    +0.000 A 
ATOM     20  C   UNL     1      41.775  -0.782  11.867  0.00  0.00    +0.000 A 
ATOM     21  C   UNL     1      41.505  -0.727  10.519  0.00  0.00    +0.000 A 
ATOM     22  C   UNL     1      40.587  -1.623   9.984  0.00  0.00    +0.000 A 
ATOM     23  C   UNL     1      39.969  -2.539  10.800  0.00  0.00    +0.000 A 
ATOM     24  C   UNL     1      40.249  -2.580  12.135  0.00  0.00    +0.000 A 
ENDBRANCH  18  19
ENDBRANCH   2  18
BRANCH   5  25
ATOM     25  C   UNL     1      37.309  -2.966  17.523  0.00  0.00    +0.000 C 
BRANCH  25  26
ATOM     26  C   UNL     1      36.222  -3.537  16.668  0.00  0.00    +0.000 A 
ATOM     27  C   UNL     1      36.386  -4.760  16.057  0.00  0.00    +0.000 A 
ATOM     28  C   UNL     1      35.436  -5.346  15.261  0.00  0.00    +0.000 A 
ATOM     29  C   UNL     1      34.255  -4.648  15.079  0.00  0.00    +0.000 A 
ATOM     30  C   UNL     1      34.050  -3.422  15.672  0.00  0.00    +0.000 A 
ATOM     31  C   UNL     1      35.038  -2.881  16.462  0.00  0.00    +0.000 A 
ENDBRANCH  25  26
ENDBRANCH   5  25
TORSDOF 7
ENDMDL
MODEL 9
REMARK VINA RESULT:      -7.1      3.224      5.639
REMARK  Name = 
REMARK  7 active torsions:
REMARK  status: ('A' for Active; 'I' for Inactive)
REMARK    1  A    between atoms: C_2  and  C_4
REMARK    2  A    between atoms: C_7  and  N_8
REMARK    3  A    between atoms: N_8  and  C_9
REMARK    4  A    between atoms: C_10  and  S_11
REMARK    5  A    between atoms: S_11  and  C_12
REMARK    6  A    between atoms: N_20  and  C_21
REMARK    7  A    between atoms: C_21  and  C_22
REMARK                            x       y       z     vdW  Elec       q    Type
REMARK                         _______ _______ _______ _____ _____    ______ ____
ROOT
ATOM      1  C   UNL     1      36.590   4.005  15.687  0.00  0.00    +0.000 C 
ATOM      2  C   UNL     1      37.608   4.809  15.426  0.00  0.00    +0.000 C 
ATOM      3  C   UNL     1      37.239   5.709  14.340  0.00  0.00    +0.000 C 
ATOM      4  O   UNL     1      37.992   6.604  13.848  0.00  0.00    +0.000 OA
ATOM      5  N   UNL     1      35.911   5.375  13.971  0.00  0.00    +0.000 N 
ATOM      6  C   UNL     1      35.472   4.307  14.800  0.00  0.00    +0.000 C 
ATOM      7  O   UNL     1      34.350   3.722  14.788  0.00  0.00    +0.000 OA
ENDROOT
BRANCH   1   8
ATOM      8  N   UNL     1      36.598   2.997  16.693  0.00  0.00    +0.000 NA
BRANCH   8  12
ATOM      9  C   UNL     1      35.874  -1.027  15.742  0.00  0.00    +0.000 A 
ATOM     10  C   UNL     1      35.142  -0.381  16.711  0.00  0.00    +0.000 A 
ATOM     11  C   UNL     1      35.385   0.933  17.015  0.00  0.00    +0.000 A 
ATOM     12  C   UNL     1      36.367   1.620  16.351  0.00  0.00    +0.000 A 
ATOM     13  C   UNL     1      37.102   0.981  15.380  0.00  0.00    +0.000 A 
ATOM     14  C   UNL     1      36.855  -0.350  15.073  0.00  0.00    +0.000 A 
BRANCH   9  16
ATOM     15  C   UNL     1      36.619  -2.949  14.483  0.00  0.00    +0.000 C 
ATOM     16  C   UNL     1      35.550  -2.463  15.464  0.00  0.00    +0.000 C 
ATOM     17  C   UNL     1      35.645  -3.217  16.773  0.00  0.00    +0.000 C 
ENDBRANCH   9  16
ENDBRANCH   8  12
ENDBRANCH   1   8
BRANCH   2  18
ATOM     18  S   UNL     1      39.210   4.826  16.255  0.00  0.00    +0.000 S 
BRANCH  18  19
ATOM     19  C   UNL     1      39.106   5.890  17.674  0.00  0.00    +0.000 A 
ATOM     20  C   UNL     1      38.161   6.878  17.710  0.00  0.00    +0.000 A 
ATOM     21  C   UNL     1      38.062   7.712  18.801  0.00  0.00    +0.000 A 
ATOM     22  C   UNL     1      38.940   7.532  19.862  0.00  0.00    +0.000 A 
ATOM     23  C   UNL     1      39.884   6.534  19.809  0.00  0.00    +0.000 A 
ATOM     24  C   UNL     1      39.967   5.716  18.720  0.00  0.00    +0.000 A 
ENDBRANCH  18  19
ENDBRANCH   2  18
BRANCH   5  25
ATOM     25  C   UNL     1      35.143   6.008  12.938  0.00  0.00    +0.000 C 
BRANCH  25  26
ATOM     26  C   UNL     1      34.746   7.365  13.425  0.00  0.00    +0.000 A 
ATOM     27  C   UNL     1      35.163   8.495  12.757  0.00  0.00    +0.000 A 
ATOM     28  C   UNL     1      34.839   9.769  13.143  0.00  0.00    +0.000 A 
ATOM     29  C   UNL     1      34.047   9.900  14.271  0.00  0.00    +0.000 A 
ATOM     30  C   UNL     1      33.608   8.796  14.968  0.00  0.00    +0.000 A 
ATOM     31  C   UNL     1      33.963   7.540  14.535  0.00  0.00    +0.000 A 
ENDBRANCH  25  26
ENDBRANCH   5  25
TORSDOF 7
ENDMDL
MODEL 10
REMARK VINA RESULT:      -7.1      3.521      5.950
REMARK  Name = 
REMARK  7 active torsions:
REMARK  status: ('A' for Active; 'I' for Inactive)
REMARK    1  A    between atoms: C_2  and  C_4
REMARK    2  A    between atoms: C_7  and  N_8
REMARK    3  A    between atoms: N_8  and  C_9
REMARK    4  A    between atoms: C_10  and  S_11
REMARK    5  A    between atoms: S_11  and  C_12
REMARK    6  A    between atoms: N_20  and  C_21
REMARK    7  A    between atoms: C_21  and  C_22
REMARK                            x       y       z     vdW  Elec       q    Type
REMARK                         _______ _______ _______ _____ _____    ______ ____
ROOT
ATOM      1  C   UNL     1      36.739   5.396  13.706  0.00  0.00    +0.000 C 
ATOM      2  C   UNL     1      37.835   5.952  14.196  0.00  0.00    +0.000 C 
ATOM      3  C   UNL     1      37.629   7.390  14.312  0.00  0.00    +0.000 C 
ATOM      4  O   UNL     1      38.489   8.216  14.748  0.00  0.00    +0.000 OA
ATOM      5  N   UNL     1      36.314   7.650  13.848  0.00  0.00    +0.000 N 
ATOM      6  C   UNL     1      35.726   6.416  13.460  0.00  0.00    +0.000 C 
ATOM      7  O   UNL     1      34.566   6.218  12.994  0.00  0.00    +0.000 OA
ENDROOT
BRANCH   1   8
ATOM      8  N   UNL     1      36.585   4.002  13.461  0.00  0.00    +0.000 NA
BRANCH   8  12
ATOM      9  C   UNL     1      35.384   1.385  16.516  0.00  0.00    +0.000 A 
ATOM     10  C   UNL     1      36.615   1.261  15.915  0.00  0.00    +0.000 A 
ATOM     11  C   UNL     1      36.999   2.119  14.918  0.00  0.00    +0.000 A 
ATOM     12  C   UNL     1      36.154   3.117  14.509  0.00  0.00    +0.000 A 
ATOM     13  C   UNL     1      34.921   3.248  15.106  0.00  0.00    +0.000 A 
ATOM     14  C   UNL     1      34.534   2.377  16.115  0.00  0.00    +0.000 A 
BRANCH   9  16
ATOM     15  C   UNL     1      34.880  -0.945  16.905  0.00  0.00    +0.000 C 
ATOM     16  C   UNL     1      35.035   0.410  17.599  0.00  0.00    +0.000 C 
ATOM     17  C   UNL     1      36.189   0.379  18.579  0.00  0.00    +0.000 C 
ENDBRANCH   9  16
ENDBRANCH   8  12
ENDBRANCH   1   8
BRANCH   2  18
ATOM     18  S   UNL     1      39.360   5.106  14.660  0.00  0.00    +0.000 S 
BRANCH  18  19
ATOM     19  C   UNL     1      39.705   5.452  16.368  0.00  0.00    +0.000 A 
ATOM     20  C   UNL     1      38.837   5.021  17.334  0.00  0.00    +0.000 A 
ATOM     21  C   UNL     1      39.086   5.278  18.663  0.00  0.00    +0.000 A 
ATOM     22  C   UNL     1      40.233   5.983  19.005  0.00  0.00    +0.000 A 
ATOM     23  C   UNL     1      41.093   6.410  18.022  0.00  0.00    +0.000 A 
ATOM     24  C   UNL     1      40.832   6.146  16.709  0.00  0.00    +0.000 A 
ENDBRANCH  18  19
ENDBRANCH   2  18
BRANCH   5  25
ATOM     25  C   UNL     1      35.687   8.938  13.783  0.00  0.00    +0.000 C 
BRANCH  25  26
ATOM     26  C   UNL     1      35.018   9.191  15.098  0.00  0.00    +0.000 A 
ATOM     27  C   UNL     1      33.719   8.784  15.307  0.00  0.00    +0.000 A 
ATOM     28  C   UNL     1      33.042   8.981  16.483  0.00  0.00    +0.000 A 
ATOM     29  C   UNL     1      33.726   9.625  17.499  0.00  0.00    +0.000 A 
ATOM     30  C   UNL     1      35.025  10.047  17.331  0.00  0.00    +0.000 A 
ATOM     31  C   UNL     1      35.657   9.824  16.130  0.00  0.00    +0.000 A 
ENDBRANCH  25  26
ENDBRANCH   5  25
TORSDOF 7
ENDMDL
