MODEL 1
REMARK VINA RESULT:      -7.2      0.000      0.000
REMARK  Name = 
REMARK  11 active torsions:
REMARK  status: ('A' for Active; 'I' for Inactive)
REMARK    1  A    between atoms: C_2  and  C_3
REMARK    2  A    between atoms: C_3  and  C_4
REMARK    3  A    between atoms: C_4  and  C_5
REMARK    4  A    between atoms: C_5  and  C_6
REMARK    5  A    between atoms: C_6  and  C_7
REMARK    6  A    between atoms: C_8  and  C_9
REMARK    7  A    between atoms: N_11  and  C_12
REMARK    8  A    between atoms: C_12  and  C_13
REMARK    9  A    between atoms: C_18  and  O_19
REMARK   10  A    between atoms: C_21  and  C_22
REMARK   11  A    between atoms: C_25  and  C_26
REMARK                            x       y       z     vdW  Elec       q    Type
REMARK                         _______ _______ _______ _____ _____    ______ ____
ROOT
ATOM      1  C   UNL     1      38.444   4.470  16.126  0.00  0.00    +0.000 C 
ATOM      2  C   UNL     1      38.013   3.629  15.243  0.00  0.00    +0.000 C 
ATOM      3  C   UNL     1      38.734   4.064  13.865  0.00  0.00    +0.000 C 
ATOM      4  O   UNL     1      40.006   4.598  14.532  0.00  0.00    +0.000 OA
ATOM      5  N   UNL     1      39.395   5.329  15.489  0.00  0.00    +0.000 NA
ENDROOT
BRANCH   3   6
ATOM      6  C   UNL     1      39.285   2.619  13.467  0.00  0.00    +0.000 A 
ATOM      7  C   UNL     1      40.129   1.898  14.179  0.00  0.00    +0.000 A 
ATOM      8  C   UNL     1      40.561   0.652  13.763  0.00  0.00    +0.000 A 
ATOM      9  C   UNL     1      40.122   0.112  12.579  0.00  0.00    +0.000 A 
ATOM     10  C   UNL     1      39.240   0.860  11.828  0.00  0.00    +0.000 A 
ATOM     11  C   UNL     1      38.814   2.129  12.276  0.00  0.00    +0.000 A 
BRANCH   9  12
ATOM     12  C   UNL     1      40.577  -1.209  12.130  0.00  0.00    +0.000 A 
ATOM     13  C   UNL     1      41.536  -1.839  12.883  0.00  0.00    +0.000 A 
ATOM     14  C   UNL     1      42.029  -3.101  12.527  0.00  0.00    +0.000 A 
ATOM     15  C   UNL     1      41.530  -3.693  11.406  0.00  0.00    +0.000 A 
ATOM     16  C   UNL     1      40.574  -3.104  10.623  0.00  0.00    +0.000 A 
ATOM     17  C   UNL     1      40.114  -1.853  11.012  0.00  0.00    +0.000 A 
ENDBRANCH   9  12
ENDBRANCH   3   6
BRANCH   2  18
ATOM     18  C   UNL     1      37.079   2.537  15.282  0.00  0.00    +0.000 C 
ATOM     19  O   UNL     1      36.027   2.483  14.609  0.00  0.00    +0.000 OA
ATOM     20  N   UNL     1      37.381   1.450  16.146  0.00  0.00    +0.000 NA
BRANCH  20  21
ATOM     21  C   UNL     1      36.581   0.279  16.326  0.00  0.00    +0.000 C 
BRANCH  21  22
ATOM     22  C   UNL     1      37.213  -0.859  15.641  0.00  0.00    +0.000 A 
ATOM     23  C   UNL     1      36.911  -1.132  14.323  0.00  0.00    +0.000 A 
ATOM     24  C   UNL     1      37.508  -2.202  13.700  0.00  0.00    +0.000 A 
ATOM     25  C   UNL     1      38.400  -2.994  14.390  0.00  0.00    +0.000 A 
ATOM     26  C   UNL     1      38.683  -2.702  15.695  0.00  0.00    +0.000 A 
ATOM     27  C   UNL     1      38.104  -1.641  16.350  0.00  0.00    +0.000 A 
BRANCH  27  28
ATOM     28  O   UNL     1      38.359  -1.312  17.660  0.00  0.00    +0.000 OA
ATOM     29  C   UNL     1      38.107  -2.273  18.662  0.00  0.00    +0.000 C 
ENDBRANCH  27  28
ENDBRANCH  21  22
ENDBRANCH  20  21
ENDBRANCH   2  18
BRANCH   1  30
ATOM     30  C   UNL     1      38.018   4.496  17.530  0.00  0.00    +0.000 C 
BRANCH  30  31
ATOM     31  C   UNL     1      39.116   5.082  18.379  0.00  0.00    +0.000 C 
BRANCH  31  32
ATOM     32  C   UNL     1      38.757   6.510  18.696  0.00  0.00    +0.000 C 
BRANCH  32  33
ATOM     33  C   UNL     1      39.617   7.127  19.745  0.00  0.00    +0.000 C 
BRANCH  33  35
ATOM     34  C   UNL     1      37.778   8.694  20.013  0.00  0.00    +0.000 C 
ATOM     35  C   UNL     1      38.893   7.960  20.745  0.00  0.00    +0.000 C 
ENDBRANCH  33  35
ENDBRANCH  32  33
ENDBRANCH  31  32
ENDBRANCH  30  31
ENDBRANCH   1  30
TORSDOF 11
ENDMDL
MODEL 2
REMARK VINA RESULT:      -7.2      2.407      7.086
REMARK  Name = 
REMARK  11 active torsions:
REMARK  status: ('A' for Active; 'I' for Inactive)
REMARK    1  A    between atoms: C_2  and  C_3
REMARK    2  A    between atoms: C_3  and  C_4
REMARK    3  A    between atoms: C_4  and  C_5
REMARK    4  A    between atoms: C_5  and  C_6
REMARK    5  A    between atoms: C_6  and  C_7
REMARK    6  A    between atoms: C_8  and  C_9
REMARK    7  A    between atoms: N_11  and  C_12
REMARK    8  A    between atoms: C_12  and  C_13
REMARK    9  A    between atoms: C_18  and  O_19
REMARK   10  A    between atoms: C_21  and  C_22
REMARK   11  A    between atoms: C_25  and  C_26
REMARK                            x       y       z     vdW  Elec       q    Type
REMARK                         _______ _______ _______ _____ _____    ______ ____
ROOT
ATOM      1  C   UNL     1      35.710   1.237  15.352  0.00  0.00    +0.000 C 
ATOM      2  C   UNL     1      36.552   2.094  14.874  0.00  0.00    +0.000 C 
ATOM      3  C   UNL     1      35.871   3.535  15.129  0.00  0.00    +0.000 C 
ATOM      4  O   UNL     1      35.136   3.121  16.407  0.00  0.00    +0.000 OA
ATOM      5  N   UNL     1      34.625   1.964  15.935  0.00  0.00    +0.000 NA
ENDROOT
BRANCH   3   6
ATOM      6  C   UNL     1      37.134   4.230  15.818  0.00  0.00    +0.000 A 
ATOM      7  C   UNL     1      37.949   5.087  15.235  0.00  0.00    +0.000 A 
ATOM      8  C   UNL     1      39.025   5.645  15.902  0.00  0.00    +0.000 A 
ATOM      9  C   UNL     1      39.288   5.324  17.211  0.00  0.00    +0.000 A 
ATOM     10  C   UNL     1      38.439   4.428  17.828  0.00  0.00    +0.000 A 
ATOM     11  C   UNL     1      37.347   3.873  17.124  0.00  0.00    +0.000 A 
BRANCH   9  12
ATOM     12  C   UNL     1      40.428   5.910  17.925  0.00  0.00    +0.000 A 
ATOM     13  C   UNL     1      40.312   6.069  19.284  0.00  0.00    +0.000 A 
ATOM     14  C   UNL     1      41.351   6.622  20.043  0.00  0.00    +0.000 A 
ATOM     15  C   UNL     1      42.488   7.001  19.397  0.00  0.00    +0.000 A 
ATOM     16  C   UNL     1      42.651   6.862  18.045  0.00  0.00    +0.000 A 
ATOM     17  C   UNL     1      41.596   6.311  17.330  0.00  0.00    +0.000 A 
ENDBRANCH   9  12
ENDBRANCH   3   6
BRANCH   2  18
ATOM     18  C   UNL     1      37.816   1.977  14.198  0.00  0.00    +0.000 C 
ATOM     19  O   UNL     1      38.025   2.345  13.022  0.00  0.00    +0.000 OA
ATOM     20  N   UNL     1      38.894   1.401  14.925  0.00  0.00    +0.000 NA
BRANCH  20  21
ATOM     21  C   UNL     1      40.220   1.197  14.430  0.00  0.00    +0.000 C 
BRANCH  21  22
ATOM     22  C   UNL     1      40.568  -0.228  14.529  0.00  0.00    +0.000 A 
ATOM     23  C   UNL     1      39.643  -1.139  14.992  0.00  0.00    +0.000 A 
ATOM     24  C   UNL     1      39.987  -2.467  15.082  0.00  0.00    +0.000 A 
ATOM     25  C   UNL     1      41.248  -2.880  14.711  0.00  0.00    +0.000 A 
ATOM     26  C   UNL     1      42.148  -1.958  14.255  0.00  0.00    +0.000 A 
ATOM     27  C   UNL     1      41.837  -0.622  14.153  0.00  0.00    +0.000 A 
BRANCH  27  28
ATOM     28  O   UNL     1      42.710   0.339  13.699  0.00  0.00    +0.000 OA
ATOM     29  C   UNL     1      44.089   0.177  13.953  0.00  0.00    +0.000 C 
ENDBRANCH  27  28
ENDBRANCH  21  22
ENDBRANCH  20  21
ENDBRANCH   2  18
BRANCH   1  30
ATOM     30  C   UNL     1      35.882  -0.219  15.298  0.00  0.00    +0.000 C 
BRANCH  30  31
ATOM     31  C   UNL     1      35.478  -0.824  16.618  0.00  0.00    +0.000 C 
BRANCH  31  32
ATOM     32  C   UNL     1      36.561  -0.534  17.623  0.00  0.00    +0.000 C 
BRANCH  32  33
ATOM     33  C   UNL     1      36.839  -1.667  18.551  0.00  0.00    +0.000 C 
BRANCH  33  35
ATOM     34  C   UNL     1      38.404  -3.495  18.212  0.00  0.00    +0.000 C 
ATOM     35  C   UNL     1      38.272  -2.049  18.671  0.00  0.00    +0.000 C 
ENDBRANCH  33  35
ENDBRANCH  32  33
ENDBRANCH  31  32
ENDBRANCH  30  31
ENDBRANCH   1  30
TORSDOF 11
ENDMDL
MODEL 3
REMARK VINA RESULT:      -6.7      2.397      7.009
REMARK  Name = 
REMARK  11 active torsions:
REMARK  status: ('A' for Active; 'I' for Inactive)
REMARK    1  A    between atoms: C_2  and  C_3
REMARK    2  A    between atoms: C_3  and  C_4
REMARK    3  A    between atoms: C_4  and  C_5
REMARK    4  A    between atoms: C_5  and  C_6
REMARK    5  A    between atoms: C_6  and  C_7
REMARK    6  A    between atoms: C_8  and  C_9
REMARK    7  A    between atoms: N_11  and  C_12
REMARK    8  A    between atoms: C_12  and  C_13
REMARK    9  A    between atoms: C_18  and  O_19
REMARK   10  A    between atoms: C_21  and  C_22
REMARK   11  A    between atoms: C_25  and  C_26
REMARK                            x       y       z     vdW  Elec       q    Type
REMARK                         _______ _______ _______ _____ _____    ______ ____
ROOT
ATOM      1  C   UNL     1      35.897   3.668  14.387  0.00  0.00    +0.000 C 
ATOM      2  C   UNL     1      37.189   3.711  14.412  0.00  0.00    +0.000 C 
ATOM      3  C   UNL     1      37.565   5.217  13.965  0.00  0.00    +0.000 C 
ATOM      4  O   UNL     1      36.305   5.859  14.554  0.00  0.00    +0.000 OA
ATOM      5  N   UNL     1      35.419   4.973  14.050  0.00  0.00    +0.000 NA
ENDROOT
BRANCH   3   6
ATOM      6  C   UNL     1      38.559   5.538  15.172  0.00  0.00    +0.000 A 
ATOM      7  C   UNL     1      38.210   5.676  16.436  0.00  0.00    +0.000 A 
ATOM      8  C   UNL     1      39.134   5.957  17.426  0.00  0.00    +0.000 A 
ATOM      9  C   UNL     1      40.466   6.104  17.127  0.00  0.00    +0.000 A 
ATOM     10  C   UNL     1      40.840   5.961  15.807  0.00  0.00    +0.000 A 
ATOM     11  C   UNL     1      39.876   5.674  14.815  0.00  0.00    +0.000 A 
BRANCH   9  12
ATOM     12  C   UNL     1      41.453   6.404  18.171  0.00  0.00    +0.000 A 
ATOM     13  C   UNL     1      41.024   6.376  19.475  0.00  0.00    +0.000 A 
ATOM     14  C   UNL     1      41.899   6.651  20.534  0.00  0.00    +0.000 A 
ATOM     15  C   UNL     1      43.194   6.949  20.238  0.00  0.00    +0.000 A 
ATOM     16  C   UNL     1      43.668   6.989  18.954  0.00  0.00    +0.000 A 
ATOM     17  C   UNL     1      42.768   6.711  17.934  0.00  0.00    +0.000 A 
ENDBRANCH   9  12
ENDBRANCH   3   6
BRANCH   2  18
ATOM     18  C   UNL     1      38.212   2.742  14.695  0.00  0.00    +0.000 C 
ATOM     19  O   UNL     1      38.512   2.347  15.843  0.00  0.00    +0.000 OA
ATOM     20  N   UNL     1      38.926   2.204  13.590  0.00  0.00    +0.000 NA
BRANCH  20  21
ATOM     21  C   UNL     1      39.976   1.236  13.666  0.00  0.00    +0.000 C 
BRANCH  21  22
ATOM     22  C   UNL     1      39.398  -0.105  13.840  0.00  0.00    +0.000 A 
ATOM     23  C   UNL     1      39.444  -0.727  15.070  0.00  0.00    +0.000 A 
ATOM     24  C   UNL     1      38.902  -1.983  15.213  0.00  0.00    +0.000 A 
ATOM     25  C   UNL     1      38.319  -2.611  14.135  0.00  0.00    +0.000 A 
ATOM     26  C   UNL     1      38.285  -1.973  12.926  0.00  0.00    +0.000 A 
ATOM     27  C   UNL     1      38.818  -0.717  12.747  0.00  0.00    +0.000 A 
BRANCH  27  28
ATOM     28  O   UNL     1      38.806  -0.040  11.551  0.00  0.00    +0.000 OA
ATOM     29  C   UNL     1      39.736  -0.405  10.555  0.00  0.00    +0.000 C 
ENDBRANCH  27  28
ENDBRANCH  21  22
ENDBRANCH  20  21
ENDBRANCH   2  18
BRANCH   1  30
ATOM     30  C   UNL     1      35.098   2.471  14.675  0.00  0.00    +0.000 C 
BRANCH  30  31
ATOM     31  C   UNL     1      34.667   2.488  16.119  0.00  0.00    +0.000 C 
BRANCH  31  32
ATOM     32  C   UNL     1      35.160   1.226  16.775  0.00  0.00    +0.000 C 
BRANCH  32  33
ATOM     33  C   UNL     1      35.609   0.182  15.809  0.00  0.00    +0.000 C 
BRANCH  33  35
ATOM     34  C   UNL     1      34.337  -1.247  17.308  0.00  0.00    +0.000 C 
ATOM     35  C   UNL     1      35.461  -1.222  16.282  0.00  0.00    +0.000 C 
ENDBRANCH  33  35
ENDBRANCH  32  33
ENDBRANCH  31  32
ENDBRANCH  30  31
ENDBRANCH   1  30
TORSDOF 11
ENDMDL
MODEL 4
REMARK VINA RESULT:      -6.7      2.766      7.427
REMARK  Name = 
REMARK  11 active torsions:
REMARK  status: ('A' for Active; 'I' for Inactive)
REMARK    1  A    between atoms: C_2  and  C_3
REMARK    2  A    between atoms: C_3  and  C_4
REMARK    3  A    between atoms: C_4  and  C_5
REMARK    4  A    between atoms: C_5  and  C_6
REMARK    5  A    between atoms: C_6  and  C_7
REMARK    6  A    between atoms: C_8  and  C_9
REMARK    7  A    between atoms: N_11  and  C_12
REMARK    8  A    between atoms: C_12  and  C_13
REMARK    9  A    between atoms: C_18  and  O_19
REMARK   10  A    between atoms: C_21  and  C_22
REMARK   11  A    between atoms: C_25  and  C_26
REMARK                            x       y       z     vdW  Elec       q    Type
REMARK                         _______ _______ _______ _____ _____    ______ ____
ROOT
ATOM      1  C   UNL     1      38.007  -2.847  16.401  0.00  0.00    +0.000 C 
ATOM      2  C   UNL     1      37.841  -1.585  16.177  0.00  0.00    +0.000 C 
ATOM      3  C   UNL     1      39.268  -1.069  15.622  0.00  0.00    +0.000 C 
ATOM      4  O   UNL     1      39.648  -2.395  14.954  0.00  0.00    +0.000 OA
ATOM      5  N   UNL     1      39.331  -3.198  15.992  0.00  0.00    +0.000 NA
ENDROOT
BRANCH   3   6
ATOM      6  C   UNL     1      38.715  -0.320  14.324  0.00  0.00    +0.000 A 
ATOM      7  C   UNL     1      38.081  -0.894  13.321  0.00  0.00    +0.000 A 
ATOM      8  C   UNL     1      37.634  -0.174  12.228  0.00  0.00    +0.000 A 
ATOM      9  C   UNL     1      37.835   1.182  12.146  0.00  0.00    +0.000 A 
ATOM     10  C   UNL     1      38.498   1.790  13.192  0.00  0.00    +0.000 A 
ATOM     11  C   UNL     1      38.943   1.031  14.297  0.00  0.00    +0.000 A 
BRANCH   9  12
ATOM     12  C   UNL     1      37.365   1.954  10.989  0.00  0.00    +0.000 A 
ATOM     13  C   UNL     1      37.377   3.322  11.093  0.00  0.00    +0.000 A 
ATOM     14  C   UNL     1      36.944   4.136  10.038  0.00  0.00    +0.000 A 
ATOM     15  C   UNL     1      36.508   3.531   8.898  0.00  0.00    +0.000 A 
ATOM     16  C   UNL     1      36.478   2.171   8.747  0.00  0.00    +0.000 A 
ATOM     17  C   UNL     1      36.915   1.403   9.818  0.00  0.00    +0.000 A 
ENDBRANCH   9  12
ENDBRANCH   3   6
BRANCH   2  18
ATOM     18  C   UNL     1      36.742  -0.677  16.361  0.00  0.00    +0.000 C 
ATOM     19  O   UNL     1      35.587  -0.867  15.921  0.00  0.00    +0.000 OA
ATOM     20  N   UNL     1      36.996   0.516  17.092  0.00  0.00    +0.000 NA
BRANCH  20  21
ATOM     21  C   UNL     1      36.039   1.539  17.378  0.00  0.00    +0.000 C 
BRANCH  21  22
ATOM     22  C   UNL     1      36.116   2.586  16.348  0.00  0.00    +0.000 A 
ATOM     23  C   UNL     1      35.279   2.546  15.252  0.00  0.00    +0.000 A 
ATOM     24  C   UNL     1      35.367   3.531  14.297  0.00  0.00    +0.000 A 
ATOM     25  C   UNL     1      36.286   4.547  14.436  0.00  0.00    +0.000 A 
ATOM     26  C   UNL     1      37.104   4.565  15.531  0.00  0.00    +0.000 A 
ATOM     27  C   UNL     1      37.044   3.597  16.505  0.00  0.00    +0.000 A 
BRANCH  27  28
ATOM     28  O   UNL     1      37.846   3.576  17.621  0.00  0.00    +0.000 OA
ATOM     29  C   UNL     1      38.609   4.722  17.930  0.00  0.00    +0.000 C 
ENDBRANCH  27  28
ENDBRANCH  21  22
ENDBRANCH  20  21
ENDBRANCH   2  18
BRANCH   1  30
ATOM     30  C   UNL     1      36.982  -3.734  16.967  0.00  0.00    +0.000 C 
BRANCH  30  31
ATOM     31  C   UNL     1      37.371  -5.170  16.725  0.00  0.00    +0.000 C 
BRANCH  31  32
ATOM     32  C   UNL     1      36.136  -5.932  16.323  0.00  0.00    +0.000 C 
BRANCH  32  33
ATOM     33  C   UNL     1      35.123  -5.103  15.612  0.00  0.00    +0.000 C 
BRANCH  33  35
ATOM     34  C   UNL     1      33.472  -4.833  13.848  0.00  0.00    +0.000 C 
ATOM     35  C   UNL     1      34.227  -5.853  14.689  0.00  0.00    +0.000 C 
ENDBRANCH  33  35
ENDBRANCH  32  33
ENDBRANCH  31  32
ENDBRANCH  30  31
ENDBRANCH   1  30
TORSDOF 11
ENDMDL
MODEL 5
REMARK VINA RESULT:      -6.5      3.209      5.708
REMARK  Name = 
REMARK  11 active torsions:
REMARK  status: ('A' for Active; 'I' for Inactive)
REMARK    1  A    between atoms: C_2  and  C_3
REMARK    2  A    between atoms: C_3  and  C_4
REMARK    3  A    between atoms: C_4  and  C_5
REMARK    4  A    between atoms: C_5  and  C_6
REMARK    5  A    between atoms: C_6  and  C_7
REMARK    6  A    between atoms: C_8  and  C_9
REMARK    7  A    between atoms: N_11  and  C_12
REMARK    8  A    between atoms: C_12  and  C_13
REMARK    9  A    between atoms: C_18  and  O_19
REMARK   10  A    between atoms: C_21  and  C_22
REMARK   11  A    between atoms: C_25  and  C_26
REMARK                            x       y       z     vdW  Elec       q    Type
REMARK                         _______ _______ _______ _____ _____    ______ ____
ROOT
ATOM      1  C   UNL     1      36.876  -1.640  16.041  0.00  0.00    +0.000 C 
ATOM      2  C   UNL     1      37.945  -1.065  15.597  0.00  0.00    +0.000 C 
ATOM      3  C   UNL     1      39.153  -2.054  16.009  0.00  0.00    +0.000 C 
ATOM      4  O   UNL     1      38.323  -3.339  15.918  0.00  0.00    +0.000 OA
ATOM      5  N   UNL     1      37.256  -2.894  16.616  0.00  0.00    +0.000 NA
ENDROOT
BRANCH   3   6
ATOM      6  C   UNL     1      39.840  -2.135  14.569  0.00  0.00    +0.000 A 
ATOM      7  C   UNL     1      41.066  -1.744  14.283  0.00  0.00    +0.000 A 
ATOM      8  C   UNL     1      41.590  -1.846  13.006  0.00  0.00    +0.000 A 
ATOM      9  C   UNL     1      40.843  -2.366  11.977  0.00  0.00    +0.000 A 
ATOM     10  C   UNL     1      39.560  -2.778  12.269  0.00  0.00    +0.000 A 
ATOM     11  C   UNL     1      39.050  -2.663  13.581  0.00  0.00    +0.000 A 
BRANCH   9  12
ATOM     12  C   UNL     1      41.390  -2.476  10.620  0.00  0.00    +0.000 A 
ATOM     13  C   UNL     1      40.520  -2.804   9.610  0.00  0.00    +0.000 A 
ATOM     14  C   UNL     1      40.957  -2.932   8.286  0.00  0.00    +0.000 A 
ATOM     15  C   UNL     1      42.276  -2.722   8.021  0.00  0.00    +0.000 A 
ATOM     16  C   UNL     1      43.182  -2.394   8.994  0.00  0.00    +0.000 A 
ATOM     17  C   UNL     1      42.707  -2.278  10.293  0.00  0.00    +0.000 A 
ENDBRANCH   9  12
ENDBRANCH   3   6
BRANCH   2  18
ATOM     18  C   UNL     1      38.199   0.177  14.919  0.00  0.00    +0.000 C 
ATOM     19  O   UNL     1      38.908   1.099  15.377  0.00  0.00    +0.000 OA
ATOM     20  N   UNL     1      37.597   0.360  13.644  0.00  0.00    +0.000 NA
BRANCH  20  21
ATOM     21  C   UNL     1      37.727   1.521  12.819  0.00  0.00    +0.000 C 
BRANCH  21  22
ATOM     22  C   UNL     1      38.771   1.293  11.809  0.00  0.00    +0.000 A 
ATOM     23  C   UNL     1      40.104   1.386  12.154  0.00  0.00    +0.000 A 
ATOM     24  C   UNL     1      41.067   1.173  11.197  0.00  0.00    +0.000 A 
ATOM     25  C   UNL     1      40.701   0.871   9.904  0.00  0.00    +0.000 A 
ATOM     26  C   UNL     1      39.374   0.785   9.586  0.00  0.00    +0.000 A 
ATOM     27  C   UNL     1      38.384   0.991  10.518  0.00  0.00    +0.000 A 
BRANCH  27  28
ATOM     28  O   UNL     1      37.039   0.914  10.244  0.00  0.00    +0.000 OA
ATOM     29  C   UNL     1      36.519   1.682   9.180  0.00  0.00    +0.000 C 
ENDBRANCH  27  28
ENDBRANCH  21  22
ENDBRANCH  20  21
ENDBRANCH   2  18
BRANCH   1  30
ATOM     30  C   UNL     1      35.524  -1.077  15.942  0.00  0.00    +0.000 C 
BRANCH  30  31
ATOM     31  C   UNL     1      34.981  -0.824  17.325  0.00  0.00    +0.000 C 
BRANCH  31  32
ATOM     32  C   UNL     1      35.277   0.605  17.695  0.00  0.00    +0.000 C 
BRANCH  32  33
ATOM     33  C   UNL     1      34.797   1.598  16.692  0.00  0.00    +0.000 C 
BRANCH  33  35
ATOM     34  C   UNL     1      35.374   3.231  14.987  0.00  0.00    +0.000 C 
ATOM     35  C   UNL     1      35.774   2.666  16.343  0.00  0.00    +0.000 C 
ENDBRANCH  33  35
ENDBRANCH  32  33
ENDBRANCH  31  32
ENDBRANCH  30  31
ENDBRANCH   1  30
TORSDOF 11
ENDMDL
MODEL 6
REMARK VINA RESULT:      -6.4      2.912      5.281
REMARK  Name = 
REMARK  11 active torsions:
REMARK  status: ('A' for Active; 'I' for Inactive)
REMARK    1  A    between atoms: C_2  and  C_3
REMARK    2  A    between atoms: C_3  and  C_4
REMARK    3  A    between atoms: C_4  and  C_5
REMARK    4  A    between atoms: C_5  and  C_6
REMARK    5  A    between atoms: C_6  and  C_7
REMARK    6  A    between atoms: C_8  and  C_9
REMARK    7  A    between atoms: N_11  and  C_12
REMARK    8  A    between atoms: C_12  and  C_13
REMARK    9  A    between atoms: C_18  and  O_19
REMARK   10  A    between atoms: C_21  and  C_22
REMARK   11  A    between atoms: C_25  and  C_26
REMARK                            x       y       z     vdW  Elec       q    Type
REMARK                         _______ _______ _______ _____ _____    ______ ____
ROOT
ATOM      1  C   UNL     1      36.812  -0.594  15.824  0.00  0.00    +0.000 C 
ATOM      2  C   UNL     1      37.973  -0.228  15.387  0.00  0.00    +0.000 C 
ATOM      3  C   UNL     1      38.990  -1.375  15.894  0.00  0.00    +0.000 C 
ATOM      4  O   UNL     1      37.963  -2.510  15.843  0.00  0.00    +0.000 OA
ATOM      5  N   UNL     1      36.966  -1.857  16.478  0.00  0.00    +0.000 NA
ENDROOT
BRANCH   3   6
ATOM      6  C   UNL     1      39.692  -1.651  14.486  0.00  0.00    +0.000 A 
ATOM      7  C   UNL     1      40.896  -1.242  14.137  0.00  0.00    +0.000 A 
ATOM      8  C   UNL     1      41.434  -1.522  12.893  0.00  0.00    +0.000 A 
ATOM      9  C   UNL     1      40.726  -2.244  11.965  0.00  0.00    +0.000 A 
ATOM     10  C   UNL     1      39.466  -2.676  12.322  0.00  0.00    +0.000 A 
ATOM     11  C   UNL     1      38.940  -2.377  13.599  0.00  0.00    +0.000 A 
BRANCH   9  12
ATOM     12  C   UNL     1      41.289  -2.544  10.643  0.00  0.00    +0.000 A 
ATOM     13  C   UNL     1      42.625  -2.294  10.451  0.00  0.00    +0.000 A 
ATOM     14  C   UNL     1      43.244  -2.548   9.221  0.00  0.00    +0.000 A 
ATOM     15  C   UNL     1      42.482  -3.054   8.211  0.00  0.00    +0.000 A 
ATOM     16  C   UNL     1      41.147  -3.320   8.354  0.00  0.00    +0.000 A 
ATOM     17  C   UNL     1      40.574  -3.052   9.590  0.00  0.00    +0.000 A 
ENDBRANCH   9  12
ENDBRANCH   3   6
BRANCH   2  18
ATOM     18  C   UNL     1      38.445   0.915  14.654  0.00  0.00    +0.000 C 
ATOM     19  O   UNL     1      39.217   1.782  15.118  0.00  0.00    +0.000 OA
ATOM     20  N   UNL     1      37.998   1.059  13.312  0.00  0.00    +0.000 NA
BRANCH  20  21
ATOM     21  C   UNL     1      38.352   2.123  12.425  0.00  0.00    +0.000 C 
BRANCH  21  22
ATOM     22  C   UNL     1      39.173   1.595  11.325  0.00  0.00    +0.000 A 
ATOM     23  C   UNL     1      38.578   0.941  10.266  0.00  0.00    +0.000 A 
ATOM     24  C   UNL     1      39.361   0.450   9.248  0.00  0.00    +0.000 A 
ATOM     25  C   UNL     1      40.728   0.611   9.289  0.00  0.00    +0.000 A 
ATOM     26  C   UNL     1      41.294   1.263  10.350  0.00  0.00    +0.000 A 
ATOM     27  C   UNL     1      40.541   1.766  11.385  0.00  0.00    +0.000 A 
BRANCH  27  28
ATOM     28  O   UNL     1      41.068   2.428  12.469  0.00  0.00    +0.000 OA
ATOM     29  C   UNL     1      42.410   2.180  12.828  0.00  0.00    +0.000 C 
ENDBRANCH  27  28
ENDBRANCH  21  22
ENDBRANCH  20  21
ENDBRANCH   2  18
BRANCH   1  30
ATOM     30  C   UNL     1      35.575   0.175  15.648  0.00  0.00    +0.000 C 
BRANCH  30  31
ATOM     31  C   UNL     1      35.348   1.048  16.856  0.00  0.00    +0.000 C 
BRANCH  31  32
ATOM     32  C   UNL     1      35.159   2.466  16.386  0.00  0.00    +0.000 C 
BRANCH  32  33
ATOM     33  C   UNL     1      35.033   2.597  14.906  0.00  0.00    +0.000 C 
BRANCH  33  35
ATOM     34  C   UNL     1      36.756   4.305  15.052  0.00  0.00    +0.000 C 
ATOM     35  C   UNL     1      35.465   3.908  14.349  0.00  0.00    +0.000 C 
ENDBRANCH  33  35
ENDBRANCH  32  33
ENDBRANCH  31  32
ENDBRANCH  30  31
ENDBRANCH   1  30
TORSDOF 11
ENDMDL
MODEL 7
REMARK VINA RESULT:      -6.3      6.601      9.938
REMARK  Name = 
REMARK  11 active torsions:
REMARK  status: ('A' for Active; 'I' for Inactive)
REMARK    1  A    between atoms: C_2  and  C_3
REMARK    2  A    between atoms: C_3  and  C_4
REMARK    3  A    between atoms: C_4  and  C_5
REMARK    4  A    between atoms: C_5  and  C_6
REMARK    5  A    between atoms: C_6  and  C_7
REMARK    6  A    between atoms: C_8  and  C_9
REMARK    7  A    between atoms: N_11  and  C_12
REMARK    8  A    between atoms: C_12  and  C_13
REMARK    9  A    between atoms: C_18  and  O_19
REMARK   10  A    between atoms: C_21  and  C_22
REMARK   11  A    between atoms: C_25  and  C_26
REMARK                            x       y       z     vdW  Elec       q    Type
REMARK                         _______ _______ _______ _____ _____    ______ ____
ROOT
ATOM      1  C   UNL     1      37.667   7.512  14.888  0.00  0.00    +0.000 C 
ATOM      2  C   UNL     1      37.764   7.544  16.177  0.00  0.00    +0.000 C 
ATOM      3  C   UNL     1      37.855   5.996  16.628  0.00  0.00    +0.000 C 
ATOM      4  O   UNL     1      38.564   5.519  15.356  0.00  0.00    +0.000 OA
ATOM      5  N   UNL     1      37.756   6.146  14.473  0.00  0.00    +0.000 NA
ENDROOT
BRANCH   3   6
ATOM      6  C   UNL     1      39.145   6.138  17.558  0.00  0.00    +0.000 A 
ATOM      7  C   UNL     1      39.139   6.171  18.876  0.00  0.00    +0.000 A 
ATOM      8  C   UNL     1      40.304   6.298  19.612  0.00  0.00    +0.000 A 
ATOM      9  C   UNL     1      41.524   6.395  18.990  0.00  0.00    +0.000 A 
ATOM     10  C   UNL     1      41.539   6.361  17.611  0.00  0.00    +0.000 A 
ATOM     11  C   UNL     1      40.335   6.230  16.884  0.00  0.00    +0.000 A 
BRANCH   9  12
ATOM     12  C   UNL     1      42.764   6.531  19.763  0.00  0.00    +0.000 A 
ATOM     13  C   UNL     1      42.682   6.376  21.125  0.00  0.00    +0.000 A 
ATOM     14  C   UNL     1      43.816   6.491  21.940  0.00  0.00    +0.000 A 
ATOM     15  C   UNL     1      45.010   6.763  21.345  0.00  0.00    +0.000 A 
ATOM     16  C   UNL     1      45.141   6.927  19.992  0.00  0.00    +0.000 A 
ATOM     17  C   UNL     1      43.993   6.805  19.222  0.00  0.00    +0.000 A 
ENDBRANCH   9  12
ENDBRANCH   3   6
BRANCH   2  18
ATOM     18  C   UNL     1      37.759   8.603  17.149  0.00  0.00    +0.000 C 
ATOM     19  O   UNL     1      36.851   8.787  17.989  0.00  0.00    +0.000 OA
ATOM     20  N   UNL     1      38.865   9.496  17.147  0.00  0.00    +0.000 NA
BRANCH  20  21
ATOM     21  C   UNL     1      39.043  10.607  18.029  0.00  0.00    +0.000 C 
BRANCH  21  22
ATOM     22  C   UNL     1      40.267  10.417  18.822  0.00  0.00    +0.000 A 
ATOM     23  C   UNL     1      41.479  10.226  18.193  0.00  0.00    +0.000 A 
ATOM     24  C   UNL     1      42.613  10.046  18.949  0.00  0.00    +0.000 A 
ATOM     25  C   UNL     1      42.534  10.055  20.324  0.00  0.00    +0.000 A 
ATOM     26  C   UNL     1      41.321  10.246  20.924  0.00  0.00    +0.000 A 
ATOM     27  C   UNL     1      40.167  10.429  20.199  0.00  0.00    +0.000 A 
BRANCH  27  28
ATOM     28  O   UNL     1      38.927  10.625  20.760  0.00  0.00    +0.000 OA
ATOM     29  C   UNL     1      38.691  11.812  21.487  0.00  0.00    +0.000 C 
ENDBRANCH  27  28
ENDBRANCH  21  22
ENDBRANCH  20  21
ENDBRANCH   2  18
BRANCH   1  30
ATOM     30  C   UNL     1      37.508   8.695  14.035  0.00  0.00    +0.000 C 
BRANCH  30  31
ATOM     31  C   UNL     1      36.742   8.320  12.792  0.00  0.00    +0.000 C 
BRANCH  31  32
ATOM     32  C   UNL     1      35.288   8.639  13.019  0.00  0.00    +0.000 C 
BRANCH  32  33
ATOM     33  C   UNL     1      34.398   7.444  12.988  0.00  0.00    +0.000 C 
BRANCH  33  35
ATOM     34  C   UNL     1      33.651   8.434  15.078  0.00  0.00    +0.000 C 
ATOM     35  C   UNL     1      33.694   7.147  14.266  0.00  0.00    +0.000 C 
ENDBRANCH  33  35
ENDBRANCH  32  33
ENDBRANCH  31  32
ENDBRANCH  30  31
ENDBRANCH   1  30
TORSDOF 11
ENDMDL
MODEL 8
REMARK VINA RESULT:      -6.2      3.443      5.923
REMARK  Name = 
REMARK  11 active torsions:
REMARK  status: ('A' for Active; 'I' for Inactive)
REMARK    1  A    between atoms: C_2  and  C_3
REMARK    2  A    between atoms: C_3  and  C_4
REMARK    3  A    between atoms: C_4  and  C_5
REMARK    4  A    between atoms: C_5  and  C_6
REMARK    5  A    between atoms: C_6  and  C_7
REMARK    6  A    between atoms: C_8  and  C_9
REMARK    7  A    between atoms: N_11  and  C_12
REMARK    8  A    between atoms: C_12  and  C_13
REMARK    9  A    between atoms: C_18  and  O_19
REMARK   10  A    between atoms: C_21  and  C_22
REMARK   11  A    between atoms: C_25  and  C_26
REMARK                            x       y       z     vdW  Elec       q    Type
REMARK                         _______ _______ _______ _____ _____    ______ ____
ROOT
ATOM      1  C   UNL     1      38.664  -2.449  16.429  0.00  0.00    +0.000 C 
ATOM      2  C   UNL     1      39.125  -1.601  15.569  0.00  0.00    +0.000 C 
ATOM      3  C   UNL     1      40.643  -2.075  15.289  0.00  0.00    +0.000 C 
ATOM      4  O   UNL     1      40.372  -3.565  15.518  0.00  0.00    +0.000 OA
ATOM      5  N   UNL     1      39.677  -3.430  16.668  0.00  0.00    +0.000 NA
ENDROOT
BRANCH   3   6
ATOM      6  C   UNL     1      40.556  -2.080  13.694  0.00  0.00    +0.000 A 
ATOM      7  C   UNL     1      39.743  -2.826  12.973  0.00  0.00    +0.000 A 
ATOM      8  C   UNL     1      39.730  -2.773  11.591  0.00  0.00    +0.000 A 
ATOM      9  C   UNL     1      40.573  -1.931  10.909  0.00  0.00    +0.000 A 
ATOM     10  C   UNL     1      41.428  -1.147  11.655  0.00  0.00    +0.000 A 
ATOM     11  C   UNL     1      41.421  -1.220  13.066  0.00  0.00    +0.000 A 
BRANCH   9  12
ATOM     12  C   UNL     1      40.567  -1.870   9.443  0.00  0.00    +0.000 A 
ATOM     13  C   UNL     1      40.805  -3.037   8.759  0.00  0.00    +0.000 A 
ATOM     14  C   UNL     1      40.819  -3.069   7.358  0.00  0.00    +0.000 A 
ATOM     15  C   UNL     1      40.588  -1.907   6.686  0.00  0.00    +0.000 A 
ATOM     16  C   UNL     1      40.346  -0.721   7.324  0.00  0.00    +0.000 A 
ATOM     17  C   UNL     1      40.343  -0.733   8.712  0.00  0.00    +0.000 A 
ENDBRANCH   9  12
ENDBRANCH   3   6
BRANCH   2  18
ATOM     18  C   UNL     1      38.582  -0.430  14.937  0.00  0.00    +0.000 C 
ATOM     19  O   UNL     1      37.482  -0.393  14.343  0.00  0.00    +0.000 OA
ATOM     20  N   UNL     1      39.356   0.762  14.996  0.00  0.00    +0.000 NA
BRANCH  20  21
ATOM     21  C   UNL     1      38.991   2.023  14.430  0.00  0.00    +0.000 C 
BRANCH  21  22
ATOM     22  C   UNL     1      39.661   2.191  13.131  0.00  0.00    +0.000 A 
ATOM     23  C   UNL     1      41.008   2.480  13.076  0.00  0.00    +0.000 A 
ATOM     24  C   UNL     1      41.617   2.637  11.854  0.00  0.00    +0.000 A 
ATOM     25  C   UNL     1      40.884   2.507  10.695  0.00  0.00    +0.000 A 
ATOM     26  C   UNL     1      39.549   2.220  10.775  0.00  0.00    +0.000 A 
ATOM     27  C   UNL     1      38.908   2.056  11.981  0.00  0.00    +0.000 A 
BRANCH  27  28
ATOM     28  O   UNL     1      37.571   1.767  12.108  0.00  0.00    +0.000 OA
ATOM     29  C   UNL     1      36.959   0.944  11.138  0.00  0.00    +0.000 C 
ENDBRANCH  27  28
ENDBRANCH  21  22
ENDBRANCH  20  21
ENDBRANCH   2  18
BRANCH   1  30
ATOM     30  C   UNL     1      37.324  -2.388  17.023  0.00  0.00    +0.000 C 
BRANCH  30  31
ATOM     31  C   UNL     1      37.416  -1.818  18.416  0.00  0.00    +0.000 C 
BRANCH  31  32
ATOM     32  C   UNL     1      36.609  -0.548  18.461  0.00  0.00    +0.000 C 
BRANCH  32  33
ATOM     33  C   UNL     1      35.743  -0.342  17.265  0.00  0.00    +0.000 C 
BRANCH  33  35
ATOM     34  C   UNL     1      35.224   1.674  16.012  0.00  0.00    +0.000 C 
ATOM     35  C   UNL     1      34.920   0.899  17.286  0.00  0.00    +0.000 C 
ENDBRANCH  33  35
ENDBRANCH  32  33
ENDBRANCH  31  32
ENDBRANCH  30  31
ENDBRANCH   1  30
TORSDOF 11
ENDMDL
MODEL 9
REMARK VINA RESULT:      -6.1     28.223     31.443
REMARK  Name = 
REMARK  11 active torsions:
REMARK  status: ('A' for Active; 'I' for Inactive)
REMARK    1  A    between atoms: C_2  and  C_3
REMARK    2  A    between atoms: C_3  and  C_4
REMARK    3  A    between atoms: C_4  and  C_5
REMARK    4  A    between atoms: C_5  and  C_6
REMARK    5  A    between atoms: C_6  and  C_7
REMARK    6  A    between atoms: C_8  and  C_9
REMARK    7  A    between atoms: N_11  and  C_12
REMARK    8  A    between atoms: C_12  and  C_13
REMARK    9  A    between atoms: C_18  and  O_19
REMARK   10  A    between atoms: C_21  and  C_22
REMARK   11  A    between atoms: C_25  and  C_26
REMARK                            x       y       z     vdW  Elec       q    Type
REMARK                         _______ _______ _______ _____ _____    ______ ____
ROOT
ATOM      1  C   UNL     1      24.856   8.650  43.256  0.00  0.00    +0.000 C 
ATOM      2  C   UNL     1      26.111   8.431  43.475  0.00  0.00    +0.000 C 
ATOM      3  C   UNL     1      26.586   7.481  42.258  0.00  0.00    +0.000 C 
ATOM      4  O   UNL     1      25.601   8.057  41.235  0.00  0.00    +0.000 OA
ATOM      5  N   UNL     1      24.505   8.017  42.023  0.00  0.00    +0.000 NA
ENDROOT
BRANCH   3   6
ATOM      6  C   UNL     1      27.867   8.334  41.832  0.00  0.00    +0.000 A 
ATOM      7  C   UNL     1      29.108   8.090  42.205  0.00  0.00    +0.000 A 
ATOM      8  C   UNL     1      30.166   8.880  41.792  0.00  0.00    +0.000 A 
ATOM      9  C   UNL     1      29.962   9.960  40.969  0.00  0.00    +0.000 A 
ATOM     10  C   UNL     1      28.667  10.221  40.574  0.00  0.00    +0.000 A 
ATOM     11  C   UNL     1      27.604   9.399  41.009  0.00  0.00    +0.000 A 
BRANCH   9  12
ATOM     12  C   UNL     1      31.080  10.803  40.528  0.00  0.00    +0.000 A 
ATOM     13  C   UNL     1      30.834  11.706  39.523  0.00  0.00    +0.000 A 
ATOM     14  C   UNL     1      31.844  12.549  39.040  0.00  0.00    +0.000 A 
ATOM     15  C   UNL     1      33.083  12.451  39.596  0.00  0.00    +0.000 A 
ATOM     16  C   UNL     1      33.376  11.567  40.599  0.00  0.00    +0.000 A 
ATOM     17  C   UNL     1      32.347  10.750  41.048  0.00  0.00    +0.000 A 
ENDBRANCH   9  12
ENDBRANCH   3   6
BRANCH   2  18
ATOM     18  C   UNL     1      27.022   8.814  44.519  0.00  0.00    +0.000 C 
ATOM     19  O   UNL     1      27.429   8.046  45.417  0.00  0.00    +0.000 OA
ATOM     20  N   UNL     1      27.484  10.158  44.521  0.00  0.00    +0.000 NA
BRANCH  20  21
ATOM     21  C   UNL     1      28.386  10.729  45.473  0.00  0.00    +0.000 C 
BRANCH  21  22
ATOM     22  C   UNL     1      29.370  11.570  44.774  0.00  0.00    +0.000 A 
ATOM     23  C   UNL     1      28.991  12.325  43.684  0.00  0.00    +0.000 A 
ATOM     24  C   UNL     1      29.925  13.101  43.041  0.00  0.00    +0.000 A 
ATOM     25  C   UNL     1      31.229  13.123  43.485  0.00  0.00    +0.000 A 
ATOM     26  C   UNL     1      31.581  12.366  44.568  0.00  0.00    +0.000 A 
ATOM     27  C   UNL     1      30.672  11.577  45.234  0.00  0.00    +0.000 A 
BRANCH  27  28
ATOM     28  O   UNL     1      30.981  10.801  46.326  0.00  0.00    +0.000 OA
ATOM     29  C   UNL     1      31.932   9.768  46.177  0.00  0.00    +0.000 C 
ENDBRANCH  27  28
ENDBRANCH  21  22
ENDBRANCH  20  21
ENDBRANCH   2  18
BRANCH   1  30
ATOM     30  C   UNL     1      23.981   9.431  44.140  0.00  0.00    +0.000 C 
BRANCH  30  31
ATOM     31  C   UNL     1      23.658  10.752  43.489  0.00  0.00    +0.000 C 
BRANCH  31  32
ATOM     32  C   UNL     1      24.348  11.842  44.265  0.00  0.00    +0.000 C 
BRANCH  32  33
ATOM     33  C   UNL     1      25.243  12.696  43.434  0.00  0.00    +0.000 C 
BRANCH  33  35
ATOM     34  C   UNL     1      26.267  13.198  41.288  0.00  0.00    +0.000 C 
ATOM     35  C   UNL     1      25.689  12.086  42.152  0.00  0.00    +0.000 C 
ENDBRANCH  33  35
ENDBRANCH  32  33
ENDBRANCH  31  32
ENDBRANCH  30  31
ENDBRANCH   1  30
TORSDOF 11
ENDMDL
MODEL 10
REMARK VINA RESULT:      -6.0     29.398     31.954
REMARK  Name = 
REMARK  11 active torsions:
REMARK  status: ('A' for Active; 'I' for Inactive)
REMARK    1  A    between atoms: C_2  and  C_3
REMARK    2  A    between atoms: C_3  and  C_4
REMARK    3  A    between atoms: C_4  and  C_5
REMARK    4  A    between atoms: C_5  and  C_6
REMARK    5  A    between atoms: C_6  and  C_7
REMARK    6  A    between atoms: C_8  and  C_9
REMARK    7  A    between atoms: N_11  and  C_12
REMARK    8  A    between atoms: C_12  and  C_13
REMARK    9  A    between atoms: C_18  and  O_19
REMARK   10  A    between atoms: C_21  and  C_22
REMARK   11  A    between atoms: C_25  and  C_26
REMARK                            x       y       z     vdW  Elec       q    Type
REMARK                         _______ _______ _______ _____ _____    ______ ____
ROOT
ATOM      1  C   UNL     1       9.813   5.248   4.682  0.00  0.00    +0.000 C 
ATOM      2  C   UNL     1       9.777   5.909   5.793  0.00  0.00    +0.000 C 
ATOM      3  C   UNL     1       8.598   6.994   5.595  0.00  0.00    +0.000 C 
ATOM      4  O   UNL     1       7.756   6.121   4.659  0.00  0.00    +0.000 OA
ATOM      5  N   UNL     1       8.762   5.737   3.844  0.00  0.00    +0.000 NA
ENDROOT
BRANCH   3   6
ATOM      6  C   UNL     1       7.813   6.682   6.951  0.00  0.00    +0.000 A 
ATOM      7  C   UNL     1       7.847   7.420   8.043  0.00  0.00    +0.000 A 
ATOM      8  C   UNL     1       7.138   7.080   9.181  0.00  0.00    +0.000 A 
ATOM      9  C   UNL     1       6.362   5.947   9.216  0.00  0.00    +0.000 A 
ATOM     10  C   UNL     1       6.321   5.169   8.078  0.00  0.00    +0.000 A 
ATOM     11  C   UNL     1       7.055   5.540   6.929  0.00  0.00    +0.000 A 
BRANCH   9  12
ATOM     12  C   UNL     1       5.608   5.578  10.420  0.00  0.00    +0.000 A 
ATOM     13  C   UNL     1       5.190   4.275  10.532  0.00  0.00    +0.000 A 
ATOM     14  C   UNL     1       4.464   3.837  11.647  0.00  0.00    +0.000 A 
ATOM     15  C   UNL     1       4.180   4.742  12.625  0.00  0.00    +0.000 A 
ATOM     16  C   UNL     1       4.575   6.050  12.558  0.00  0.00    +0.000 A 
ATOM     17  C   UNL     1       5.292   6.443  11.436  0.00  0.00    +0.000 A 
ENDBRANCH   9  12
ENDBRANCH   3   6
BRANCH   2  18
ATOM     18  C   UNL     1      10.550   5.863   7.004  0.00  0.00    +0.000 C 
ATOM     19  O   UNL     1      11.271   6.798   7.418  0.00  0.00    +0.000 OA
ATOM     20  N   UNL     1      10.485   4.671   7.776  0.00  0.00    +0.000 NA
BRANCH  20  21
ATOM     21  C   UNL     1      11.180   4.432   9.002  0.00  0.00    +0.000 C 
BRANCH  21  22
ATOM     22  C   UNL     1      10.213   4.100  10.060  0.00  0.00    +0.000 A 
ATOM     23  C   UNL     1       9.571   5.105  10.754  0.00  0.00    +0.000 A 
ATOM     24  C   UNL     1       8.673   4.777  11.742  0.00  0.00    +0.000 A 
ATOM     25  C   UNL     1       8.418   3.455  12.033  0.00  0.00    +0.000 A 
ATOM     26  C   UNL     1       9.067   2.478  11.330  0.00  0.00    +0.000 A 
ATOM     27  C   UNL     1       9.972   2.769  10.336  0.00  0.00    +0.000 A 
BRANCH  27  28
ATOM     28  O   UNL     1      10.645   1.820   9.605  0.00  0.00    +0.000 OA
ATOM     29  C   UNL     1      10.229   0.474   9.693  0.00  0.00    +0.000 C 
ENDBRANCH  27  28
ENDBRANCH  21  22
ENDBRANCH  20  21
ENDBRANCH   2  18
BRANCH   1  30
ATOM     30  C   UNL     1      10.773   4.181   4.379  0.00  0.00    +0.000 C 
BRANCH  30  31
ATOM     31  C   UNL     1      10.070   2.848   4.409  0.00  0.00    +0.000 C 
BRANCH  31  32
ATOM     32  C   UNL     1      10.853   1.881   3.561  0.00  0.00    +0.000 C 
BRANCH  32  33
ATOM     33  C   UNL     1      12.301   1.811   3.910  0.00  0.00    +0.000 C 
BRANCH  33  35
ATOM     34  C   UNL     1      13.744  -0.070   4.445  0.00  0.00    +0.000 C 
ATOM     35  C   UNL     1      12.646   0.837   4.982  0.00  0.00    +0.000 C 
ENDBRANCH  33  35
ENDBRANCH  32  33
ENDBRANCH  31  32
ENDBRANCH  30  31
ENDBRANCH   1  30
TORSDOF 11
ENDMDL
