MODEL 1
REMARK VINA RESULT:      -7.8      0.000      0.000
REMARK  Name = 
REMARK  6 active torsions:
REMARK  status: ('A' for Active; 'I' for Inactive)
REMARK    1  A    between atoms: O_2  and  C_3
REMARK    2  A    between atoms: C_7  and  C_8
REMARK    3  A    between atoms: C_12  and  C_13
REMARK    4  A    between atoms: C_20  and  N_21
REMARK    5  A    between atoms: C_26  and  C_27
REMARK    6  A    between atoms: C_27  and  C_28
REMARK                            x       y       z     vdW  Elec       q    Type
REMARK                         _______ _______ _______ _____ _____    ______ ____
ROOT
ATOM      1  C   UNL     1      39.443   5.762  17.245  0.00  0.00    +0.000 A 
ATOM      2  C   UNL     1      38.920   6.684  16.364  0.00  0.00    +0.000 A 
ATOM      3  C   UNL     1      37.897   6.062  15.652  0.00  0.00    +0.000 A 
ATOM      4  N   UNL     1      37.068   6.511  14.683  0.00  0.00    +0.000 NA
ATOM      5  C   UNL     1      36.142   5.692  14.152  0.00  0.00    +0.000 A 
ATOM      6  C   UNL     1      36.105   4.420  14.645  0.00  0.00    +0.000 A 
ATOM      7  C   UNL     1      36.947   3.934  15.644  0.00  0.00    +0.000 A 
ATOM      8  N   UNL     1      37.857   4.808  16.137  0.00  0.00    +0.000 N 
ATOM      9  N   UNL     1      38.770   4.633  17.077  0.00  0.00    +0.000 NA
ENDROOT
BRANCH   1  14
ATOM     10  C   UNL     1      42.884   6.702  18.497  0.00  0.00    +0.000 A 
ATOM     11  C   UNL     1      42.667   6.688  19.858  0.00  0.00    +0.000 A 
ATOM     12  C   UNL     1      41.410   6.379  20.391  0.00  0.00    +0.000 A 
ATOM     13  C   UNL     1      40.364   6.082  19.551  0.00  0.00    +0.000 A 
ATOM     14  C   UNL     1      40.539   6.084  18.176  0.00  0.00    +0.000 A 
ATOM     15  C   UNL     1      41.803   6.396  17.700  0.00  0.00    +0.000 A 
BRANCH  10  17
ATOM     16  C   UNL     1      44.359   6.919  16.572  0.00  0.00    +0.000 C 
ATOM     17  O   UNL     1      44.132   7.008  17.960  0.00  0.00    +0.000 OA
ENDBRANCH  10  17
ENDBRANCH   1  14
BRANCH   5  18
ATOM     18  C   UNL     1      35.251   6.212  13.117  0.00  0.00    +0.000 A 
ATOM     19  C   UNL     1      35.651   6.277  11.815  0.00  0.00    +0.000 A 
ATOM     20  C   UNL     1      34.851   6.769  10.806  0.00  0.00    +0.000 A 
ATOM     21  C   UNL     1      33.579   7.224  11.084  0.00  0.00    +0.000 A 
ATOM     22  C   UNL     1      33.154   7.165  12.400  0.00  0.00    +0.000 A 
ATOM     23  C   UNL     1      33.984   6.662  13.411  0.00  0.00    +0.000 A 
ENDBRANCH   5  18
BRANCH   7  24
ATOM     24  N   UNL     1      36.818   2.640  16.037  0.00  0.00    +0.000 N 
ATOM     25  C   UNL     1      35.936   2.220  17.114  0.00  0.00    +0.000 C 
ATOM     26  C   UNL     1      34.984   1.130  16.700  0.00  0.00    +0.000 C 
ATOM     27  C   UNL     1      35.575   0.166  15.702  0.00  0.00    +0.000 C 
ATOM     28  C   UNL     1      36.289   0.919  14.565  0.00  0.00    +0.000 C 
ATOM     29  C   UNL     1      37.591   1.433  15.429  0.00  0.00    +0.000 C 
BRANCH  29  30
ATOM     30  C   UNL     1      38.335   2.225  14.215  0.00  0.00    +0.000 C 
BRANCH  30  31
ATOM     31  C   UNL     1      39.703   1.773  14.045  0.00  0.00    +0.000 C 
ATOM     32  O   UNL     1      40.181   0.762  14.823  0.00  0.00    +0.000 OA
ENDBRANCH  30  31
ENDBRANCH  29  30
ENDBRANCH   7  24
TORSDOF 6
ENDMDL
MODEL 2
REMARK VINA RESULT:      -7.7      5.334      8.369
REMARK  Name = 
REMARK  6 active torsions:
REMARK  status: ('A' for Active; 'I' for Inactive)
REMARK    1  A    between atoms: O_2  and  C_3
REMARK    2  A    between atoms: C_7  and  C_8
REMARK    3  A    between atoms: C_12  and  C_13
REMARK    4  A    between atoms: C_20  and  N_21
REMARK    5  A    between atoms: C_26  and  C_27
REMARK    6  A    between atoms: C_27  and  C_28
REMARK                            x       y       z     vdW  Elec       q    Type
REMARK                         _______ _______ _______ _____ _____    ______ ____
ROOT
ATOM      1  C   UNL     1      40.466  -1.173  14.669  0.00  0.00    +0.000 A 
ATOM      2  C   UNL     1      39.975  -2.456  14.559  0.00  0.00    +0.000 A 
ATOM      3  C   UNL     1      38.624  -2.427  14.892  0.00  0.00    +0.000 A 
ATOM      4  N   UNL     1      37.684  -3.399  14.943  0.00  0.00    +0.000 NA
ATOM      5  C   UNL     1      36.421  -3.101  15.298  0.00  0.00    +0.000 A 
ATOM      6  C   UNL     1      36.168  -1.792  15.594  0.00  0.00    +0.000 A 
ATOM      7  C   UNL     1      37.119  -0.773  15.548  0.00  0.00    +0.000 A 
ATOM      8  N   UNL     1      38.371  -1.139  15.183  0.00  0.00    +0.000 N 
ATOM      9  N   UNL     1      39.460  -0.401  15.051  0.00  0.00    +0.000 NA
ENDROOT
BRANCH   1  14
ATOM     10  C   UNL     1      44.229  -1.460  14.460  0.00  0.00    +0.000 A 
ATOM     11  C   UNL     1      44.539  -0.255  13.864  0.00  0.00    +0.000 A 
ATOM     12  C   UNL     1      43.541   0.663  13.520  0.00  0.00    +0.000 A 
ATOM     13  C   UNL     1      42.222   0.370  13.775  0.00  0.00    +0.000 A 
ATOM     14  C   UNL     1      41.867  -0.828  14.373  0.00  0.00    +0.000 A 
ATOM     15  C   UNL     1      42.894  -1.703  14.694  0.00  0.00    +0.000 A 
BRANCH  10  17
ATOM     16  C   UNL     1      45.683  -2.468  16.133  0.00  0.00    +0.000 C 
ATOM     17  O   UNL     1      45.218  -2.378  14.805  0.00  0.00    +0.000 OA
ENDBRANCH  10  17
ENDBRANCH   1  14
BRANCH   5  18
ATOM     18  C   UNL     1      35.425  -4.170  15.329  0.00  0.00    +0.000 A 
ATOM     19  C   UNL     1      34.144  -3.946  14.918  0.00  0.00    +0.000 A 
ATOM     20  C   UNL     1      33.167  -4.919  14.938  0.00  0.00    +0.000 A 
ATOM     21  C   UNL     1      33.459  -6.190  15.387  0.00  0.00    +0.000 A 
ATOM     22  C   UNL     1      34.755  -6.437  15.807  0.00  0.00    +0.000 A 
ATOM     23  C   UNL     1      35.733  -5.433  15.779  0.00  0.00    +0.000 A 
ENDBRANCH   5  18
BRANCH   7  24
ATOM     24  N   UNL     1      36.742   0.489  15.881  0.00  0.00    +0.000 N 
ATOM     25  C   UNL     1      36.794   1.606  14.952  0.00  0.00    +0.000 C 
ATOM     26  C   UNL     1      35.480   2.331  14.834  0.00  0.00    +0.000 C 
ATOM     27  C   UNL     1      34.702   2.375  16.126  0.00  0.00    +0.000 C 
ATOM     28  C   UNL     1      34.660   0.988  16.791  0.00  0.00    +0.000 C 
ATOM     29  C   UNL     1      36.229   0.935  17.282  0.00  0.00    +0.000 C 
BRANCH  29  30
ATOM     30  C   UNL     1      36.169  -0.535  17.984  0.00  0.00    +0.000 C 
BRANCH  30  31
ATOM     31  C   UNL     1      37.044  -0.610  19.138  0.00  0.00    +0.000 C 
ATOM     32  O   UNL     1      38.232  -1.270  19.042  0.00  0.00    +0.000 OA
ENDBRANCH  30  31
ENDBRANCH  29  30
ENDBRANCH   7  24
TORSDOF 6
ENDMDL
MODEL 3
REMARK VINA RESULT:      -7.6      1.973      7.153
REMARK  Name = 
REMARK  6 active torsions:
REMARK  status: ('A' for Active; 'I' for Inactive)
REMARK    1  A    between atoms: O_2  and  C_3
REMARK    2  A    between atoms: C_7  and  C_8
REMARK    3  A    between atoms: C_12  and  C_13
REMARK    4  A    between atoms: C_20  and  N_21
REMARK    5  A    between atoms: C_26  and  C_27
REMARK    6  A    between atoms: C_27  and  C_28
REMARK                            x       y       z     vdW  Elec       q    Type
REMARK                         _______ _______ _______ _____ _____    ______ ____
ROOT
ATOM      1  C   UNL     1      36.135   6.070  13.715  0.00  0.00    +0.000 A 
ATOM      2  C   UNL     1      37.031   6.919  14.328  0.00  0.00    +0.000 A 
ATOM      3  C   UNL     1      37.697   6.198  15.316  0.00  0.00    +0.000 A 
ATOM      4  N   UNL     1      38.663   6.547  16.195  0.00  0.00    +0.000 NA
ATOM      5  C   UNL     1      39.151   5.641  17.060  0.00  0.00    +0.000 A 
ATOM      6  C   UNL     1      38.615   4.386  16.989  0.00  0.00    +0.000 A 
ATOM      7  C   UNL     1      37.620   4.002  16.092  0.00  0.00    +0.000 A 
ATOM      8  N   UNL     1      37.172   4.961  15.247  0.00  0.00    +0.000 N 
ATOM      9  N   UNL     1      36.251   4.888  14.302  0.00  0.00    +0.000 NA
ENDROOT
BRANCH   1  14
ATOM     10  C   UNL     1      35.003   6.896  10.204  0.00  0.00    +0.000 A 
ATOM     11  C   UNL     1      33.707   7.299  10.448  0.00  0.00    +0.000 A 
ATOM     12  C   UNL     1      33.180   7.307  11.744  0.00  0.00    +0.000 A 
ATOM     13  C   UNL     1      33.959   6.908  12.804  0.00  0.00    +0.000 A 
ATOM     14  C   UNL     1      35.267   6.496  12.604  0.00  0.00    +0.000 A 
ATOM     15  C   UNL     1      35.741   6.507  11.300  0.00  0.00    +0.000 A 
BRANCH  10  17
ATOM     16  C   UNL     1      35.417   8.015   8.082  0.00  0.00    +0.000 C 
ATOM     17  O   UNL     1      35.534   6.885   8.917  0.00  0.00    +0.000 OA
ENDBRANCH  10  17
ENDBRANCH   1  14
BRANCH   5  18
ATOM     18  C   UNL     1      40.205   6.046  17.987  0.00  0.00    +0.000 A 
ATOM     19  C   UNL     1      41.450   6.373  17.534  0.00  0.00    +0.000 A 
ATOM     20  C   UNL     1      42.479   6.750  18.370  0.00  0.00    +0.000 A 
ATOM     21  C   UNL     1      42.282   6.812  19.733  0.00  0.00    +0.000 A 
ATOM     22  C   UNL     1      41.026   6.485  20.213  0.00  0.00    +0.000 A 
ATOM     23  C   UNL     1      39.993   6.104  19.345  0.00  0.00    +0.000 A 
ENDBRANCH   5  18
BRANCH   7  24
ATOM     24  N   UNL     1      37.161   2.724  16.133  0.00  0.00    +0.000 N 
ATOM     25  C   UNL     1      35.991   2.322  16.896  0.00  0.00    +0.000 C 
ATOM     26  C   UNL     1      34.972   1.589  16.065  0.00  0.00    +0.000 C 
ATOM     27  C   UNL     1      35.586   0.725  14.991  0.00  0.00    +0.000 C 
ATOM     28  C   UNL     1      36.672   1.495  14.219  0.00  0.00    +0.000 C 
ATOM     29  C   UNL     1      37.812   1.510  15.405  0.00  0.00    +0.000 C 
BRANCH  29  30
ATOM     30  C   UNL     1      38.953   2.325  14.574  0.00  0.00    +0.000 C 
BRANCH  30  31
ATOM     31  C   UNL     1      39.980   1.435  14.068  0.00  0.00    +0.000 C 
ATOM     32  O   UNL     1      40.155   0.212  14.642  0.00  0.00    +0.000 OA
ENDBRANCH  30  31
ENDBRANCH  29  30
ENDBRANCH   7  24
TORSDOF 6
ENDMDL
MODEL 4
REMARK VINA RESULT:      -7.4      2.984      7.706
REMARK  Name = 
REMARK  6 active torsions:
REMARK  status: ('A' for Active; 'I' for Inactive)
REMARK    1  A    between atoms: O_2  and  C_3
REMARK    2  A    between atoms: C_7  and  C_8
REMARK    3  A    between atoms: C_12  and  C_13
REMARK    4  A    between atoms: C_20  and  N_21
REMARK    5  A    between atoms: C_26  and  C_27
REMARK    6  A    between atoms: C_27  and  C_28
REMARK                            x       y       z     vdW  Elec       q    Type
REMARK                         _______ _______ _______ _____ _____    ______ ____
ROOT
ATOM      1  C   UNL     1      36.811   4.907  11.538  0.00  0.00    +0.000 A 
ATOM      2  C   UNL     1      37.225   5.873  12.430  0.00  0.00    +0.000 A 
ATOM      3  C   UNL     1      37.802   5.229  13.521  0.00  0.00    +0.000 A 
ATOM      4  N   UNL     1      38.363   5.702  14.657  0.00  0.00    +0.000 NA
ATOM      5  C   UNL     1      38.862   4.850  15.570  0.00  0.00    +0.000 A 
ATOM      6  C   UNL     1      38.764   3.520  15.275  0.00  0.00    +0.000 A 
ATOM      7  C   UNL     1      38.192   3.009  14.112  0.00  0.00    +0.000 A 
ATOM      8  N   UNL     1      37.708   3.919  13.233  0.00  0.00    +0.000 N 
ATOM      9  N   UNL     1      37.123   3.731  12.063  0.00  0.00    +0.000 NA
ENDROOT
BRANCH   1  14
ATOM     10  C   UNL     1      34.805   6.785   8.942  0.00  0.00    +0.000 A 
ATOM     11  C   UNL     1      34.909   5.921   7.873  0.00  0.00    +0.000 A 
ATOM     12  C   UNL     1      35.629   4.725   7.972  0.00  0.00    +0.000 A 
ATOM     13  C   UNL     1      36.248   4.393   9.154  0.00  0.00    +0.000 A 
ATOM     14  C   UNL     1      36.168   5.233  10.253  0.00  0.00    +0.000 A 
ATOM     15  C   UNL     1      35.443   6.405  10.102  0.00  0.00    +0.000 A 
BRANCH  10  17
ATOM     16  C   UNL     1      34.754   9.196   8.609  0.00  0.00    +0.000 C 
ATOM     17  O   UNL     1      34.090   7.977   8.850  0.00  0.00    +0.000 OA
ENDBRANCH  10  17
ENDBRANCH   1  14
BRANCH   5  18
ATOM     18  C   UNL     1      39.475   5.392  16.781  0.00  0.00    +0.000 A 
ATOM     19  C   UNL     1      40.695   6.001  16.737  0.00  0.00    +0.000 A 
ATOM     20  C   UNL     1      41.318   6.518  17.853  0.00  0.00    +0.000 A 
ATOM     21  C   UNL     1      40.713   6.436  19.089  0.00  0.00    +0.000 A 
ATOM     22  C   UNL     1      39.474   5.823  19.155  0.00  0.00    +0.000 A 
ATOM     23  C   UNL     1      38.858   5.303  18.008  0.00  0.00    +0.000 A 
ENDBRANCH   5  18
BRANCH   7  24
ATOM     24  N   UNL     1      38.143   1.662  13.944  0.00  0.00    +0.000 N 
ATOM     25  C   UNL     1      39.268   0.877  13.463  0.00  0.00    +0.000 C 
ATOM     26  C   UNL     1      39.618  -0.267  14.377  0.00  0.00    +0.000 C 
ATOM     27  C   UNL     1      38.418  -0.884  15.051  0.00  0.00    +0.000 C 
ATOM     28  C   UNL     1      37.496   0.201  15.636  0.00  0.00    +0.000 C 
ATOM     29  C   UNL     1      36.896   0.767  14.212  0.00  0.00    +0.000 C 
BRANCH  29  30
ATOM     30  C   UNL     1      35.924   1.910  14.846  0.00  0.00    +0.000 C 
BRANCH  30  31
ATOM     31  C   UNL     1      35.630   1.644  16.241  0.00  0.00    +0.000 C 
ATOM     32  O   UNL     1      34.356   1.793  16.702  0.00  0.00    +0.000 OA
ENDBRANCH  30  31
ENDBRANCH  29  30
ENDBRANCH   7  24
TORSDOF 6
ENDMDL
MODEL 5
REMARK VINA RESULT:      -7.4      3.112      7.699
REMARK  Name = 
REMARK  6 active torsions:
REMARK  status: ('A' for Active; 'I' for Inactive)
REMARK    1  A    between atoms: O_2  and  C_3
REMARK    2  A    between atoms: C_7  and  C_8
REMARK    3  A    between atoms: C_12  and  C_13
REMARK    4  A    between atoms: C_20  and  N_21
REMARK    5  A    between atoms: C_26  and  C_27
REMARK    6  A    between atoms: C_27  and  C_28
REMARK                            x       y       z     vdW  Elec       q    Type
REMARK                         _______ _______ _______ _____ _____    ______ ____
ROOT
ATOM      1  C   UNL     1      36.362   0.743  16.304  0.00  0.00    +0.000 A 
ATOM      2  C   UNL     1      36.409   1.563  17.411  0.00  0.00    +0.000 A 
ATOM      3  C   UNL     1      37.161   2.687  17.079  0.00  0.00    +0.000 A 
ATOM      4  N   UNL     1      37.507   3.785  17.788  0.00  0.00    +0.000 NA
ATOM      5  C   UNL     1      38.252   4.750  17.220  0.00  0.00    +0.000 A 
ATOM      6  C   UNL     1      38.621   4.545  15.921  0.00  0.00    +0.000 A 
ATOM      7  C   UNL     1      38.277   3.423  15.170  0.00  0.00    +0.000 A 
ATOM      8  N   UNL     1      37.525   2.488  15.799  0.00  0.00    +0.000 N 
ATOM      9  N   UNL     1      37.053   1.341  15.345  0.00  0.00    +0.000 NA
ENDROOT
BRANCH   1  14
ATOM     10  C   UNL     1      35.390  -2.786  15.362  0.00  0.00    +0.000 A 
ATOM     11  C   UNL     1      34.302  -2.975  16.189  0.00  0.00    +0.000 A 
ATOM     12  C   UNL     1      33.870  -1.971  17.062  0.00  0.00    +0.000 A 
ATOM     13  C   UNL     1      34.534  -0.768  17.105  0.00  0.00    +0.000 A 
ATOM     14  C   UNL     1      35.631  -0.536  16.291  0.00  0.00    +0.000 A 
ATOM     15  C   UNL     1      36.018  -1.564  15.445  0.00  0.00    +0.000 A 
BRANCH  10  17
ATOM     16  C   UNL     1      37.124  -3.742  13.946  0.00  0.00    +0.000 C 
ATOM     17  O   UNL     1      35.825  -3.782  14.491  0.00  0.00    +0.000 OA
ENDBRANCH  10  17
ENDBRANCH   1  14
BRANCH   5  18
ATOM     18  C   UNL     1      38.596   5.932  18.008  0.00  0.00    +0.000 A 
ATOM     19  C   UNL     1      39.382   5.830  19.118  0.00  0.00    +0.000 A 
ATOM     20  C   UNL     1      39.725   6.914  19.899  0.00  0.00    +0.000 A 
ATOM     21  C   UNL     1      39.273   8.176  19.575  0.00  0.00    +0.000 A 
ATOM     22  C   UNL     1      38.475   8.300  18.452  0.00  0.00    +0.000 A 
ATOM     23  C   UNL     1      38.138   7.185  17.672  0.00  0.00    +0.000 A 
ENDBRANCH   5  18
BRANCH   7  24
ATOM     24  N   UNL     1      38.720   3.332  13.889  0.00  0.00    +0.000 N 
ATOM     25  C   UNL     1      39.952   2.653  13.520  0.00  0.00    +0.000 C 
ATOM     26  C   UNL     1      39.749   1.610  12.454  0.00  0.00    +0.000 C 
ATOM     27  C   UNL     1      38.684   1.979  11.450  0.00  0.00    +0.000 C 
ATOM     28  C   UNL     1      37.416   2.490  12.156  0.00  0.00    +0.000 C 
ATOM     29  C   UNL     1      38.012   3.944  12.645  0.00  0.00    +0.000 C 
BRANCH  29  30
ATOM     30  C   UNL     1      36.661   4.473  13.388  0.00  0.00    +0.000 C 
BRANCH  30  31
ATOM     31  C   UNL     1      36.276   5.790  12.917  0.00  0.00    +0.000 C 
ATOM     32  O   UNL     1      34.995   6.012  12.507  0.00  0.00    +0.000 OA
ENDBRANCH  30  31
ENDBRANCH  29  30
ENDBRANCH   7  24
TORSDOF 6
ENDMDL
MODEL 6
REMARK VINA RESULT:      -7.4      2.341      5.482
REMARK  Name = 
REMARK  6 active torsions:
REMARK  status: ('A' for Active; 'I' for Inactive)
REMARK    1  A    between atoms: O_2  and  C_3
REMARK    2  A    between atoms: C_7  and  C_8
REMARK    3  A    between atoms: C_12  and  C_13
REMARK    4  A    between atoms: C_20  and  N_21
REMARK    5  A    between atoms: C_26  and  C_27
REMARK    6  A    between atoms: C_27  and  C_28
REMARK                            x       y       z     vdW  Elec       q    Type
REMARK                         _______ _______ _______ _____ _____    ______ ____
ROOT
ATOM      1  C   UNL     1      38.178   4.986  17.744  0.00  0.00    +0.000 A 
ATOM      2  C   UNL     1      37.839   3.769  18.294  0.00  0.00    +0.000 A 
ATOM      3  C   UNL     1      37.232   3.005  17.300  0.00  0.00    +0.000 A 
ATOM      4  N   UNL     1      36.722   1.752  17.307  0.00  0.00    +0.000 NA
ATOM      5  C   UNL     1      36.184   1.235  16.189  0.00  0.00    +0.000 A 
ATOM      6  C   UNL     1      36.189   2.040  15.085  0.00  0.00    +0.000 A 
ATOM      7  C   UNL     1      36.709   3.333  15.053  0.00  0.00    +0.000 A 
ATOM      8  N   UNL     1      37.237   3.795  16.212  0.00  0.00    +0.000 N 
ATOM      9  N   UNL     1      37.795   4.963  16.476  0.00  0.00    +0.000 NA
ENDROOT
BRANCH   1  14
ATOM     10  C   UNL     1      38.847   8.341  19.353  0.00  0.00    +0.000 A 
ATOM     11  C   UNL     1      40.078   8.102  19.926  0.00  0.00    +0.000 A 
ATOM     12  C   UNL     1      40.707   6.858  19.806  0.00  0.00    +0.000 A 
ATOM     13  C   UNL     1      40.096   5.846  19.103  0.00  0.00    +0.000 A 
ATOM     14  C   UNL     1      38.859   6.044  18.511  0.00  0.00    +0.000 A 
ATOM     15  C   UNL     1      38.279   7.294  18.660  0.00  0.00    +0.000 A 
BRANCH  10  17
ATOM     16  C   UNL     1      38.315  10.326  20.658  0.00  0.00    +0.000 C 
ATOM     17  O   UNL     1      38.215   9.577  19.469  0.00  0.00    +0.000 OA
ENDBRANCH  10  17
ENDBRANCH   1  14
BRANCH   5  18
ATOM     18  C   UNL     1      35.655  -0.127  16.224  0.00  0.00    +0.000 A 
ATOM     19  C   UNL     1      34.699  -0.484  17.129  0.00  0.00    +0.000 A 
ATOM     20  C   UNL     1      34.177  -1.758  17.208  0.00  0.00    +0.000 A 
ATOM     21  C   UNL     1      34.616  -2.745  16.350  0.00  0.00    +0.000 A 
ATOM     22  C   UNL     1      35.585  -2.402  15.424  0.00  0.00    +0.000 A 
ATOM     23  C   UNL     1      36.103  -1.101  15.361  0.00  0.00    +0.000 A 
ENDBRANCH   5  18
BRANCH   7  24
ATOM     24  N   UNL     1      36.640   4.037  13.893  0.00  0.00    +0.000 N 
ATOM     25  C   UNL     1      35.593   5.004  13.611  0.00  0.00    +0.000 C 
ATOM     26  C   UNL     1      36.133   6.353  13.216  0.00  0.00    +0.000 C 
ATOM     27  C   UNL     1      37.413   6.276  12.421  0.00  0.00    +0.000 C 
ATOM     28  C   UNL     1      38.411   5.306  13.078  0.00  0.00    +0.000 C 
ATOM     29  C   UNL     1      37.633   3.907  12.701  0.00  0.00    +0.000 C 
BRANCH  29  30
ATOM     30  C   UNL     1      38.700   2.892  13.400  0.00  0.00    +0.000 C 
BRANCH  30  31
ATOM     31  C   UNL     1      38.997   1.759  12.543  0.00  0.00    +0.000 C 
ATOM     32  O   UNL     1      38.127   0.712  12.485  0.00  0.00    +0.000 OA
ENDBRANCH  30  31
ENDBRANCH  29  30
ENDBRANCH   7  24
TORSDOF 6
ENDMDL
MODEL 7
REMARK VINA RESULT:      -7.4      4.923      7.313
REMARK  Name = 
REMARK  6 active torsions:
REMARK  status: ('A' for Active; 'I' for Inactive)
REMARK    1  A    between atoms: O_2  and  C_3
REMARK    2  A    between atoms: C_7  and  C_8
REMARK    3  A    between atoms: C_12  and  C_13
REMARK    4  A    between atoms: C_20  and  N_21
REMARK    5  A    between atoms: C_26  and  C_27
REMARK    6  A    between atoms: C_27  and  C_28
REMARK                            x       y       z     vdW  Elec       q    Type
REMARK                         _______ _______ _______ _____ _____    ______ ____
ROOT
ATOM      1  C   UNL     1      40.625  -1.227  14.138  0.00  0.00    +0.000 A 
ATOM      2  C   UNL     1      40.309   0.094  13.905  0.00  0.00    +0.000 A 
ATOM      3  C   UNL     1      38.981   0.288  14.276  0.00  0.00    +0.000 A 
ATOM      4  N   UNL     1      38.186   1.382  14.256  0.00  0.00    +0.000 NA
ATOM      5  C   UNL     1      36.913   1.302  14.683  0.00  0.00    +0.000 A 
ATOM      6  C   UNL     1      36.497   0.078  15.122  0.00  0.00    +0.000 A 
ATOM      7  C   UNL     1      37.297  -1.064  15.154  0.00  0.00    +0.000 A 
ATOM      8  N   UNL     1      38.568  -0.917  14.710  0.00  0.00    +0.000 N 
ATOM      9  N   UNL     1      39.540  -1.809  14.628  0.00  0.00    +0.000 NA
ENDROOT
BRANCH   1  14
ATOM     10  C   UNL     1      43.386  -3.216  12.492  0.00  0.00    +0.000 A 
ATOM     11  C   UNL     1      44.448  -2.893  13.310  0.00  0.00    +0.000 A 
ATOM     12  C   UNL     1      44.291  -2.028  14.399  0.00  0.00    +0.000 A 
ATOM     13  C   UNL     1      43.057  -1.485  14.670  0.00  0.00    +0.000 A 
ATOM     14  C   UNL     1      41.963  -1.784  13.874  0.00  0.00    +0.000 A 
ATOM     15  C   UNL     1      42.173  -2.645  12.808  0.00  0.00    +0.000 A 
BRANCH  10  17
ATOM     16  C   UNL     1      44.804  -4.590  11.067  0.00  0.00    +0.000 C 
ATOM     17  O   UNL     1      43.536  -4.076  11.407  0.00  0.00    +0.000 OA
ENDBRANCH  10  17
ENDBRANCH   1  14
BRANCH   5  18
ATOM     18  C   UNL     1      36.085   2.506  14.662  0.00  0.00    +0.000 A 
ATOM     19  C   UNL     1      34.923   2.570  15.374  0.00  0.00    +0.000 A 
ATOM     20  C   UNL     1      34.104   3.678  15.378  0.00  0.00    +0.000 A 
ATOM     21  C   UNL     1      34.439   4.795  14.641  0.00  0.00    +0.000 A 
ATOM     22  C   UNL     1      35.614   4.750  13.912  0.00  0.00    +0.000 A 
ATOM     23  C   UNL     1      36.433   3.612  13.922  0.00  0.00    +0.000 A 
ENDBRANCH   5  18
BRANCH   7  24
ATOM     24  N   UNL     1      36.758  -2.227  15.601  0.00  0.00    +0.000 N 
ATOM     25  C   UNL     1      36.152  -3.214  14.721  0.00  0.00    +0.000 C 
ATOM     26  C   UNL     1      36.731  -4.592  14.898  0.00  0.00    +0.000 C 
ATOM     27  C   UNL     1      37.126  -4.897  16.322  0.00  0.00    +0.000 C 
ATOM     28  C   UNL     1      37.929  -3.734  16.932  0.00  0.00    +0.000 C 
ATOM     29  C   UNL     1      36.683  -2.671  17.092  0.00  0.00    +0.000 C 
BRANCH  29  30
ATOM     30  C   UNL     1      37.547  -1.449  17.738  0.00  0.00    +0.000 C 
BRANCH  30  31
ATOM     31  C   UNL     1      36.867  -0.862  18.878  0.00  0.00    +0.000 C 
ATOM     32  O   UNL     1      36.860   0.491  19.034  0.00  0.00    +0.000 OA
ENDBRANCH  30  31
ENDBRANCH  29  30
ENDBRANCH   7  24
TORSDOF 6
ENDMDL
MODEL 8
REMARK VINA RESULT:      -7.4      2.812      3.578
REMARK  Name = 
REMARK  6 active torsions:
REMARK  status: ('A' for Active; 'I' for Inactive)
REMARK    1  A    between atoms: O_2  and  C_3
REMARK    2  A    between atoms: C_7  and  C_8
REMARK    3  A    between atoms: C_12  and  C_13
REMARK    4  A    between atoms: C_20  and  N_21
REMARK    5  A    between atoms: C_26  and  C_27
REMARK    6  A    between atoms: C_27  and  C_28
REMARK                            x       y       z     vdW  Elec       q    Type
REMARK                         _______ _______ _______ _____ _____    ______ ____
ROOT
ATOM      1  C   UNL     1      38.429   4.981  17.019  0.00  0.00    +0.000 A 
ATOM      2  C   UNL     1      38.526   5.360  15.698  0.00  0.00    +0.000 A 
ATOM      3  C   UNL     1      38.044   4.314  14.915  0.00  0.00    +0.000 A 
ATOM      4  N   UNL     1      37.914   4.170  13.577  0.00  0.00    +0.000 NA
ATOM      5  C   UNL     1      37.404   3.037  13.064  0.00  0.00    +0.000 A 
ATOM      6  C   UNL     1      37.041   2.075  13.963  0.00  0.00    +0.000 A 
ATOM      7  C   UNL     1      37.163   2.199  15.346  0.00  0.00    +0.000 A 
ATOM      8  N   UNL     1      37.684   3.365  15.799  0.00  0.00    +0.000 N 
ATOM      9  N   UNL     1      37.912   3.761  17.039  0.00  0.00    +0.000 NA
ENDROOT
BRANCH   1  14
ATOM     10  C   UNL     1      38.443   7.897  19.424  0.00  0.00    +0.000 A 
ATOM     11  C   UNL     1      39.539   7.578  20.198  0.00  0.00    +0.000 A 
ATOM     12  C   UNL     1      40.285   6.418  19.958  0.00  0.00    +0.000 A 
ATOM     13  C   UNL     1      39.929   5.574  18.933  0.00  0.00    +0.000 A 
ATOM     14  C   UNL     1      38.835   5.857  18.131  0.00  0.00    +0.000 A 
ATOM     15  C   UNL     1      38.130   7.018  18.411  0.00  0.00    +0.000 A 
BRANCH  10  17
ATOM     16  C   UNL     1      38.112   9.993  20.617  0.00  0.00    +0.000 C 
ATOM     17  O   UNL     1      37.697   9.049  19.657  0.00  0.00    +0.000 OA
ENDBRANCH  10  17
ENDBRANCH   1  14
BRANCH   5  18
ATOM     18  C   UNL     1      37.263   2.918  11.614  0.00  0.00    +0.000 A 
ATOM     19  C   UNL     1      37.337   1.703  11.000  0.00  0.00    +0.000 A 
ATOM     20  C   UNL     1      37.220   1.542   9.635  0.00  0.00    +0.000 A 
ATOM     21  C   UNL     1      37.018   2.636   8.820  0.00  0.00    +0.000 A 
ATOM     22  C   UNL     1      36.939   3.878   9.425  0.00  0.00    +0.000 A 
ATOM     23  C   UNL     1      37.061   4.019  10.814  0.00  0.00    +0.000 A 
ENDBRANCH   5  18
BRANCH   7  24
ATOM     24  N   UNL     1      36.778   1.162  16.133  0.00  0.00    +0.000 N 
ATOM     25  C   UNL     1      35.646   1.230  17.042  0.00  0.00    +0.000 C 
ATOM     26  C   UNL     1      34.656   0.116  16.830  0.00  0.00    +0.000 C 
ATOM     27  C   UNL     1      35.298  -1.186  16.418  0.00  0.00    +0.000 C 
ATOM     28  C   UNL     1      36.326  -0.961  15.294  0.00  0.00    +0.000 C 
ATOM     29  C   UNL     1      37.483  -0.225  16.203  0.00  0.00    +0.000 C 
BRANCH  29  30
ATOM     30  C   UNL     1      38.562   0.005  15.003  0.00  0.00    +0.000 C 
BRANCH  30  31
ATOM     31  C   UNL     1      39.222  -1.234  14.636  0.00  0.00    +0.000 C 
ATOM     32  O   UNL     1      40.545  -1.401  14.917  0.00  0.00    +0.000 OA
ENDBRANCH  30  31
ENDBRANCH  29  30
ENDBRANCH   7  24
TORSDOF 6
ENDMDL
MODEL 9
REMARK VINA RESULT:      -7.3      1.970      5.230
REMARK  Name = 
REMARK  6 active torsions:
REMARK  status: ('A' for Active; 'I' for Inactive)
REMARK    1  A    between atoms: O_2  and  C_3
REMARK    2  A    between atoms: C_7  and  C_8
REMARK    3  A    between atoms: C_12  and  C_13
REMARK    4  A    between atoms: C_20  and  N_21
REMARK    5  A    between atoms: C_26  and  C_27
REMARK    6  A    between atoms: C_27  and  C_28
REMARK                            x       y       z     vdW  Elec       q    Type
REMARK                         _______ _______ _______ _____ _____    ______ ____
ROOT
ATOM      1  C   UNL     1      38.162   5.111  17.644  0.00  0.00    +0.000 A 
ATOM      2  C   UNL     1      37.970   3.846  18.156  0.00  0.00    +0.000 A 
ATOM      3  C   UNL     1      37.233   3.115  17.227  0.00  0.00    +0.000 A 
ATOM      4  N   UNL     1      36.782   1.840  17.232  0.00  0.00    +0.000 NA
ATOM      5  C   UNL     1      36.083   1.366  16.186  0.00  0.00    +0.000 A 
ATOM      6  C   UNL     1      35.869   2.237  15.156  0.00  0.00    +0.000 A 
ATOM      7  C   UNL     1      36.323   3.554  15.127  0.00  0.00    +0.000 A 
ATOM      8  N   UNL     1      37.021   3.970  16.211  0.00  0.00    +0.000 N 
ATOM      9  N   UNL     1      37.570   5.147  16.459  0.00  0.00    +0.000 NA
ENDROOT
BRANCH   1  14
ATOM     10  C   UNL     1      40.743   6.718  19.889  0.00  0.00    +0.000 A 
ATOM     11  C   UNL     1      40.399   8.047  19.754  0.00  0.00    +0.000 A 
ATOM     12  C   UNL     1      39.334   8.443  18.937  0.00  0.00    +0.000 A 
ATOM     13  C   UNL     1      38.609   7.497  18.250  0.00  0.00    +0.000 A 
ATOM     14  C   UNL     1      38.921   6.152  18.358  0.00  0.00    +0.000 A 
ATOM     15  C   UNL     1      39.985   5.813  19.180  0.00  0.00    +0.000 A 
BRANCH  10  17
ATOM     16  C   UNL     1      42.994   7.067  20.747  0.00  0.00    +0.000 C 
ATOM     17  O   UNL     1      41.801   6.318  20.701  0.00  0.00    +0.000 OA
ENDBRANCH  10  17
ENDBRANCH   1  14
BRANCH   5  18
ATOM     18  C   UNL     1      35.623  -0.021  16.214  0.00  0.00    +0.000 A 
ATOM     19  C   UNL     1      34.690  -0.431  17.121  0.00  0.00    +0.000 A 
ATOM     20  C   UNL     1      34.232  -1.730  17.193  0.00  0.00    +0.000 A 
ATOM     21  C   UNL     1      34.715  -2.688  16.327  0.00  0.00    +0.000 A 
ATOM     22  C   UNL     1      35.662  -2.291  15.398  0.00  0.00    +0.000 A 
ATOM     23  C   UNL     1      36.113  -0.965  15.342  0.00  0.00    +0.000 A 
ENDBRANCH   5  18
BRANCH   7  24
ATOM     24  N   UNL     1      36.030   4.324  14.047  0.00  0.00    +0.000 N 
ATOM     25  C   UNL     1      34.906   5.245  14.008  0.00  0.00    +0.000 C 
ATOM     26  C   UNL     1      35.308   6.645  13.628  0.00  0.00    +0.000 C 
ATOM     27  C   UNL     1      36.442   6.693  12.633  0.00  0.00    +0.000 C 
ATOM     28  C   UNL     1      37.579   5.744  13.049  0.00  0.00    +0.000 C 
ATOM     29  C   UNL     1      36.817   4.328  12.703  0.00  0.00    +0.000 C 
BRANCH  29  30
ATOM     30  C   UNL     1      38.032   3.335  13.146  0.00  0.00    +0.000 C 
BRANCH  30  31
ATOM     31  C   UNL     1      39.299   4.038  13.203  0.00  0.00    +0.000 C 
ATOM     32  O   UNL     1      40.100   3.895  14.296  0.00  0.00    +0.000 OA
ENDBRANCH  30  31
ENDBRANCH  29  30
ENDBRANCH   7  24
TORSDOF 6
ENDMDL
MODEL 10
REMARK VINA RESULT:      -7.3      2.983      7.785
REMARK  Name = 
REMARK  6 active torsions:
REMARK  status: ('A' for Active; 'I' for Inactive)
REMARK    1  A    between atoms: O_2  and  C_3
REMARK    2  A    between atoms: C_7  and  C_8
REMARK    3  A    between atoms: C_12  and  C_13
REMARK    4  A    between atoms: C_20  and  N_21
REMARK    5  A    between atoms: C_26  and  C_27
REMARK    6  A    between atoms: C_27  and  C_28
REMARK                            x       y       z     vdW  Elec       q    Type
REMARK                         _______ _______ _______ _____ _____    ______ ____
ROOT
ATOM      1  C   UNL     1      36.073   0.701  16.372  0.00  0.00    +0.000 A 
ATOM      2  C   UNL     1      36.334   1.434  17.510  0.00  0.00    +0.000 A 
ATOM      3  C   UNL     1      37.020   2.584  17.130  0.00  0.00    +0.000 A 
ATOM      4  N   UNL     1      37.503   3.627  17.844  0.00  0.00    +0.000 NA
ATOM      5  C   UNL     1      38.137   4.636  17.222  0.00  0.00    +0.000 A 
ATOM      6  C   UNL     1      38.255   4.534  15.865  0.00  0.00    +0.000 A 
ATOM      7  C   UNL     1      37.765   3.471  15.108  0.00  0.00    +0.000 A 
ATOM      8  N   UNL     1      37.137   2.487  15.793  0.00  0.00    +0.000 N 
ATOM      9  N   UNL     1      36.578   1.375  15.349  0.00  0.00    +0.000 NA
ENDROOT
BRANCH   1  14
ATOM     10  C   UNL     1      35.078  -2.843  15.516  0.00  0.00    +0.000 A 
ATOM     11  C   UNL     1      34.009  -3.016  16.369  0.00  0.00    +0.000 A 
ATOM     12  C   UNL     1      33.597  -1.996  17.234  0.00  0.00    +0.000 A 
ATOM     13  C   UNL     1      34.263  -0.793  17.241  0.00  0.00    +0.000 A 
ATOM     14  C   UNL     1      35.342  -0.577  16.398  0.00  0.00    +0.000 A 
ATOM     15  C   UNL     1      35.709  -1.620  15.562  0.00  0.00    +0.000 A 
BRANCH  10  17
ATOM     16  C   UNL     1      35.329  -5.210  15.002  0.00  0.00    +0.000 C 
ATOM     17  O   UNL     1      35.494  -3.855  14.653  0.00  0.00    +0.000 OA
ENDBRANCH  10  17
ENDBRANCH   1  14
BRANCH   5  18
ATOM     18  C   UNL     1      38.634   5.756  18.019  0.00  0.00    +0.000 A 
ATOM     19  C   UNL     1      38.138   7.015  17.846  0.00  0.00    +0.000 A 
ATOM     20  C   UNL     1      38.582   8.104  18.566  0.00  0.00    +0.000 A 
ATOM     21  C   UNL     1      39.570   7.955  19.516  0.00  0.00    +0.000 A 
ATOM     22  C   UNL     1      40.085   6.685  19.708  0.00  0.00    +0.000 A 
ATOM     23  C   UNL     1      39.621   5.591  18.964  0.00  0.00    +0.000 A 
ENDBRANCH   5  18
BRANCH   7  24
ATOM     24  N   UNL     1      37.961   3.481  13.764  0.00  0.00    +0.000 N 
ATOM     25  C   UNL     1      37.117   4.225  12.842  0.00  0.00    +0.000 C 
ATOM     26  C   UNL     1      37.899   5.144  11.943  0.00  0.00    +0.000 C 
ATOM     27  C   UNL     1      39.251   4.597  11.556  0.00  0.00    +0.000 C 
ATOM     28  C   UNL     1      39.995   4.047  12.786  0.00  0.00    +0.000 C 
ATOM     29  C   UNL     1      39.078   2.700  13.010  0.00  0.00    +0.000 C 
BRANCH  29  30
ATOM     30  C   UNL     1      39.877   2.130  14.311  0.00  0.00    +0.000 C 
BRANCH  30  31
ATOM     31  C   UNL     1      40.270   0.745  14.130  0.00  0.00    +0.000 C 
ATOM     32  O   UNL     1      39.386  -0.250  14.420  0.00  0.00    +0.000 OA
ENDBRANCH  30  31
ENDBRANCH  29  30
ENDBRANCH   7  24
TORSDOF 6
ENDMDL
