MODEL 1
REMARK VINA RESULT:      -6.5      0.000      0.000
REMARK  Name = 
REMARK  4 active torsions:
REMARK  status: ('A' for Active; 'I' for Inactive)
REMARK    1  A    between atoms: C_2  and  C_4
REMARK    2  A    between atoms: C_6  and  N_7
REMARK    3  A    between atoms: N_7  and  C_8
REMARK    4  A    between atoms: C_15  and  C_16
REMARK                            x       y       z     vdW  Elec       q    Type
REMARK                         _______ _______ _______ _____ _____    ______ ____
ROOT
ATOM      1  C   UNL     1      27.368  23.117  28.674  0.00  0.00    +0.000 A 
ATOM      2  C   UNL     1      26.467  23.187  27.634  0.00  0.00    +0.000 A 
ATOM      3  C   UNL     1      26.905  23.178  26.311  0.00  0.00    +0.000 A 
ATOM      4  C   UNL     1      28.252  23.099  26.055  0.00  0.00    +0.000 A 
ATOM      5  C   UNL     1      29.125  23.031  27.108  0.00  0.00    +0.000 A 
ATOM      6  C   UNL     1      28.722  23.037  28.424  0.00  0.00    +0.000 A 
ATOM      7  O   UNL     1      29.656  22.965  29.474  0.00  0.00    +0.000 OA
ENDROOT
BRANCH   5   8
ATOM      8  C   UNL     1      30.617  22.942  26.887  0.00  0.00    +0.000 C 
ATOM      9  C   UNL     1      31.114  21.759  27.680  0.00  0.00    +0.000 C 
ATOM     10  C   UNL     1      30.813  22.682  25.418  0.00  0.00    +0.000 C 
ATOM     11  C   UNL     1      31.304  24.221  27.285  0.00  0.00    +0.000 C 
ENDBRANCH   5   8
BRANCH   1  13
ATOM     12  C   UNL     1      25.926  24.244  30.305  0.00  0.00    +0.000 C 
ATOM     13  C   UNL     1      26.931  23.124  30.088  0.00  0.00    +0.000 C 
ATOM     14  C   UNL     1      26.321  21.790  30.473  0.00  0.00    +0.000 C 
ENDBRANCH   1  13
BRANCH   3  15
ATOM     15  N   UNL     1      25.941  23.253  25.240  0.00  0.00    +0.000 NA
BRANCH  15  16
ATOM     16  C   UNL     1      26.405  23.808  24.004  0.00  0.00    +0.000 A 
ATOM     17  C   UNL     1      26.775  25.133  23.994  0.00  0.00    +0.000 A 
ATOM     18  C   UNL     1      27.222  25.678  22.815  0.00  0.00    +0.000 A 
ATOM     19  C   UNL     1      27.296  24.913  21.673  0.00  0.00    +0.000 A 
ATOM     20  N   UNL     1      26.915  23.630  21.777  0.00  0.00    +0.000 NA
ATOM     21  N   UNL     1      26.482  23.079  22.892  0.00  0.00    +0.000 NA
ENDBRANCH  15  16
ENDBRANCH   3  15
TORSDOF 4
ENDMDL
MODEL 2
REMARK VINA RESULT:      -6.5     16.714     18.137
REMARK  Name = 
REMARK  4 active torsions:
REMARK  status: ('A' for Active; 'I' for Inactive)
REMARK    1  A    between atoms: C_2  and  C_4
REMARK    2  A    between atoms: C_6  and  N_7
REMARK    3  A    between atoms: N_7  and  C_8
REMARK    4  A    between atoms: C_15  and  C_16
REMARK                            x       y       z     vdW  Elec       q    Type
REMARK                         _______ _______ _______ _____ _____    ______ ____
ROOT
ATOM      1  C   UNL     1      21.248  12.343  38.477  0.00  0.00    +0.000 A 
ATOM      2  C   UNL     1      20.081  11.638  38.276  0.00  0.00    +0.000 A 
ATOM      3  C   UNL     1      20.098  10.404  37.626  0.00  0.00    +0.000 A 
ATOM      4  C   UNL     1      21.297   9.900  37.185  0.00  0.00    +0.000 A 
ATOM      5  C   UNL     1      22.441  10.624  37.397  0.00  0.00    +0.000 A 
ATOM      6  C   UNL     1      22.454  11.843  38.037  0.00  0.00    +0.000 A 
ATOM      7  O   UNL     1      23.655  12.551  38.232  0.00  0.00    +0.000 OA
ENDROOT
BRANCH   5   8
ATOM      8  C   UNL     1      23.787  10.119  36.934  0.00  0.00    +0.000 C 
ATOM      9  C   UNL     1      24.576   9.760  38.168  0.00  0.00    +0.000 C 
ATOM     10  C   UNL     1      23.520   8.877  36.128  0.00  0.00    +0.000 C 
ATOM     11  C   UNL     1      24.493  11.145  36.088  0.00  0.00    +0.000 C 
ENDBRANCH   5   8
BRANCH   1  13
ATOM     12  C   UNL     1      20.017  14.443  38.778  0.00  0.00    +0.000 C 
ATOM     13  C   UNL     1      21.259  13.654  39.165  0.00  0.00    +0.000 C 
ATOM     14  C   UNL     1      21.319  13.475  40.670  0.00  0.00    +0.000 C 
ENDBRANCH   1  13
BRANCH   3  15
ATOM     15  N   UNL     1      18.864   9.685  37.429  0.00  0.00    +0.000 NA
BRANCH  15  16
ATOM     16  C   UNL     1      18.026  10.141  36.360  0.00  0.00    +0.000 A 
ATOM     17  C   UNL     1      18.254   9.630  35.103  0.00  0.00    +0.000 A 
ATOM     18  C   UNL     1      17.458  10.059  34.068  0.00  0.00    +0.000 A 
ATOM     19  C   UNL     1      16.458  10.978  34.289  0.00  0.00    +0.000 A 
ATOM     20  N   UNL     1      16.309  11.422  35.548  0.00  0.00    +0.000 NA
ATOM     21  N   UNL     1      17.055  11.031  36.559  0.00  0.00    +0.000 NA
ENDBRANCH  15  16
ENDBRANCH   3  15
TORSDOF 4
ENDMDL
MODEL 3
REMARK VINA RESULT:      -6.3      2.697      5.048
REMARK  Name = 
REMARK  4 active torsions:
REMARK  status: ('A' for Active; 'I' for Inactive)
REMARK    1  A    between atoms: C_2  and  C_4
REMARK    2  A    between atoms: C_6  and  N_7
REMARK    3  A    between atoms: N_7  and  C_8
REMARK    4  A    between atoms: C_15  and  C_16
REMARK                            x       y       z     vdW  Elec       q    Type
REMARK                         _______ _______ _______ _____ _____    ______ ____
ROOT
ATOM      1  C   UNL     1      32.566  24.337  25.466  0.00  0.00    +0.000 A 
ATOM      2  C   UNL     1      31.775  24.135  24.356  0.00  0.00    +0.000 A 
ATOM      3  C   UNL     1      30.508  23.567  24.479  0.00  0.00    +0.000 A 
ATOM      4  C   UNL     1      30.055  23.209  25.725  0.00  0.00    +0.000 A 
ATOM      5  C   UNL     1      30.864  23.421  26.811  0.00  0.00    +0.000 A 
ATOM      6  C   UNL     1      32.118  23.980  26.721  0.00  0.00    +0.000 A 
ATOM      7  O   UNL     1      32.913  24.179  27.865  0.00  0.00    +0.000 OA
ENDROOT
BRANCH   5   8
ATOM      8  C   UNL     1      30.419  23.048  28.205  0.00  0.00    +0.000 C 
ATOM      9  C   UNL     1      30.314  24.328  28.997  0.00  0.00    +0.000 C 
ATOM     10  C   UNL     1      29.054  22.430  28.065  0.00  0.00    +0.000 C 
ATOM     11  C   UNL     1      31.370  22.066  28.837  0.00  0.00    +0.000 C 
ENDBRANCH   5   8
BRANCH   1  13
ATOM     12  C   UNL     1      34.712  24.222  24.285  0.00  0.00    +0.000 C 
ATOM     13  C   UNL     1      33.915  24.938  25.366  0.00  0.00    +0.000 C 
ATOM     14  C   UNL     1      33.826  26.420  25.057  0.00  0.00    +0.000 C 
ENDBRANCH   1  13
BRANCH   3  15
ATOM     15  N   UNL     1      29.700  23.366  23.301  0.00  0.00    +0.000 NA
BRANCH  15  16
ATOM     16  C   UNL     1      29.584  24.482  22.411  0.00  0.00    +0.000 A 
ATOM     17  C   UNL     1      29.343  25.720  22.961  0.00  0.00    +0.000 A 
ATOM     18  C   UNL     1      29.229  26.799  22.118  0.00  0.00    +0.000 A 
ATOM     19  C   UNL     1      29.355  26.640  20.756  0.00  0.00    +0.000 A 
ATOM     20  N   UNL     1      29.591  25.396  20.310  0.00  0.00    +0.000 NA
ATOM     21  N   UNL     1      29.703  24.343  21.091  0.00  0.00    +0.000 NA
ENDBRANCH  15  16
ENDBRANCH   3  15
TORSDOF 4
ENDMDL
MODEL 4
REMARK VINA RESULT:      -6.2      2.654      4.414
REMARK  Name = 
REMARK  4 active torsions:
REMARK  status: ('A' for Active; 'I' for Inactive)
REMARK    1  A    between atoms: C_2  and  C_4
REMARK    2  A    between atoms: C_6  and  N_7
REMARK    3  A    between atoms: N_7  and  C_8
REMARK    4  A    between atoms: C_15  and  C_16
REMARK                            x       y       z     vdW  Elec       q    Type
REMARK                         _______ _______ _______ _____ _____    ______ ____
ROOT
ATOM      1  C   UNL     1      25.892  24.153  28.661  0.00  0.00    +0.000 A 
ATOM      2  C   UNL     1      26.427  23.361  27.669  0.00  0.00    +0.000 A 
ATOM      3  C   UNL     1      26.077  23.559  26.334  0.00  0.00    +0.000 A 
ATOM      4  C   UNL     1      25.188  24.557  26.019  0.00  0.00    +0.000 A 
ATOM      5  C   UNL     1      24.670  25.328  27.027  0.00  0.00    +0.000 A 
ATOM      6  C   UNL     1      24.998  25.156  28.352  0.00  0.00    +0.000 A 
ATOM      7  O   UNL     1      24.441  25.974  29.353  0.00  0.00    +0.000 OA
ENDROOT
BRANCH   5   8
ATOM      8  C   UNL     1      23.688  26.439  26.739  0.00  0.00    +0.000 C 
ATOM      9  C   UNL     1      24.318  27.724  27.217  0.00  0.00    +0.000 C 
ATOM     10  C   UNL     1      23.523  26.484  25.245  0.00  0.00    +0.000 C 
ATOM     11  C   UNL     1      22.361  26.179  27.401  0.00  0.00    +0.000 C 
ENDBRANCH   5   8
BRANCH   1  13
ATOM     12  C   UNL     1      26.400  22.482  30.382  0.00  0.00    +0.000 C 
ATOM     13  C   UNL     1      26.246  23.966  30.086  0.00  0.00    +0.000 C 
ATOM     14  C   UNL     1      27.526  24.704  30.428  0.00  0.00    +0.000 C 
ENDBRANCH   1  13
BRANCH   3  15
ATOM     15  N   UNL     1      26.652  22.717  25.314  0.00  0.00    +0.000 NA
BRANCH  15  16
ATOM     16  C   UNL     1      26.938  23.344  24.058  0.00  0.00    +0.000 A 
ATOM     17  C   UNL     1      27.963  24.259  24.016  0.00  0.00    +0.000 A 
ATOM     18  C   UNL     1      28.247  24.868  22.817  0.00  0.00    +0.000 A 
ATOM     19  C   UNL     1      27.519  24.566  21.688  0.00  0.00    +0.000 A 
ATOM     20  N   UNL     1      26.538  23.661  21.824  0.00  0.00    +0.000 NA
ATOM     21  N   UNL     1      26.241  23.061  22.958  0.00  0.00    +0.000 NA
ENDBRANCH  15  16
ENDBRANCH   3  15
TORSDOF 4
ENDMDL
MODEL 5
REMARK VINA RESULT:      -6.1      1.736      3.926
REMARK  Name = 
REMARK  4 active torsions:
REMARK  status: ('A' for Active; 'I' for Inactive)
REMARK    1  A    between atoms: C_2  and  C_4
REMARK    2  A    between atoms: C_6  and  N_7
REMARK    3  A    between atoms: N_7  and  C_8
REMARK    4  A    between atoms: C_15  and  C_16
REMARK                            x       y       z     vdW  Elec       q    Type
REMARK                         _______ _______ _______ _____ _____    ______ ____
ROOT
ATOM      1  C   UNL     1      30.897  22.820  28.172  0.00  0.00    +0.000 A 
ATOM      2  C   UNL     1      31.023  22.534  26.830  0.00  0.00    +0.000 A 
ATOM      3  C   UNL     1      29.913  22.571  25.987  0.00  0.00    +0.000 A 
ATOM      4  C   UNL     1      28.687  22.896  26.513  0.00  0.00    +0.000 A 
ATOM      5  C   UNL     1      28.591  23.175  27.852  0.00  0.00    +0.000 A 
ATOM      6  C   UNL     1      29.670  23.148  28.707  0.00  0.00    +0.000 A 
ATOM      7  O   UNL     1      29.523  23.442  30.075  0.00  0.00    +0.000 OA
ENDROOT
BRANCH   5   8
ATOM      8  C   UNL     1      27.269  23.539  28.485  0.00  0.00    +0.000 C 
ATOM      9  C   UNL     1      26.242  23.571  27.382  0.00  0.00    +0.000 C 
ATOM     10  C   UNL     1      26.940  22.430  29.448  0.00  0.00    +0.000 C 
ATOM     11  C   UNL     1      27.358  24.852  29.216  0.00  0.00    +0.000 C 
ENDBRANCH   5   8
BRANCH   1  13
ATOM     12  C   UNL     1      32.542  21.357  29.251  0.00  0.00    +0.000 C 
ATOM     13  C   UNL     1      32.058  22.789  29.090  0.00  0.00    +0.000 C 
ATOM     14  C   UNL     1      33.182  23.667  28.571  0.00  0.00    +0.000 C 
ENDBRANCH   1  13
BRANCH   3  15
ATOM     15  N   UNL     1      30.071  22.267  24.586  0.00  0.00    +0.000 NA
BRANCH  15  16
ATOM     16  C   UNL     1      29.419  23.150  23.667  0.00  0.00    +0.000 A 
ATOM     17  C   UNL     1      30.015  24.363  23.408  0.00  0.00    +0.000 A 
ATOM     18  C   UNL     1      29.398  25.219  22.527  0.00  0.00    +0.000 A 
ATOM     19  C   UNL     1      28.213  24.868  21.922  0.00  0.00    +0.000 A 
ATOM     20  N   UNL     1      27.706  23.665  22.235  0.00  0.00    +0.000 NA
ATOM     21  N   UNL     1      28.271  22.823  23.074  0.00  0.00    +0.000 NA
ENDBRANCH  15  16
ENDBRANCH   3  15
TORSDOF 4
ENDMDL
MODEL 6
REMARK VINA RESULT:      -6.0      2.242      3.490
REMARK  Name = 
REMARK  4 active torsions:
REMARK  status: ('A' for Active; 'I' for Inactive)
REMARK    1  A    between atoms: C_2  and  C_4
REMARK    2  A    between atoms: C_6  and  N_7
REMARK    3  A    between atoms: N_7  and  C_8
REMARK    4  A    between atoms: C_15  and  C_16
REMARK                            x       y       z     vdW  Elec       q    Type
REMARK                         _______ _______ _______ _____ _____    ______ ____
ROOT
ATOM      1  C   UNL     1      24.841  25.597  29.520  0.00  0.00    +0.000 A 
ATOM      2  C   UNL     1      24.560  25.771  28.182  0.00  0.00    +0.000 A 
ATOM      3  C   UNL     1      25.144  24.948  27.220  0.00  0.00    +0.000 A 
ATOM      4  C   UNL     1      26.008  23.959  27.623  0.00  0.00    +0.000 A 
ATOM      5  C   UNL     1      26.269  23.811  28.960  0.00  0.00    +0.000 A 
ATOM      6  C   UNL     1      25.706  24.606  29.932  0.00  0.00    +0.000 A 
ATOM      7  O   UNL     1      26.005  24.416  31.294  0.00  0.00    +0.000 OA
ENDROOT
BRANCH   5   8
ATOM      8  C   UNL     1      27.210  22.741  29.462  0.00  0.00    +0.000 C 
ATOM      9  C   UNL     1      26.385  21.760  30.257  0.00  0.00    +0.000 C 
ATOM     10  C   UNL     1      27.766  22.058  28.242  0.00  0.00    +0.000 C 
ATOM     11  C   UNL     1      28.327  23.336  30.278  0.00  0.00    +0.000 C 
ENDBRANCH   5   8
BRANCH   1  13
ATOM     12  C   UNL     1      25.048  27.731  30.709  0.00  0.00    +0.000 C 
ATOM     13  C   UNL     1      24.234  26.455  30.563  0.00  0.00    +0.000 C 
ATOM     14  C   UNL     1      22.794  26.788  30.221  0.00  0.00    +0.000 C 
ENDBRANCH   1  13
BRANCH   3  15
ATOM     15  N   UNL     1      24.833  25.150  25.826  0.00  0.00    +0.000 NA
BRANCH  15  16
ATOM     16  C   UNL     1      25.777  24.629  24.883  0.00  0.00    +0.000 A 
ATOM     17  C   UNL     1      26.962  25.306  24.719  0.00  0.00    +0.000 A 
ATOM     18  C   UNL     1      27.876  24.817  23.816  0.00  0.00    +0.000 A 
ATOM     19  C   UNL     1      27.606  23.676  23.096  0.00  0.00    +0.000 A 
ATOM     20  N   UNL     1      26.424  23.081  23.322  0.00  0.00    +0.000 NA
ATOM     21  N   UNL     1      25.528  23.525  24.178  0.00  0.00    +0.000 NA
ENDBRANCH  15  16
ENDBRANCH   3  15
TORSDOF 4
ENDMDL
MODEL 7
REMARK VINA RESULT:      -6.0     16.681     18.298
REMARK  Name = 
REMARK  4 active torsions:
REMARK  status: ('A' for Active; 'I' for Inactive)
REMARK    1  A    between atoms: C_2  and  C_4
REMARK    2  A    between atoms: C_6  and  N_7
REMARK    3  A    between atoms: N_7  and  C_8
REMARK    4  A    between atoms: C_15  and  C_16
REMARK                            x       y       z     vdW  Elec       q    Type
REMARK                         _______ _______ _______ _____ _____    ______ ____
ROOT
ATOM      1  C   UNL     1      22.515  10.682  37.567  0.00  0.00    +0.000 A 
ATOM      2  C   UNL     1      21.341  10.007  37.309  0.00  0.00    +0.000 A 
ATOM      3  C   UNL     1      20.111  10.555  37.671  0.00  0.00    +0.000 A 
ATOM      4  C   UNL     1      20.083  11.780  38.291  0.00  0.00    +0.000 A 
ATOM      5  C   UNL     1      21.266  12.428  38.536  0.00  0.00    +0.000 A 
ATOM      6  C   UNL     1      22.494  11.912  38.189  0.00  0.00    +0.000 A 
ATOM      7  O   UNL     1      23.684  12.614  38.461  0.00  0.00    +0.000 OA
ENDROOT
BRANCH   5   8
ATOM      8  C   UNL     1      21.297  13.777  39.214  0.00  0.00    +0.000 C 
ATOM      9  C   UNL     1      19.950  14.418  38.989  0.00  0.00    +0.000 C 
ATOM     10  C   UNL     1      21.489  13.510  40.682  0.00  0.00    +0.000 C 
ATOM     11  C   UNL     1      22.424  14.626  38.689  0.00  0.00    +0.000 C 
ENDBRANCH   5   8
BRANCH   1  13
ATOM     12  C   UNL     1      24.167   8.952  38.103  0.00  0.00    +0.000 C 
ATOM     13  C   UNL     1      23.834  10.124  37.193  0.00  0.00    +0.000 C 
ATOM     14  C   UNL     1      23.843   9.681  35.743  0.00  0.00    +0.000 C 
ENDBRANCH   1  13
BRANCH   3  15
ATOM     15  N   UNL     1      18.897   9.830  37.389  0.00  0.00    +0.000 NA
BRANCH  15  16
ATOM     16  C   UNL     1      18.110  10.307  36.292  0.00  0.00    +0.000 A 
ATOM     17  C   UNL     1      18.289   9.709  35.066  0.00  0.00    +0.000 A 
ATOM     18  C   UNL     1      17.541  10.158  34.004  0.00  0.00    +0.000 A 
ATOM     19  C   UNL     1      16.635  11.182  34.169  0.00  0.00    +0.000 A 
ATOM     20  N   UNL     1      16.528  11.704  35.401  0.00  0.00    +0.000 NA
ATOM     21  N   UNL     1      17.230  11.297  36.437  0.00  0.00    +0.000 NA
ENDBRANCH  15  16
ENDBRANCH   3  15
TORSDOF 4
ENDMDL
MODEL 8
REMARK VINA RESULT:      -5.9      2.803      4.815
REMARK  Name = 
REMARK  4 active torsions:
REMARK  status: ('A' for Active; 'I' for Inactive)
REMARK    1  A    between atoms: C_2  and  C_4
REMARK    2  A    between atoms: C_6  and  N_7
REMARK    3  A    between atoms: N_7  and  C_8
REMARK    4  A    between atoms: C_15  and  C_16
REMARK                            x       y       z     vdW  Elec       q    Type
REMARK                         _______ _______ _______ _____ _____    ______ ____
ROOT
ATOM      1  C   UNL     1      26.868  23.197  28.006  0.00  0.00    +0.000 A 
ATOM      2  C   UNL     1      28.123  22.639  27.899  0.00  0.00    +0.000 A 
ATOM      3  C   UNL     1      28.778  22.590  26.669  0.00  0.00    +0.000 A 
ATOM      4  C   UNL     1      28.153  23.107  25.561  0.00  0.00    +0.000 A 
ATOM      5  C   UNL     1      26.904  23.655  25.697  0.00  0.00    +0.000 A 
ATOM      6  C   UNL     1      26.235  23.718  26.898  0.00  0.00    +0.000 A 
ATOM      7  O   UNL     1      24.953  24.291  26.989  0.00  0.00    +0.000 OA
ENDROOT
BRANCH   5   8
ATOM      8  C   UNL     1      26.170  24.238  24.513  0.00  0.00    +0.000 C 
ATOM      9  C   UNL     1      25.628  25.579  24.943  0.00  0.00    +0.000 C 
ATOM     10  C   UNL     1      27.196  24.433  23.430  0.00  0.00    +0.000 C 
ATOM     11  C   UNL     1      25.081  23.313  24.037  0.00  0.00    +0.000 C 
ENDBRANCH   5   8
BRANCH   1  13
ATOM     12  C   UNL     1      26.488  22.035  30.132  0.00  0.00    +0.000 C 
ATOM     13  C   UNL     1      26.150  23.262  29.299  0.00  0.00    +0.000 C 
ATOM     14  C   UNL     1      26.513  24.525  30.057  0.00  0.00    +0.000 C 
ENDBRANCH   1  13
BRANCH   3  15
ATOM     15  N   UNL     1      30.091  22.001  26.583  0.00  0.00    +0.000 NA
BRANCH  15  16
ATOM     16  C   UNL     1      31.164  22.886  26.242  0.00  0.00    +0.000 A 
ATOM     17  C   UNL     1      31.476  23.034  24.910  0.00  0.00    +0.000 A 
ATOM     18  C   UNL     1      32.504  23.880  24.569  0.00  0.00    +0.000 A 
ATOM     19  C   UNL     1      33.202  24.561  25.541  0.00  0.00    +0.000 A 
ATOM     20  N   UNL     1      32.828  24.355  26.814  0.00  0.00    +0.000 NA
ATOM     21  N   UNL     1      31.849  23.551  27.172  0.00  0.00    +0.000 NA
ENDBRANCH  15  16
ENDBRANCH   3  15
TORSDOF 4
ENDMDL
MODEL 9
REMARK VINA RESULT:      -5.9     16.898     19.462
REMARK  Name = 
REMARK  4 active torsions:
REMARK  status: ('A' for Active; 'I' for Inactive)
REMARK    1  A    between atoms: C_2  and  C_4
REMARK    2  A    between atoms: C_6  and  N_7
REMARK    3  A    between atoms: N_7  and  C_8
REMARK    4  A    between atoms: C_15  and  C_16
REMARK                            x       y       z     vdW  Elec       q    Type
REMARK                         _______ _______ _______ _____ _____    ______ ____
ROOT
ATOM      1  C   UNL     1      21.308  12.450  38.512  0.00  0.00    +0.000 A 
ATOM      2  C   UNL     1      20.125  11.773  38.316  0.00  0.00    +0.000 A 
ATOM      3  C   UNL     1      20.112  10.534  37.677  0.00  0.00    +0.000 A 
ATOM      4  C   UNL     1      21.298   9.995  37.241  0.00  0.00    +0.000 A 
ATOM      5  C   UNL     1      22.459  10.692  37.449  0.00  0.00    +0.000 A 
ATOM      6  C   UNL     1      22.503  11.916  38.078  0.00  0.00    +0.000 A 
ATOM      7  O   UNL     1      23.721  12.595  38.269  0.00  0.00    +0.000 OA
ENDROOT
BRANCH   5   8
ATOM      8  C   UNL     1      23.793  10.149  36.993  0.00  0.00    +0.000 C 
ATOM      9  C   UNL     1      24.438  11.214  36.141  0.00  0.00    +0.000 C 
ATOM     10  C   UNL     1      24.612   9.934  38.236  0.00  0.00    +0.000 C 
ATOM     11  C   UNL     1      23.627   8.850  36.248  0.00  0.00    +0.000 C 
ENDBRANCH   5   8
BRANCH   1  13
ATOM     12  C   UNL     1      20.127  14.580  38.798  0.00  0.00    +0.000 C 
ATOM     13  C   UNL     1      21.352  13.767  39.188  0.00  0.00    +0.000 C 
ATOM     14  C   UNL     1      21.413  13.600  40.694  0.00  0.00    +0.000 C 
ENDBRANCH   1  13
BRANCH   3  15
ATOM     15  N   UNL     1      18.859   9.844  37.484  0.00  0.00    +0.000 NA
BRANCH  15  16
ATOM     16  C   UNL     1      18.258   9.278  38.654  0.00  0.00    +0.000 A 
ATOM     17  C   UNL     1      17.175   9.929  39.197  0.00  0.00    +0.000 A 
ATOM     18  C   UNL     1      16.589   9.397  40.321  0.00  0.00    +0.000 A 
ATOM     19  C   UNL     1      17.078   8.240  40.885  0.00  0.00    +0.000 A 
ATOM     20  N   UNL     1      18.138   7.675  40.286  0.00  0.00    +0.000 NA
ATOM     21  N   UNL     1      18.722   8.160  39.211  0.00  0.00    +0.000 NA
ENDBRANCH  15  16
ENDBRANCH   3  15
TORSDOF 4
ENDMDL
MODEL 10
REMARK VINA RESULT:      -5.9      1.683      1.911
REMARK  Name = 
REMARK  4 active torsions:
REMARK  status: ('A' for Active; 'I' for Inactive)
REMARK    1  A    between atoms: C_2  and  C_4
REMARK    2  A    between atoms: C_6  and  N_7
REMARK    3  A    between atoms: N_7  and  C_8
REMARK    4  A    between atoms: C_15  and  C_16
REMARK                            x       y       z     vdW  Elec       q    Type
REMARK                         _______ _______ _______ _____ _____    ______ ____
ROOT
ATOM      1  C   UNL     1      27.986  22.833  29.194  0.00  0.00    +0.000 A 
ATOM      2  C   UNL     1      27.554  22.701  27.892  0.00  0.00    +0.000 A 
ATOM      3  C   UNL     1      28.467  22.678  26.838  0.00  0.00    +0.000 A 
ATOM      4  C   UNL     1      29.807  22.790  27.114  0.00  0.00    +0.000 A 
ATOM      5  C   UNL     1      30.208  22.921  28.418  0.00  0.00    +0.000 A 
ATOM      6  C   UNL     1      29.331  22.945  29.478  0.00  0.00    +0.000 A 
ATOM      7  O   UNL     1      29.790  23.081  30.802  0.00  0.00    +0.000 OA
ENDROOT
BRANCH   5   8
ATOM      8  C   UNL     1      31.669  23.047  28.781  0.00  0.00    +0.000 C 
ATOM      9  C   UNL     1      32.155  21.669  29.154  0.00  0.00    +0.000 C 
ATOM     10  C   UNL     1      32.377  23.512  27.538  0.00  0.00    +0.000 C 
ATOM     11  C   UNL     1      31.870  24.040  29.895  0.00  0.00    +0.000 C 
ENDBRANCH   5   8
BRANCH   1  13
ATOM     12  C   UNL     1      26.045  23.994  30.140  0.00  0.00    +0.000 C 
ATOM     13  C   UNL     1      27.040  22.860  30.332  0.00  0.00    +0.000 C 
ATOM     14  C   UNL     1      26.309  21.537  30.459  0.00  0.00    +0.000 C 
ENDBRANCH   1  13
BRANCH   3  15
ATOM     15  N   UNL     1      27.989  22.539  25.484  0.00  0.00    +0.000 NA
BRANCH  15  16
ATOM     16  C   UNL     1      28.508  23.471  24.528  0.00  0.00    +0.000 A 
ATOM     17  C   UNL     1      28.101  24.781  24.622  0.00  0.00    +0.000 A 
ATOM     18  C   UNL     1      28.592  25.685  23.710  0.00  0.00    +0.000 A 
ATOM     19  C   UNL     1      29.469  25.283  22.729  0.00  0.00    +0.000 A 
ATOM     20  N   UNL     1      29.811  23.985  22.715  0.00  0.00    +0.000 NA
ATOM     21  N   UNL     1      29.358  23.095  23.573  0.00  0.00    +0.000 NA
ENDBRANCH  15  16
ENDBRANCH   3  15
TORSDOF 4
ENDMDL
