MODEL 1
REMARK VINA RESULT:      -5.7      0.000      0.000
REMARK  Name = 
REMARK  5 active torsions:
REMARK  status: ('A' for Active; 'I' for Inactive)
REMARK    1  A    between atoms: C_2  and  C_5
REMARK    2  A    between atoms: N_7  and  C_8
REMARK    3  A    between atoms: C_8  and  N_10
REMARK    4  A    between atoms: N_10  and  C_11
REMARK    5  A    between atoms: C_15  and  N_16
REMARK                            x       y       z     vdW  Elec       q    Type
REMARK                         _______ _______ _______ _____ _____    ______ ____
ROOT
ATOM      1  N   UNL     1      26.183  23.017  25.605  0.00  0.00    +0.000 NA
ENDROOT
BRANCH   1   2
ATOM      2  C   UNL     1      27.436  23.157  24.914  0.00  0.00    +0.000 A 
ATOM      3  C   UNL     1      28.590  22.687  25.504  0.00  0.00    +0.000 A 
ATOM      4  C   UNL     1      29.766  22.845  24.802  0.00  0.00    +0.000 A 
ATOM      5  C   UNL     1      29.808  23.450  23.552  0.00  0.00    +0.000 A 
ATOM      6  C   UNL     1      28.649  23.916  22.969  0.00  0.00    +0.000 A 
ATOM      7  C   UNL     1      27.483  23.748  23.688  0.00  0.00    +0.000 A 
BRANCH   6   8
ATOM      8  N   UNL     1      28.674  24.541  21.681  0.00  0.00    +0.000 N 
ATOM      9  O   UNL     1      27.722  25.236  21.332  0.00  0.00    +0.000 OA
ATOM     10  O   UNL     1      29.734  24.385  20.823  0.00  0.00    +0.000 OA
ENDBRANCH   6   8
ENDBRANCH   1   2
BRANCH   1  11
ATOM     11  C   UNL     1      25.825  23.936  26.617  0.00  0.00    +0.000 C 
ATOM     12  S   UNL     1      25.262  25.418  26.238  0.00  0.00    +0.000 S 
BRANCH  11  15
ATOM     13  C   UNL     1      27.060  23.879  28.781  0.00  0.00    +0.000 C 
ATOM     14  O   UNL     1      28.026  24.526  28.313  0.00  0.00    +0.000 OA
ATOM     15  N   UNL     1      25.957  23.569  27.977  0.00  0.00    +0.000 NA
BRANCH  13  17
ATOM     16  C   UNL     1      26.430  22.092  30.346  0.00  0.00    +0.000 C 
ATOM     17  C   UNL     1      27.111  23.453  30.195  0.00  0.00    +0.000 C 
ATOM     18  C   UNL     1      28.570  23.296  30.587  0.00  0.00    +0.000 C 
ATOM     19  C   UNL     1      26.494  24.456  31.124  0.00  0.00    +0.000 C 
ENDBRANCH  13  17
ENDBRANCH  11  15
ENDBRANCH   1  11
TORSDOF 5
ENDMDL
MODEL 2
REMARK VINA RESULT:      -5.5      2.526      3.143
REMARK  Name = 
REMARK  5 active torsions:
REMARK  status: ('A' for Active; 'I' for Inactive)
REMARK    1  A    between atoms: C_2  and  C_5
REMARK    2  A    between atoms: N_7  and  C_8
REMARK    3  A    between atoms: C_8  and  N_10
REMARK    4  A    between atoms: N_10  and  C_11
REMARK    5  A    between atoms: C_15  and  N_16
REMARK                            x       y       z     vdW  Elec       q    Type
REMARK                         _______ _______ _______ _____ _____    ______ ____
ROOT
ATOM      1  N   UNL     1      28.027  22.141  28.184  0.00  0.00    +0.000 NA
ENDROOT
BRANCH   1   2
ATOM      2  C   UNL     1      28.590  22.373  26.882  0.00  0.00    +0.000 A 
ATOM      3  C   UNL     1      29.941  22.182  26.685  0.00  0.00    +0.000 A 
ATOM      4  C   UNL     1      30.433  22.418  25.419  0.00  0.00    +0.000 A 
ATOM      5  C   UNL     1      29.619  22.833  24.372  0.00  0.00    +0.000 A 
ATOM      6  C   UNL     1      28.269  23.021  24.578  0.00  0.00    +0.000 A 
ATOM      7  C   UNL     1      27.797  22.779  25.852  0.00  0.00    +0.000 A 
BRANCH   6   8
ATOM      8  N   UNL     1      27.415  23.448  23.510  0.00  0.00    +0.000 N 
ATOM      9  O   UNL     1      26.403  24.095  23.772  0.00  0.00    +0.000 OA
ATOM     10  O   UNL     1      27.695  23.152  22.199  0.00  0.00    +0.000 OA
ENDBRANCH   6   8
ENDBRANCH   1   2
BRANCH   1  11
ATOM     11  C   UNL     1      28.242  23.072  29.226  0.00  0.00    +0.000 C 
ATOM     12  S   UNL     1      29.335  22.775  30.398  0.00  0.00    +0.000 S 
BRANCH  11  15
ATOM     13  C   UNL     1      26.299  24.456  29.947  0.00  0.00    +0.000 C 
ATOM     14  O   UNL     1      25.800  23.515  30.607  0.00  0.00    +0.000 OA
ATOM     15  N   UNL     1      27.501  24.278  29.254  0.00  0.00    +0.000 NA
BRANCH  13  17
ATOM     16  C   UNL     1      26.604  26.882  29.711  0.00  0.00    +0.000 C 
ATOM     17  C   UNL     1      25.594  25.754  29.920  0.00  0.00    +0.000 C 
ATOM     18  C   UNL     1      24.643  25.748  28.735  0.00  0.00    +0.000 C 
ATOM     19  C   UNL     1      24.781  25.997  31.157  0.00  0.00    +0.000 C 
ENDBRANCH  13  17
ENDBRANCH  11  15
ENDBRANCH   1  11
TORSDOF 5
ENDMDL
MODEL 3
REMARK VINA RESULT:      -5.4     29.494     30.479
REMARK  Name = 
REMARK  5 active torsions:
REMARK  status: ('A' for Active; 'I' for Inactive)
REMARK    1  A    between atoms: C_2  and  C_5
REMARK    2  A    between atoms: N_7  and  C_8
REMARK    3  A    between atoms: C_8  and  N_10
REMARK    4  A    between atoms: N_10  and  C_11
REMARK    5  A    between atoms: C_15  and  N_16
REMARK                            x       y       z     vdW  Elec       q    Type
REMARK                         _______ _______ _______ _____ _____    ______ ____
ROOT
ATOM      1  N   UNL     1      34.672  -5.315  32.013  0.00  0.00    +0.000 NA
ENDROOT
BRANCH   1   2
ATOM      2  C   UNL     1      34.512  -5.972  30.745  0.00  0.00    +0.000 A 
ATOM      3  C   UNL     1      33.883  -5.308  29.713  0.00  0.00    +0.000 A 
ATOM      4  C   UNL     1      33.754  -5.981  28.516  0.00  0.00    +0.000 A 
ATOM      5  C   UNL     1      34.229  -7.274  28.338  0.00  0.00    +0.000 A 
ATOM      6  C   UNL     1      34.857  -7.930  29.374  0.00  0.00    +0.000 A 
ATOM      7  C   UNL     1      34.976  -7.239  30.563  0.00  0.00    +0.000 A 
BRANCH   6   8
ATOM      8  N   UNL     1      35.353  -9.263  29.207  0.00  0.00    +0.000 N 
ATOM      9  O   UNL     1      34.688 -10.077  28.571  0.00  0.00    +0.000 OA
ATOM     10  O   UNL     1      36.555  -9.658  29.741  0.00  0.00    +0.000 OA
ENDBRANCH   6   8
ENDBRANCH   1   2
BRANCH   1  11
ATOM     11  C   UNL     1      33.544  -4.798  32.690  0.00  0.00    +0.000 C 
ATOM     12  S   UNL     1      32.312  -5.773  33.123  0.00  0.00    +0.000 S 
BRANCH  11  15
ATOM     13  C   UNL     1      33.887  -2.855  34.213  0.00  0.00    +0.000 C 
ATOM     14  O   UNL     1      34.346  -3.579  35.127  0.00  0.00    +0.000 OA
ATOM     15  N   UNL     1      33.481  -3.418  32.998  0.00  0.00    +0.000 NA
BRANCH  13  17
ATOM     16  C   UNL     1      34.070  -0.651  33.143  0.00  0.00    +0.000 C 
ATOM     17  C   UNL     1      33.785  -1.399  34.446  0.00  0.00    +0.000 C 
ATOM     18  C   UNL     1      32.358  -1.089  34.865  0.00  0.00    +0.000 C 
ATOM     19  C   UNL     1      34.696  -0.922  35.537  0.00  0.00    +0.000 C 
ENDBRANCH  13  17
ENDBRANCH  11  15
ENDBRANCH   1  11
TORSDOF 5
ENDMDL
MODEL 4
REMARK VINA RESULT:      -5.4     31.833     33.057
REMARK  Name = 
REMARK  5 active torsions:
REMARK  status: ('A' for Active; 'I' for Inactive)
REMARK    1  A    between atoms: C_2  and  C_5
REMARK    2  A    between atoms: N_7  and  C_8
REMARK    3  A    between atoms: C_8  and  N_10
REMARK    4  A    between atoms: N_10  and  C_11
REMARK    5  A    between atoms: C_15  and  N_16
REMARK                            x       y       z     vdW  Elec       q    Type
REMARK                         _______ _______ _______ _____ _____    ______ ____
ROOT
ATOM      1  N   UNL     1      20.551 -10.214  25.607  0.00  0.00    +0.000 NA
ENDROOT
BRANCH   1   2
ATOM      2  C   UNL     1      19.717  -9.294  26.329  0.00  0.00    +0.000 A 
ATOM      3  C   UNL     1      18.942  -9.758  27.370  0.00  0.00    +0.000 A 
ATOM      4  C   UNL     1      18.158  -8.837  28.032  0.00  0.00    +0.000 A 
ATOM      5  C   UNL     1      18.135  -7.493  27.680  0.00  0.00    +0.000 A 
ATOM      6  C   UNL     1      18.914  -7.038  26.638  0.00  0.00    +0.000 A 
ATOM      7  C   UNL     1      19.691  -7.976  25.989  0.00  0.00    +0.000 A 
BRANCH   6   8
ATOM      8  N   UNL     1      18.903  -5.656  26.261  0.00  0.00    +0.000 N 
ATOM      9  O   UNL     1      19.775  -5.232  25.506  0.00  0.00    +0.000 OA
ATOM     10  O   UNL     1      17.944  -4.789  26.723  0.00  0.00    +0.000 OA
ENDBRANCH   6   8
ENDBRANCH   1   2
BRANCH   1  11
ATOM     11  C   UNL     1      21.958 -10.144  25.731  0.00  0.00    +0.000 C 
ATOM     12  S   UNL     1      22.697 -10.587  27.114  0.00  0.00    +0.000 S 
BRANCH  11  15
ATOM     13  C   UNL     1      23.145  -8.357  24.463  0.00  0.00    +0.000 C 
ATOM     14  O   UNL     1      22.827  -7.475  25.294  0.00  0.00    +0.000 OA
ATOM     15  N   UNL     1      22.736  -9.683  24.643  0.00  0.00    +0.000 NA
BRANCH  13  17
ATOM     16  C   UNL     1      23.040  -7.504  22.161  0.00  0.00    +0.000 C 
ATOM     17  C   UNL     1      23.958  -7.966  23.293  0.00  0.00    +0.000 C 
ATOM     18  C   UNL     1      24.833  -6.792  23.698  0.00  0.00    +0.000 C 
ATOM     19  C   UNL     1      24.861  -9.068  22.822  0.00  0.00    +0.000 C 
ENDBRANCH  13  17
ENDBRANCH  11  15
ENDBRANCH   1  11
TORSDOF 5
ENDMDL
MODEL 5
REMARK VINA RESULT:      -5.3      2.454      3.520
REMARK  Name = 
REMARK  5 active torsions:
REMARK  status: ('A' for Active; 'I' for Inactive)
REMARK    1  A    between atoms: C_2  and  C_5
REMARK    2  A    between atoms: N_7  and  C_8
REMARK    3  A    between atoms: C_8  and  N_10
REMARK    4  A    between atoms: N_10  and  C_11
REMARK    5  A    between atoms: C_15  and  N_16
REMARK                            x       y       z     vdW  Elec       q    Type
REMARK                         _______ _______ _______ _____ _____    ______ ____
ROOT
ATOM      1  N   UNL     1      26.697  25.146  25.830  0.00  0.00    +0.000 NA
ENDROOT
BRANCH   1   2
ATOM      2  C   UNL     1      26.698  24.662  24.477  0.00  0.00    +0.000 A 
ATOM      3  C   UNL     1      25.768  23.718  24.095  0.00  0.00    +0.000 A 
ATOM      4  C   UNL     1      25.810  23.285  22.786  0.00  0.00    +0.000 A 
ATOM      5  C   UNL     1      26.742  23.766  21.876  0.00  0.00    +0.000 A 
ATOM      6  C   UNL     1      27.668  24.710  22.266  0.00  0.00    +0.000 A 
ATOM      7  C   UNL     1      27.609  25.129  23.579  0.00  0.00    +0.000 A 
BRANCH   6   8
ATOM      8  N   UNL     1      28.636  25.216  21.340  0.00  0.00    +0.000 N 
ATOM      9  O   UNL     1      28.544  26.378  20.950  0.00  0.00    +0.000 OA
ATOM     10  O   UNL     1      29.666  24.437  20.874  0.00  0.00    +0.000 OA
ENDBRANCH   6   8
ENDBRANCH   1   2
BRANCH   1  11
ATOM     11  C   UNL     1      27.163  24.320  26.878  0.00  0.00    +0.000 C 
ATOM     12  S   UNL     1      26.375  24.258  28.304  0.00  0.00    +0.000 S 
BRANCH  11  15
ATOM     13  C   UNL     1      29.623  24.051  26.583  0.00  0.00    +0.000 C 
ATOM     14  O   UNL     1      29.824  25.287  26.652  0.00  0.00    +0.000 OA
ATOM     15  N   UNL     1      28.326  23.536  26.691  0.00  0.00    +0.000 NA
BRANCH  13  17
ATOM     16  C   UNL     1      30.774  22.612  24.959  0.00  0.00    +0.000 C 
ATOM     17  C   UNL     1      30.781  23.155  26.389  0.00  0.00    +0.000 C 
ATOM     18  C   UNL     1      32.047  23.974  26.575  0.00  0.00    +0.000 C 
ATOM     19  C   UNL     1      30.815  22.029  27.379  0.00  0.00    +0.000 C 
ENDBRANCH  13  17
ENDBRANCH  11  15
ENDBRANCH   1  11
TORSDOF 5
ENDMDL
MODEL 6
REMARK VINA RESULT:      -5.3      1.727      2.419
REMARK  Name = 
REMARK  5 active torsions:
REMARK  status: ('A' for Active; 'I' for Inactive)
REMARK    1  A    between atoms: C_2  and  C_5
REMARK    2  A    between atoms: N_7  and  C_8
REMARK    3  A    between atoms: C_8  and  N_10
REMARK    4  A    between atoms: N_10  and  C_11
REMARK    5  A    between atoms: C_15  and  N_16
REMARK                            x       y       z     vdW  Elec       q    Type
REMARK                         _______ _______ _______ _____ _____    ______ ____
ROOT
ATOM      1  N   UNL     1      25.650  23.280  25.613  0.00  0.00    +0.000 NA
ENDROOT
BRANCH   1   2
ATOM      2  C   UNL     1      26.710  23.359  24.645  0.00  0.00    +0.000 A 
ATOM      3  C   UNL     1      26.410  23.673  23.337  0.00  0.00    +0.000 A 
ATOM      4  C   UNL     1      27.461  23.736  22.447  0.00  0.00    +0.000 A 
ATOM      5  C   UNL     1      28.774  23.496  22.831  0.00  0.00    +0.000 A 
ATOM      6  C   UNL     1      29.065  23.183  24.142  0.00  0.00    +0.000 A 
ATOM      7  C   UNL     1      27.999  23.125  25.016  0.00  0.00    +0.000 A 
BRANCH   6   8
ATOM      8  N   UNL     1      30.413  22.933  24.556  0.00  0.00    +0.000 N 
ATOM      9  O   UNL     1      30.621  22.160  25.488  0.00  0.00    +0.000 OA
ATOM     10  O   UNL     1      31.481  23.535  23.939  0.00  0.00    +0.000 OA
ENDBRANCH   6   8
ENDBRANCH   1   2
BRANCH   1  11
ATOM     11  C   UNL     1      25.605  24.193  26.691  0.00  0.00    +0.000 C 
ATOM     12  S   UNL     1      25.270  25.768  26.438  0.00  0.00    +0.000 S 
BRANCH  11  15
ATOM     13  C   UNL     1      27.064  23.898  28.690  0.00  0.00    +0.000 C 
ATOM     14  O   UNL     1      28.029  24.481  28.143  0.00  0.00    +0.000 OA
ATOM     15  N   UNL     1      25.853  23.737  28.008  0.00  0.00    +0.000 NA
BRANCH  13  17
ATOM     16  C   UNL     1      26.659  24.398  31.061  0.00  0.00    +0.000 C 
ATOM     17  C   UNL     1      27.233  23.388  30.066  0.00  0.00    +0.000 C 
ATOM     18  C   UNL     1      26.438  22.100  30.192  0.00  0.00    +0.000 C 
ATOM     19  C   UNL     1      28.662  23.077  30.397  0.00  0.00    +0.000 C 
ENDBRANCH  13  17
ENDBRANCH  11  15
ENDBRANCH   1  11
TORSDOF 5
ENDMDL
MODEL 7
REMARK VINA RESULT:      -5.3      2.565      3.280
REMARK  Name = 
REMARK  5 active torsions:
REMARK  status: ('A' for Active; 'I' for Inactive)
REMARK    1  A    between atoms: C_2  and  C_5
REMARK    2  A    between atoms: N_7  and  C_8
REMARK    3  A    between atoms: C_8  and  N_10
REMARK    4  A    between atoms: N_10  and  C_11
REMARK    5  A    between atoms: C_15  and  N_16
REMARK                            x       y       z     vdW  Elec       q    Type
REMARK                         _______ _______ _______ _____ _____    ______ ____
ROOT
ATOM      1  N   UNL     1      30.168  21.933  26.998  0.00  0.00    +0.000 NA
ENDROOT
BRANCH   1   2
ATOM      2  C   UNL     1      29.749  22.549  25.769  0.00  0.00    +0.000 A 
ATOM      3  C   UNL     1      30.699  23.062  24.911  0.00  0.00    +0.000 A 
ATOM      4  C   UNL     1      30.247  23.643  23.745  0.00  0.00    +0.000 A 
ATOM      5  C   UNL     1      28.896  23.720  23.430  0.00  0.00    +0.000 A 
ATOM      6  C   UNL     1      27.954  23.204  24.293  0.00  0.00    +0.000 A 
ATOM      7  C   UNL     1      28.427  22.627  25.454  0.00  0.00    +0.000 A 
BRANCH   6   8
ATOM      8  N   UNL     1      26.557  23.274  23.984  0.00  0.00    +0.000 N 
ATOM      9  O   UNL     1      26.180  23.012  22.844  0.00  0.00    +0.000 OA
ATOM     10  O   UNL     1      25.625  23.627  24.928  0.00  0.00    +0.000 OA
ENDBRANCH   6   8
ENDBRANCH   1   2
BRANCH   1  11
ATOM     11  C   UNL     1      30.177  22.680  28.198  0.00  0.00    +0.000 C 
ATOM     12  S   UNL     1      31.506  23.504  28.659  0.00  0.00    +0.000 S 
BRANCH  11  15
ATOM     13  C   UNL     1      28.064  23.736  28.993  0.00  0.00    +0.000 C 
ATOM     14  O   UNL     1      28.194  24.713  28.219  0.00  0.00    +0.000 OA
ATOM     15  N   UNL     1      29.020  22.714  29.012  0.00  0.00    +0.000 NA
BRANCH  13  17
ATOM     16  C   UNL     1      27.163  24.496  31.149  0.00  0.00    +0.000 C 
ATOM     17  C   UNL     1      26.884  23.687  29.881  0.00  0.00    +0.000 C 
ATOM     18  C   UNL     1      25.720  24.338  29.153  0.00  0.00    +0.000 C 
ATOM     19  C   UNL     1      26.479  22.286  30.229  0.00  0.00    +0.000 C 
ENDBRANCH  13  17
ENDBRANCH  11  15
ENDBRANCH   1  11
TORSDOF 5
ENDMDL
MODEL 8
REMARK VINA RESULT:      -5.2     32.667     33.817
REMARK  Name = 
REMARK  5 active torsions:
REMARK  status: ('A' for Active; 'I' for Inactive)
REMARK    1  A    between atoms: C_2  and  C_5
REMARK    2  A    between atoms: N_7  and  C_8
REMARK    3  A    between atoms: C_8  and  N_10
REMARK    4  A    between atoms: N_10  and  C_11
REMARK    5  A    between atoms: C_15  and  N_16
REMARK                            x       y       z     vdW  Elec       q    Type
REMARK                         _______ _______ _______ _____ _____    ______ ____
ROOT
ATOM      1  N   UNL     1      17.600  -8.496  27.958  0.00  0.00    +0.000 NA
ENDROOT
BRANCH   1   2
ATOM      2  C   UNL     1      18.348  -7.499  27.242  0.00  0.00    +0.000 A 
ATOM      3  C   UNL     1      17.924  -6.188  27.268  0.00  0.00    +0.000 A 
ATOM      4  C   UNL     1      18.674  -5.269  26.565  0.00  0.00    +0.000 A 
ATOM      5  C   UNL     1      19.811  -5.629  25.853  0.00  0.00    +0.000 A 
ATOM      6  C   UNL     1      20.228  -6.943  25.833  0.00  0.00    +0.000 A 
ATOM      7  C   UNL     1      19.464  -7.846  26.543  0.00  0.00    +0.000 A 
BRANCH   6   8
ATOM      8  N   UNL     1      21.399  -7.332  25.105  0.00  0.00    +0.000 N 
ATOM      9  O   UNL     1      21.306  -8.195  24.236  0.00  0.00    +0.000 OA
ATOM     10  O   UNL     1      22.625  -6.766  25.353  0.00  0.00    +0.000 OA
ENDBRANCH   6   8
ENDBRANCH   1   2
BRANCH   1  11
ATOM     11  C   UNL     1      17.164  -9.667  27.297  0.00  0.00    +0.000 C 
ATOM     12  S   UNL     1      18.051 -11.033  27.347  0.00  0.00    +0.000 S 
BRANCH  11  15
ATOM     13  C   UNL     1      15.822  -9.359  25.219  0.00  0.00    +0.000 C 
ATOM     14  O   UNL     1      16.836  -9.079  24.537  0.00  0.00    +0.000 OA
ATOM     15  N   UNL     1      15.943  -9.655  26.582  0.00  0.00    +0.000 NA
BRANCH  13  17
ATOM     16  C   UNL     1      13.485  -8.631  25.422  0.00  0.00    +0.000 C 
ATOM     17  C   UNL     1      14.503  -9.372  24.555  0.00  0.00    +0.000 C 
ATOM     18  C   UNL     1      14.632  -8.625  23.238  0.00  0.00    +0.000 C 
ATOM     19  C   UNL     1      14.022 -10.759  24.248  0.00  0.00    +0.000 C 
ENDBRANCH  13  17
ENDBRANCH  11  15
ENDBRANCH   1  11
TORSDOF 5
ENDMDL
MODEL 9
REMARK VINA RESULT:      -5.2      1.881      2.535
REMARK  Name = 
REMARK  5 active torsions:
REMARK  status: ('A' for Active; 'I' for Inactive)
REMARK    1  A    between atoms: C_2  and  C_5
REMARK    2  A    between atoms: N_7  and  C_8
REMARK    3  A    between atoms: C_8  and  N_10
REMARK    4  A    between atoms: N_10  and  C_11
REMARK    5  A    between atoms: C_15  and  N_16
REMARK                            x       y       z     vdW  Elec       q    Type
REMARK                         _______ _______ _______ _____ _____    ______ ____
ROOT
ATOM      1  N   UNL     1      29.134  22.372  26.228  0.00  0.00    +0.000 NA
ENDROOT
BRANCH   1   2
ATOM      2  C   UNL     1      28.224  22.830  25.213  0.00  0.00    +0.000 A 
ATOM      3  C   UNL     1      26.867  22.682  25.405  0.00  0.00    +0.000 A 
ATOM      4  C   UNL     1      26.036  23.136  24.404  0.00  0.00    +0.000 A 
ATOM      5  C   UNL     1      26.524  23.720  23.242  0.00  0.00    +0.000 A 
ATOM      6  C   UNL     1      27.883  23.865  23.059  0.00  0.00    +0.000 A 
ATOM      7  C   UNL     1      28.697  23.404  24.073  0.00  0.00    +0.000 A 
BRANCH   6   8
ATOM      8  N   UNL     1      28.404  24.465  21.867  0.00  0.00    +0.000 N 
ATOM      9  O   UNL     1      29.427  24.008  21.362  0.00  0.00    +0.000 OA
ATOM     10  O   UNL     1      27.792  25.541  21.274  0.00  0.00    +0.000 OA
ENDBRANCH   6   8
ENDBRANCH   1   2
BRANCH   1  11
ATOM     11  C   UNL     1      29.465  23.213  27.315  0.00  0.00    +0.000 C 
ATOM     12  S   UNL     1      30.761  24.198  27.244  0.00  0.00    +0.000 S 
BRANCH  11  15
ATOM     13  C   UNL     1      27.646  24.122  28.756  0.00  0.00    +0.000 C 
ATOM     14  O   UNL     1      27.386  25.042  27.946  0.00  0.00    +0.000 OA
ATOM     15  N   UNL     1      28.663  23.200  28.481  0.00  0.00    +0.000 NA
BRANCH  13  17
ATOM     16  C   UNL     1      25.587  24.869  29.867  0.00  0.00    +0.000 C 
ATOM     17  C   UNL     1      26.858  24.031  30.003  0.00  0.00    +0.000 C 
ATOM     18  C   UNL     1      26.448  22.581  30.196  0.00  0.00    +0.000 C 
ATOM     19  C   UNL     1      27.639  24.450  31.213  0.00  0.00    +0.000 C 
ENDBRANCH  13  17
ENDBRANCH  11  15
ENDBRANCH   1  11
TORSDOF 5
ENDMDL
MODEL 10
REMARK VINA RESULT:      -5.2     32.681     33.813
REMARK  Name = 
REMARK  5 active torsions:
REMARK  status: ('A' for Active; 'I' for Inactive)
REMARK    1  A    between atoms: C_2  and  C_5
REMARK    2  A    between atoms: N_7  and  C_8
REMARK    3  A    between atoms: C_8  and  N_10
REMARK    4  A    between atoms: N_10  and  C_11
REMARK    5  A    between atoms: C_15  and  N_16
REMARK                            x       y       z     vdW  Elec       q    Type
REMARK                         _______ _______ _______ _____ _____    ______ ____
ROOT
ATOM      1  N   UNL     1      19.589 -10.137  25.077  0.00  0.00    +0.000 NA
ENDROOT
BRANCH   1   2
ATOM      2  C   UNL     1      19.899  -8.748  25.281  0.00  0.00    +0.000 A 
ATOM      3  C   UNL     1      21.147  -8.276  24.934  0.00  0.00    +0.000 A 
ATOM      4  C   UNL     1      21.396  -6.937  25.149  0.00  0.00    +0.000 A 
ATOM      5  C   UNL     1      20.444  -6.084  25.692  0.00  0.00    +0.000 A 
ATOM      6  C   UNL     1      19.199  -6.564  26.035  0.00  0.00    +0.000 A 
ATOM      7  C   UNL     1      18.970  -7.907  25.812  0.00  0.00    +0.000 A 
BRANCH   6   8
ATOM      8  N   UNL     1      18.205  -5.698  26.596  0.00  0.00    +0.000 N 
ATOM      9  O   UNL     1      18.356  -4.481  26.518  0.00  0.00    +0.000 OA
ATOM     10  O   UNL     1      17.087  -6.192  27.221  0.00  0.00    +0.000 OA
ENDBRANCH   6   8
ENDBRANCH   1   2
BRANCH   1  11
ATOM     11  C   UNL     1      19.888 -11.085  26.082  0.00  0.00    +0.000 C 
ATOM     12  S   UNL     1      21.021 -12.231  25.838  0.00  0.00    +0.000 S 
BRANCH  11  15
ATOM     13  C   UNL     1      19.688 -10.446  28.482  0.00  0.00    +0.000 C 
ATOM     14  O   UNL     1      20.815  -9.899  28.490  0.00  0.00    +0.000 OA
ATOM     15  N   UNL     1      19.196 -11.041  27.315  0.00  0.00    +0.000 NA
BRANCH  13  17
ATOM     16  C   UNL     1      17.530  -9.808  29.467  0.00  0.00    +0.000 C 
ATOM     17  C   UNL     1      18.893 -10.449  29.728  0.00  0.00    +0.000 C 
ATOM     18  C   UNL     1      18.664 -11.893  30.138  0.00  0.00    +0.000 C 
ATOM     19  C   UNL     1      19.591  -9.757  30.861  0.00  0.00    +0.000 C 
ENDBRANCH  13  17
ENDBRANCH  11  15
ENDBRANCH   1  11
TORSDOF 5
ENDMDL
