MODEL 1
REMARK VINA RESULT:      -5.6      0.000      0.000
REMARK  Name = 
REMARK  5 active torsions:
REMARK  status: ('A' for Active; 'I' for Inactive)
REMARK    1  A    between atoms: C_2  and  N_5
REMARK    2  A    between atoms: N_5  and  C_6
REMARK    3  A    between atoms: C_6  and  N_8
REMARK    4  A    between atoms: C_9  and  C_11
REMARK    5  A    between atoms: C_15  and  N_16
REMARK                            x       y       z     vdW  Elec       q    Type
REMARK                         _______ _______ _______ _____ _____    ______ ____
ROOT
ATOM      1  N   UNL     1      18.141   9.545  37.337  0.00  0.00    +0.000 NA
ATOM      2  C   UNL     1      17.550  10.720  36.861  0.00  0.00    +0.000 C 
ATOM      3  O   UNL     1      17.462  11.714  37.623  0.00  0.00    +0.000 OA
ENDROOT
BRANCH   2   4
ATOM      4  C   UNL     1      17.022  10.838  35.482  0.00  0.00    +0.000 A 
ATOM      5  C   UNL     1      17.441  10.016  34.454  0.00  0.00    +0.000 A 
ATOM      6  C   UNL     1      16.908  10.172  33.182  0.00  0.00    +0.000 A 
ATOM      7  C   UNL     1      15.967  11.127  32.907  0.00  0.00    +0.000 A 
ATOM      8  C   UNL     1      15.534  11.964  33.938  0.00  0.00    +0.000 A 
ATOM      9  C   UNL     1      16.082  11.789  35.199  0.00  0.00    +0.000 A 
BRANCH   8  10
ATOM     10  N   UNL     1      14.557  12.961  33.710  0.00  0.00    +0.000 N 
ATOM     11  O   UNL     1      14.045  13.550  34.662  0.00  0.00    +0.000 OA
ATOM     12  O   UNL     1      14.179  13.265  32.445  0.00  0.00    +0.000 OA
ENDBRANCH   8  10
ENDBRANCH   2   4
BRANCH   1  13
ATOM     13  C   UNL     1      18.668   9.401  38.670  0.00  0.00    +0.000 C 
ATOM     14  S   UNL     1      20.332   9.581  38.803  0.00  0.00    +0.000 S 
BRANCH  13  15
ATOM     15  N   UNL     1      17.917   9.173  39.714  0.00  0.00    +0.000 NA
BRANCH  15  17
ATOM     16  C   UNL     1      17.677   9.451  42.131  0.00  0.00    +0.000 C 
ATOM     17  C   UNL     1      17.157   8.942  40.772  0.00  0.00    +0.000 C 
ATOM     18  C   UNL     1      15.748   9.542  40.595  0.00  0.00    +0.000 C 
ATOM     19  C   UNL     1      16.872   7.439  40.991  0.00  0.00    +0.000 C 
ENDBRANCH  15  17
ENDBRANCH  13  15
ENDBRANCH   1  13
TORSDOF 5
ENDMDL
MODEL 2
REMARK VINA RESULT:      -5.4     18.701     20.020
REMARK  Name = 
REMARK  5 active torsions:
REMARK  status: ('A' for Active; 'I' for Inactive)
REMARK    1  A    between atoms: C_2  and  N_5
REMARK    2  A    between atoms: N_5  and  C_6
REMARK    3  A    between atoms: C_6  and  N_8
REMARK    4  A    between atoms: C_9  and  C_11
REMARK    5  A    between atoms: C_15  and  N_16
REMARK                            x       y       z     vdW  Elec       q    Type
REMARK                         _______ _______ _______ _____ _____    ______ ____
ROOT
ATOM      1  N   UNL     1      27.309  22.915  28.208  0.00  0.00    +0.000 NA
ATOM      2  C   UNL     1      27.952  22.402  27.077  0.00  0.00    +0.000 C 
ATOM      3  O   UNL     1      28.867  21.553  27.226  0.00  0.00    +0.000 OA
ENDROOT
BRANCH   2   4
ATOM      4  C   UNL     1      27.595  22.821  25.702  0.00  0.00    +0.000 A 
ATOM      5  C   UNL     1      26.287  22.879  25.261  0.00  0.00    +0.000 A 
ATOM      6  C   UNL     1      26.012  23.282  23.962  0.00  0.00    +0.000 A 
ATOM      7  C   UNL     1      27.008  23.629  23.089  0.00  0.00    +0.000 A 
ATOM      8  C   UNL     1      28.335  23.574  23.522  0.00  0.00    +0.000 A 
ATOM      9  C   UNL     1      28.583  23.168  24.825  0.00  0.00    +0.000 A 
BRANCH   8  10
ATOM     10  N   UNL     1      29.400  23.930  22.664  0.00  0.00    +0.000 N 
ATOM     11  O   UNL     1      30.510  24.188  23.134  0.00  0.00    +0.000 OA
ATOM     12  O   UNL     1      29.202  23.995  21.326  0.00  0.00    +0.000 OA
ENDBRANCH   8  10
ENDBRANCH   2   4
BRANCH   1  13
ATOM     13  C   UNL     1      27.630  22.525  29.556  0.00  0.00    +0.000 C 
ATOM     14  S   UNL     1      26.411  21.710  30.373  0.00  0.00    +0.000 S 
BRANCH  13  15
ATOM     15  N   UNL     1      28.790  22.756  30.110  0.00  0.00    +0.000 NA
BRANCH  15  17
ATOM     16  C   UNL     1      30.243  24.434  31.135  0.00  0.00    +0.000 C 
ATOM     17  C   UNL     1      29.966  22.991  30.670  0.00  0.00    +0.000 C 
ATOM     18  C   UNL     1      30.195  22.087  31.898  0.00  0.00    +0.000 C 
ATOM     19  C   UNL     1      31.153  22.635  29.747  0.00  0.00    +0.000 C 
ENDBRANCH  15  17
ENDBRANCH  13  15
ENDBRANCH   1  13
TORSDOF 5
ENDMDL
MODEL 3
REMARK VINA RESULT:      -5.3     20.874     22.295
REMARK  Name = 
REMARK  5 active torsions:
REMARK  status: ('A' for Active; 'I' for Inactive)
REMARK    1  A    between atoms: C_2  and  N_5
REMARK    2  A    between atoms: N_5  and  C_6
REMARK    3  A    between atoms: C_6  and  N_8
REMARK    4  A    between atoms: C_9  and  C_11
REMARK    5  A    between atoms: C_15  and  N_16
REMARK                            x       y       z     vdW  Elec       q    Type
REMARK                         _______ _______ _______ _____ _____    ______ ____
ROOT
ATOM      1  N   UNL     1      31.327  24.751  25.057  0.00  0.00    +0.000 NA
ATOM      2  C   UNL     1      30.768  23.789  24.210  0.00  0.00    +0.000 C 
ATOM      3  O   UNL     1      31.288  22.647  24.153  0.00  0.00    +0.000 OA
ENDROOT
BRANCH   2   4
ATOM      4  C   UNL     1      29.578  24.066  23.372  0.00  0.00    +0.000 A 
ATOM      5  C   UNL     1      29.630  24.875  22.254  0.00  0.00    +0.000 A 
ATOM      6  C   UNL     1      28.483  25.097  21.506  0.00  0.00    +0.000 A 
ATOM      7  C   UNL     1      27.282  24.532  21.843  0.00  0.00    +0.000 A 
ATOM      8  C   UNL     1      27.216  23.712  22.972  0.00  0.00    +0.000 A 
ATOM      9  C   UNL     1      28.376  23.506  23.703  0.00  0.00    +0.000 A 
BRANCH   8  10
ATOM     10  N   UNL     1      26.003  23.097  23.359  0.00  0.00    +0.000 N 
ATOM     11  O   UNL     1      25.741  22.949  24.554  0.00  0.00    +0.000 OA
ATOM     12  O   UNL     1      25.130  22.664  22.419  0.00  0.00    +0.000 OA
ENDBRANCH   8  10
ENDBRANCH   2   4
BRANCH   1  13
ATOM     13  C   UNL     1      32.480  24.511  25.887  0.00  0.00    +0.000 C 
ATOM     14  S   UNL     1      33.945  25.001  25.231  0.00  0.00    +0.000 S 
BRANCH  13  15
ATOM     15  N   UNL     1      32.405  23.977  27.076  0.00  0.00    +0.000 NA
BRANCH  15  17
ATOM     16  C   UNL     1      33.661  23.096  28.980  0.00  0.00    +0.000 C 
ATOM     17  C   UNL     1      32.329  23.435  28.281  0.00  0.00    +0.000 C 
ATOM     18  C   UNL     1      31.546  24.337  29.256  0.00  0.00    +0.000 C 
ATOM     19  C   UNL     1      31.523  22.117  28.298  0.00  0.00    +0.000 C 
ENDBRANCH  15  17
ENDBRANCH  13  15
ENDBRANCH   1  13
TORSDOF 5
ENDMDL
MODEL 4
REMARK VINA RESULT:      -5.3      3.014      4.359
REMARK  Name = 
REMARK  5 active torsions:
REMARK  status: ('A' for Active; 'I' for Inactive)
REMARK    1  A    between atoms: C_2  and  N_5
REMARK    2  A    between atoms: N_5  and  C_6
REMARK    3  A    between atoms: C_6  and  N_8
REMARK    4  A    between atoms: C_9  and  C_11
REMARK    5  A    between atoms: C_15  and  N_16
REMARK                            x       y       z     vdW  Elec       q    Type
REMARK                         _______ _______ _______ _____ _____    ______ ____
ROOT
ATOM      1  N   UNL     1      18.324   9.732  38.046  0.00  0.00    +0.000 NA
ATOM      2  C   UNL     1      17.969  11.067  37.828  0.00  0.00    +0.000 C 
ATOM      3  O   UNL     1      18.759  11.976  38.183  0.00  0.00    +0.000 OA
ENDROOT
BRANCH   2   4
ATOM      4  C   UNL     1      16.689  11.452  37.191  0.00  0.00    +0.000 A 
ATOM      5  C   UNL     1      16.634  12.155  36.002  0.00  0.00    +0.000 A 
ATOM      6  C   UNL     1      15.404  12.486  35.451  0.00  0.00    +0.000 A 
ATOM      7  C   UNL     1      14.226  12.135  36.052  0.00  0.00    +0.000 A 
ATOM      8  C   UNL     1      14.268  11.425  37.255  0.00  0.00    +0.000 A 
ATOM      9  C   UNL     1      15.508  11.106  37.786  0.00  0.00    +0.000 A 
BRANCH   8  10
ATOM     10  N   UNL     1      13.080  11.031  37.913  0.00  0.00    +0.000 N 
ATOM     11  O   UNL     1      11.998  11.105  37.329  0.00  0.00    +0.000 OA
ATOM     12  O   UNL     1      13.129  10.577  39.188  0.00  0.00    +0.000 OA
ENDBRANCH   8  10
ENDBRANCH   2   4
BRANCH   1  13
ATOM     13  C   UNL     1      19.563   9.325  38.659  0.00  0.00    +0.000 C 
ATOM     14  S   UNL     1      19.401   8.332  40.003  0.00  0.00    +0.000 S 
BRANCH  13  15
ATOM     15  N   UNL     1      20.735   9.672  38.200  0.00  0.00    +0.000 NA
BRANCH  15  17
ATOM     16  C   UNL     1      22.162   9.841  36.222  0.00  0.00    +0.000 C 
ATOM     17  C   UNL     1      21.922  10.023  37.734  0.00  0.00    +0.000 C 
ATOM     18  C   UNL     1      22.236  11.500  38.048  0.00  0.00    +0.000 C 
ATOM     19  C   UNL     1      23.084   9.266  38.416  0.00  0.00    +0.000 C 
ENDBRANCH  15  17
ENDBRANCH  13  15
ENDBRANCH   1  13
TORSDOF 5
ENDMDL
MODEL 5
REMARK VINA RESULT:      -5.3     21.571     23.238
REMARK  Name = 
REMARK  5 active torsions:
REMARK  status: ('A' for Active; 'I' for Inactive)
REMARK    1  A    between atoms: C_2  and  N_5
REMARK    2  A    between atoms: N_5  and  C_6
REMARK    3  A    between atoms: C_6  and  N_8
REMARK    4  A    between atoms: C_9  and  C_11
REMARK    5  A    between atoms: C_15  and  N_16
REMARK                            x       y       z     vdW  Elec       q    Type
REMARK                         _______ _______ _______ _____ _____    ______ ____
ROOT
ATOM      1  N   UNL     1      30.928  24.654  25.479  0.00  0.00    +0.000 NA
ATOM      2  C   UNL     1      30.684  23.870  24.347  0.00  0.00    +0.000 C 
ATOM      3  O   UNL     1      31.481  22.942  24.062  0.00  0.00    +0.000 OA
ENDROOT
BRANCH   2   4
ATOM      4  C   UNL     1      29.513  24.090  23.467  0.00  0.00    +0.000 A 
ATOM      5  C   UNL     1      29.588  24.832  22.304  0.00  0.00    +0.000 A 
ATOM      6  C   UNL     1      28.457  25.002  21.518  0.00  0.00    +0.000 A 
ATOM      7  C   UNL     1      27.252  24.452  21.860  0.00  0.00    +0.000 A 
ATOM      8  C   UNL     1      27.162  23.700  23.034  0.00  0.00    +0.000 A 
ATOM      9  C   UNL     1      28.305  23.544  23.802  0.00  0.00    +0.000 A 
BRANCH   8  10
ATOM     10  N   UNL     1      25.943  23.102  23.429  0.00  0.00    +0.000 N 
ATOM     11  O   UNL     1      25.667  22.999  24.625  0.00  0.00    +0.000 OA
ATOM     12  O   UNL     1      25.080  22.637  22.494  0.00  0.00    +0.000 OA
ENDBRANCH   8  10
ENDBRANCH   2   4
BRANCH   1  13
ATOM     13  C   UNL     1      32.054  24.462  26.356  0.00  0.00    +0.000 C 
ATOM     14  S   UNL     1      31.684  23.815  27.860  0.00  0.00    +0.000 S 
BRANCH  13  15
ATOM     15  N   UNL     1      33.282  24.741  26.013  0.00  0.00    +0.000 NA
BRANCH  15  17
ATOM     16  C   UNL     1      35.627  24.724  26.703  0.00  0.00    +0.000 C 
ATOM     17  C   UNL     1      34.527  25.024  25.666  0.00  0.00    +0.000 C 
ATOM     18  C   UNL     1      34.934  24.283  24.376  0.00  0.00    +0.000 C 
ATOM     19  C   UNL     1      34.725  26.510  25.293  0.00  0.00    +0.000 C 
ENDBRANCH  15  17
ENDBRANCH  13  15
ENDBRANCH   1  13
TORSDOF 5
ENDMDL
MODEL 6
REMARK VINA RESULT:      -5.3     21.542     23.044
REMARK  Name = 
REMARK  5 active torsions:
REMARK  status: ('A' for Active; 'I' for Inactive)
REMARK    1  A    between atoms: C_2  and  N_5
REMARK    2  A    between atoms: N_5  and  C_6
REMARK    3  A    between atoms: C_6  and  N_8
REMARK    4  A    between atoms: C_9  and  C_11
REMARK    5  A    between atoms: C_15  and  N_16
REMARK                            x       y       z     vdW  Elec       q    Type
REMARK                         _______ _______ _______ _____ _____    ______ ____
ROOT
ATOM      1  N   UNL     1      21.527  -8.309  24.150  0.00  0.00    +0.000 NA
ATOM      2  C   UNL     1      21.499  -7.270  25.085  0.00  0.00    +0.000 C 
ATOM      3  O   UNL     1      22.553  -6.628  25.319  0.00  0.00    +0.000 OA
ENDROOT
BRANCH   2   4
ATOM      4  C   UNL     1      20.266  -6.893  25.815  0.00  0.00    +0.000 A 
ATOM      5  C   UNL     1      19.811  -5.591  25.880  0.00  0.00    +0.000 A 
ATOM      6  C   UNL     1      18.647  -5.298  26.577  0.00  0.00    +0.000 A 
ATOM      7  C   UNL     1      17.923  -6.271  27.211  0.00  0.00    +0.000 A 
ATOM      8  C   UNL     1      18.372  -7.592  27.153  0.00  0.00    +0.000 A 
ATOM      9  C   UNL     1      19.537  -7.859  26.451  0.00  0.00    +0.000 A 
BRANCH   8  10
ATOM     10  N   UNL     1      17.656  -8.637  27.782  0.00  0.00    +0.000 N 
ATOM     11  O   UNL     1      16.671  -9.130  27.230  0.00  0.00    +0.000 OA
ATOM     12  O   UNL     1      18.048  -9.093  28.996  0.00  0.00    +0.000 OA
ENDBRANCH   8  10
ENDBRANCH   2   4
BRANCH   1  13
ATOM     13  C   UNL     1      22.708  -8.696  23.422  0.00  0.00    +0.000 C 
ATOM     14  S   UNL     1      22.905  -7.947  21.933  0.00  0.00    +0.000 S 
BRANCH  13  15
ATOM     15  N   UNL     1      23.585  -9.546  23.883  0.00  0.00    +0.000 NA
BRANCH  15  17
ATOM     16  C   UNL     1      24.527 -11.792  23.678  0.00  0.00    +0.000 C 
ATOM     17  C   UNL     1      24.475 -10.407  24.351  0.00  0.00    +0.000 C 
ATOM     18  C   UNL     1      25.904  -9.835  24.280  0.00  0.00    +0.000 C 
ATOM     19  C   UNL     1      24.291 -10.702  25.857  0.00  0.00    +0.000 C 
ENDBRANCH  15  17
ENDBRANCH  13  15
ENDBRANCH   1  13
TORSDOF 5
ENDMDL
MODEL 7
REMARK VINA RESULT:      -5.3     21.314     22.975
REMARK  Name = 
REMARK  5 active torsions:
REMARK  status: ('A' for Active; 'I' for Inactive)
REMARK    1  A    between atoms: C_2  and  N_5
REMARK    2  A    between atoms: N_5  and  C_6
REMARK    3  A    between atoms: C_6  and  N_8
REMARK    4  A    between atoms: C_9  and  C_11
REMARK    5  A    between atoms: C_15  and  N_16
REMARK                            x       y       z     vdW  Elec       q    Type
REMARK                         _______ _______ _______ _____ _____    ______ ____
ROOT
ATOM      1  N   UNL     1      21.941  -8.988  25.429  0.00  0.00    +0.000 NA
ATOM      2  C   UNL     1      21.619  -7.631  25.531  0.00  0.00    +0.000 C 
ATOM      3  O   UNL     1      22.474  -6.773  25.199  0.00  0.00    +0.000 OA
ENDROOT
BRANCH   2   4
ATOM      4  C   UNL     1      20.300  -7.163  26.017  0.00  0.00    +0.000 A 
ATOM      5  C   UNL     1      19.886  -5.851  25.892  0.00  0.00    +0.000 A 
ATOM      6  C   UNL     1      18.638  -5.472  26.364  0.00  0.00    +0.000 A 
ATOM      7  C   UNL     1      17.789  -6.366  26.958  0.00  0.00    +0.000 A 
ATOM      8  C   UNL     1      18.196  -7.696  27.091  0.00  0.00    +0.000 A 
ATOM      9  C   UNL     1      19.447  -8.050  26.612  0.00  0.00    +0.000 A 
BRANCH   8  10
ATOM     10  N   UNL     1      17.355  -8.662  27.689  0.00  0.00    +0.000 N 
ATOM     11  O   UNL     1      16.360  -9.070  27.088  0.00  0.00    +0.000 OA
ATOM     12  O   UNL     1      17.637  -9.137  28.926  0.00  0.00    +0.000 OA
ENDBRANCH   8  10
ENDBRANCH   2   4
BRANCH   1  13
ATOM     13  C   UNL     1      23.212  -9.474  24.957  0.00  0.00    +0.000 C 
ATOM     14  S   UNL     1      23.875 -10.727  25.856  0.00  0.00    +0.000 S 
BRANCH  13  15
ATOM     15  N   UNL     1      23.806  -9.004  23.893  0.00  0.00    +0.000 NA
BRANCH  15  17
ATOM     16  C   UNL     1      25.268  -9.515  22.002  0.00  0.00    +0.000 C 
ATOM     17  C   UNL     1      24.408  -8.528  22.815  0.00  0.00    +0.000 C 
ATOM     18  C   UNL     1      23.394  -7.919  21.826  0.00  0.00    +0.000 C 
ATOM     19  C   UNL     1      25.348  -7.342  23.127  0.00  0.00    +0.000 C 
ENDBRANCH  15  17
ENDBRANCH  13  15
ENDBRANCH   1  13
TORSDOF 5
ENDMDL
MODEL 8
REMARK VINA RESULT:      -5.2     23.480     26.177
REMARK  Name = 
REMARK  5 active torsions:
REMARK  status: ('A' for Active; 'I' for Inactive)
REMARK    1  A    between atoms: C_2  and  N_5
REMARK    2  A    between atoms: N_5  and  C_6
REMARK    3  A    between atoms: C_6  and  N_8
REMARK    4  A    between atoms: C_9  and  C_11
REMARK    5  A    between atoms: C_15  and  N_16
REMARK                            x       y       z     vdW  Elec       q    Type
REMARK                         _______ _______ _______ _____ _____    ______ ____
ROOT
ATOM      1  N   UNL     1      29.709  27.024  20.187  0.00  0.00    +0.000 NA
ATOM      2  C   UNL     1      28.546  26.618  20.850  0.00  0.00    +0.000 C 
ATOM      3  O   UNL     1      27.479  27.251  20.658  0.00  0.00    +0.000 OA
ENDROOT
BRANCH   2   4
ATOM      4  C   UNL     1      28.525  25.461  21.775  0.00  0.00    +0.000 A 
ATOM      5  C   UNL     1      29.670  24.961  22.364  0.00  0.00    +0.000 A 
ATOM      6  C   UNL     1      29.587  23.876  23.226  0.00  0.00    +0.000 A 
ATOM      7  C   UNL     1      28.392  23.275  23.516  0.00  0.00    +0.000 A 
ATOM      8  C   UNL     1      27.227  23.770  22.926  0.00  0.00    +0.000 A 
ATOM      9  C   UNL     1      27.335  24.855  22.070  0.00  0.00    +0.000 A 
BRANCH   8  10
ATOM     10  N   UNL     1      25.966  23.192  23.198  0.00  0.00    +0.000 N 
ATOM     11  O   UNL     1      25.561  23.114  24.360  0.00  0.00    +0.000 OA
ATOM     12  O   UNL     1      25.203  22.717  22.185  0.00  0.00    +0.000 OA
ENDBRANCH   8  10
ENDBRANCH   2   4
BRANCH   1  13
ATOM     13  C   UNL     1      29.761  28.141  19.279  0.00  0.00    +0.000 C 
ATOM     14  S   UNL     1      29.841  29.651  20.008  0.00  0.00    +0.000 S 
BRANCH  13  15
ATOM     15  N   UNL     1      29.773  28.005  17.980  0.00  0.00    +0.000 NA
BRANCH  15  17
ATOM     16  C   UNL     1      29.297  26.519  16.098  0.00  0.00    +0.000 C 
ATOM     17  C   UNL     1      29.785  27.868  16.664  0.00  0.00    +0.000 C 
ATOM     18  C   UNL     1      28.940  28.958  15.976  0.00  0.00    +0.000 C 
ATOM     19  C   UNL     1      31.189  28.073  16.051  0.00  0.00    +0.000 C 
ENDBRANCH  15  17
ENDBRANCH  13  15
ENDBRANCH   1  13
TORSDOF 5
ENDMDL
MODEL 9
REMARK VINA RESULT:      -5.2      9.992     10.937
REMARK  Name = 
REMARK  5 active torsions:
REMARK  status: ('A' for Active; 'I' for Inactive)
REMARK    1  A    between atoms: C_2  and  N_5
REMARK    2  A    between atoms: N_5  and  C_6
REMARK    3  A    between atoms: C_6  and  N_8
REMARK    4  A    between atoms: C_9  and  C_11
REMARK    5  A    between atoms: C_15  and  N_16
REMARK                            x       y       z     vdW  Elec       q    Type
REMARK                         _______ _______ _______ _____ _____    ______ ____
ROOT
ATOM      1  N   UNL     1      19.554  21.139  37.029  0.00  0.00    +0.000 NA
ATOM      2  C   UNL     1      19.606  21.186  35.632  0.00  0.00    +0.000 C 
ATOM      3  O   UNL     1      20.725  21.189  35.061  0.00  0.00    +0.000 OA
ENDROOT
BRANCH   2   4
ATOM      4  C   UNL     1      18.385  21.231  34.794  0.00  0.00    +0.000 A 
ATOM      5  C   UNL     1      18.255  20.496  33.632  0.00  0.00    +0.000 A 
ATOM      6  C   UNL     1      17.086  20.576  32.889  0.00  0.00    +0.000 A 
ATOM      7  C   UNL     1      16.040  21.371  33.275  0.00  0.00    +0.000 A 
ATOM      8  C   UNL     1      16.159  22.120  34.448  0.00  0.00    +0.000 A 
ATOM      9  C   UNL     1      17.337  22.022  35.172  0.00  0.00    +0.000 A 
BRANCH   8  10
ATOM     10  N   UNL     1      15.106  22.950  34.896  0.00  0.00    +0.000 N 
ATOM     11  O   UNL     1      14.383  23.524  34.080  0.00  0.00    +0.000 OA
ATOM     12  O   UNL     1      14.892  23.121  36.223  0.00  0.00    +0.000 OA
ENDBRANCH   8  10
ENDBRANCH   2   4
BRANCH   1  13
ATOM     13  C   UNL     1      20.722  21.090  37.870  0.00  0.00    +0.000 C 
ATOM     14  S   UNL     1      21.343  22.585  38.316  0.00  0.00    +0.000 S 
BRANCH  13  15
ATOM     15  N   UNL     1      21.256  19.974  38.287  0.00  0.00    +0.000 NA
BRANCH  15  17
ATOM     16  C   UNL     1      20.830  17.737  39.176  0.00  0.00    +0.000 C 
ATOM     17  C   UNL     1      21.797  18.843  38.709  0.00  0.00    +0.000 C 
ATOM     18  C   UNL     1      22.693  18.208  37.627  0.00  0.00    +0.000 C 
ATOM     19  C   UNL     1      22.769  19.047  39.893  0.00  0.00    +0.000 C 
ENDBRANCH  15  17
ENDBRANCH  13  15
ENDBRANCH   1  13
TORSDOF 5
ENDMDL
MODEL 10
REMARK VINA RESULT:      -5.2     19.221     20.721
REMARK  Name = 
REMARK  5 active torsions:
REMARK  status: ('A' for Active; 'I' for Inactive)
REMARK    1  A    between atoms: C_2  and  N_5
REMARK    2  A    between atoms: N_5  and  C_6
REMARK    3  A    between atoms: C_6  and  N_8
REMARK    4  A    between atoms: C_9  and  C_11
REMARK    5  A    between atoms: C_15  and  N_16
REMARK                            x       y       z     vdW  Elec       q    Type
REMARK                         _______ _______ _______ _____ _____    ______ ____
ROOT
ATOM      1  N   UNL     1      28.841  23.725  26.542  0.00  0.00    +0.000 NA
ATOM      2  C   UNL     1      27.874  23.025  25.813  0.00  0.00    +0.000 C 
ATOM      3  O   UNL     1      27.278  22.061  26.355  0.00  0.00    +0.000 OA
ENDROOT
BRANCH   2   4
ATOM      4  C   UNL     1      27.522  23.380  24.419  0.00  0.00    +0.000 A 
ATOM      5  C   UNL     1      26.287  23.094  23.870  0.00  0.00    +0.000 A 
ATOM      6  C   UNL     1      26.013  23.453  22.558  0.00  0.00    +0.000 A 
ATOM      7  C   UNL     1      26.939  24.092  21.777  0.00  0.00    +0.000 A 
ATOM      8  C   UNL     1      28.191  24.387  22.320  0.00  0.00    +0.000 A 
ATOM      9  C   UNL     1      28.441  24.018  23.633  0.00  0.00    +0.000 A 
BRANCH   8  10
ATOM     10  N   UNL     1      29.180  25.053  21.560  0.00  0.00    +0.000 N 
ATOM     11  O   UNL     1      29.786  24.450  20.673  0.00  0.00    +0.000 OA
ATOM     12  O   UNL     1      29.468  26.353  21.810  0.00  0.00    +0.000 OA
ENDBRANCH   8  10
ENDBRANCH   2   4
BRANCH   1  13
ATOM     13  C   UNL     1      29.203  23.407  27.900  0.00  0.00    +0.000 C 
ATOM     14  S   UNL     1      30.844  23.176  28.166  0.00  0.00    +0.000 S 
BRANCH  13  15
ATOM     15  N   UNL     1      28.333  23.328  28.871  0.00  0.00    +0.000 NA
BRANCH  15  17
ATOM     16  C   UNL     1      27.052  21.835  30.321  0.00  0.00    +0.000 C 
ATOM     17  C   UNL     1      27.452  23.248  29.854  0.00  0.00    +0.000 C 
ATOM     18  C   UNL     1      27.939  23.998  31.110  0.00  0.00    +0.000 C 
ATOM     19  C   UNL     1      26.116  23.951  29.523  0.00  0.00    +0.000 C 
ENDBRANCH  15  17
ENDBRANCH  13  15
ENDBRANCH   1  13
TORSDOF 5
ENDMDL
