MODEL 1
REMARK VINA RESULT:      -6.9      0.000      0.000
REMARK  Name = 
REMARK  3 active torsions:
REMARK  status: ('A' for Active; 'I' for Inactive)
REMARK    1  A    between atoms: N_4  and  C_5
REMARK    2  A    between atoms: C_5  and  C_6
REMARK    3  A    between atoms: C_6  and  C_7
REMARK                            x       y       z     vdW  Elec       q    Type
REMARK                         _______ _______ _______ _____ _____    ______ ____
ROOT
ATOM      1  C   UNL     1      33.101  23.005   8.746  0.00  0.00    +0.000 C 
ATOM      2  C   UNL     1      31.846  22.202   8.854  0.00  0.00    +0.000 C 
ATOM      3  O   UNL     1      30.699  22.945   8.935  0.00  0.00    +0.000 OA
ATOM      4  N   UNL     1      31.884  21.206   9.947  0.00  0.00    +0.000 N 
ATOM      5  C   UNL     1      32.917  20.297   9.468  0.00  0.00    +0.000 C 
ATOM      6  O   UNL     1      33.604  19.609  10.259  0.00  0.00    +0.000 OA
ATOM      7  O   UNL     1      32.935  20.382   8.082  0.00  0.00    +0.000 OA
ATOM      8  C   UNL     1      31.807  21.181   7.690  0.00  0.00    +0.000 C 
ATOM      9  C   UNL     1      30.536  20.419   7.821  0.00  0.00    +0.000 C 
ATOM     10  C   UNL     1      30.339  19.424   6.714  0.00  0.00    +0.000 C 
ATOM     11  C   UNL     1      31.363  19.604   5.607  0.00  0.00    +0.000 C 
ATOM     12  C   UNL     1      31.470  21.067   5.235  0.00  0.00    +0.000 C 
ATOM     13  C   UNL     1      32.010  21.866   6.382  0.00  0.00    +0.000 C 
ENDROOT
BRANCH   4  14
ATOM     14  C   UNL     1      31.114  21.094  11.108  0.00  0.00    +0.000 C 
BRANCH  14  15
ATOM     15  C   UNL     1      31.057  22.259  11.975  0.00  0.00    +0.000 C 
BRANCH  15  16
ATOM     16  C   UNL     1      29.713  22.696  12.367  0.00  0.00    +0.000 A 
ATOM     17  C   UNL     1      29.470  23.331  13.561  0.00  0.00    +0.000 A 
ATOM     18  C   UNL     1      28.265  23.772  14.010  0.00  0.00    +0.000 A 
ATOM     19  C   UNL     1      27.167  23.555  13.169  0.00  0.00    +0.000 A 
ATOM     20  C   UNL     1      27.348  22.922  11.959  0.00  0.00    +0.000 A 
ATOM     21  C   UNL     1      28.595  22.498  11.558  0.00  0.00    +0.000 A 
ENDBRANCH  15  16
ENDBRANCH  14  15
ENDBRANCH   4  14
TORSDOF 3
ENDMDL
MODEL 2
REMARK VINA RESULT:      -6.7     14.212     17.099
REMARK  Name = 
REMARK  3 active torsions:
REMARK  status: ('A' for Active; 'I' for Inactive)
REMARK    1  A    between atoms: N_4  and  C_5
REMARK    2  A    between atoms: C_5  and  C_6
REMARK    3  A    between atoms: C_6  and  C_7
REMARK                            x       y       z     vdW  Elec       q    Type
REMARK                         _______ _______ _______ _____ _____    ______ ____
ROOT
ATOM      1  C   UNL     1      24.288  25.732  25.215  0.00  0.00    +0.000 C 
ATOM      2  C   UNL     1      25.773  25.626  25.340  0.00  0.00    +0.000 C 
ATOM      3  O   UNL     1      26.405  26.801  25.642  0.00  0.00    +0.000 OA
ATOM      4  N   UNL     1      26.412  24.992  24.166  0.00  0.00    +0.000 N 
ATOM      5  C   UNL     1      25.892  23.635  24.256  0.00  0.00    +0.000 C 
ATOM      6  O   UNL     1      25.774  22.908  23.242  0.00  0.00    +0.000 OA
ATOM      7  O   UNL     1      25.599  23.389  25.592  0.00  0.00    +0.000 OA
ATOM      8  C   UNL     1      26.108  24.499  26.349  0.00  0.00    +0.000 C 
ATOM      9  C   UNL     1      27.590  24.442  26.461  0.00  0.00    +0.000 C 
ATOM     10  C   UNL     1      28.057  23.421  27.459  0.00  0.00    +0.000 C 
ATOM     11  C   UNL     1      26.905  22.869  28.280  0.00  0.00    +0.000 C 
ATOM     12  C   UNL     1      26.035  24.002  28.778  0.00  0.00    +0.000 C 
ATOM     13  C   UNL     1      25.377  24.707  27.631  0.00  0.00    +0.000 C 
ENDROOT
BRANCH   4  14
ATOM     14  C   UNL     1      27.323  25.501  23.236  0.00  0.00    +0.000 C 
BRANCH  14  15
ATOM     15  C   UNL     1      28.251  24.556  22.638  0.00  0.00    +0.000 C 
BRANCH  15  16
ATOM     16  C   UNL     1      29.369  24.137  23.488  0.00  0.00    +0.000 A 
ATOM     17  C   UNL     1      30.345  25.015  23.899  0.00  0.00    +0.000 A 
ATOM     18  C   UNL     1      31.415  24.722  24.684  0.00  0.00    +0.000 A 
ATOM     19  C   UNL     1      31.531  23.395  25.113  0.00  0.00    +0.000 A 
ATOM     20  C   UNL     1      30.585  22.468  24.734  0.00  0.00    +0.000 A 
ATOM     21  C   UNL     1      29.521  22.826  23.936  0.00  0.00    +0.000 A 
ENDBRANCH  15  16
ENDBRANCH  14  15
ENDBRANCH   4  14
TORSDOF 3
ENDMDL
MODEL 3
REMARK VINA RESULT:      -6.6      1.649      6.548
REMARK  Name = 
REMARK  3 active torsions:
REMARK  status: ('A' for Active; 'I' for Inactive)
REMARK    1  A    between atoms: N_4  and  C_5
REMARK    2  A    between atoms: C_5  and  C_6
REMARK    3  A    between atoms: C_6  and  C_7
REMARK                            x       y       z     vdW  Elec       q    Type
REMARK                         _______ _______ _______ _____ _____    ______ ____
ROOT
ATOM      1  C   UNL     1      32.367  21.707  11.427  0.00  0.00    +0.000 C 
ATOM      2  C   UNL     1      30.993  21.221  11.103  0.00  0.00    +0.000 C 
ATOM      3  O   UNL     1      30.696  19.979  11.596  0.00  0.00    +0.000 OA
ATOM      4  N   UNL     1      30.678  21.282   9.660  0.00  0.00    +0.000 N 
ATOM      5  C   UNL     1      30.672  22.721   9.430  0.00  0.00    +0.000 C 
ATOM      6  O   UNL     1      30.928  23.207   8.303  0.00  0.00    +0.000 OA
ATOM      7  O   UNL     1      30.348  23.333  10.634  0.00  0.00    +0.000 OA
ATOM      8  C   UNL     1      29.968  22.293  11.550  0.00  0.00    +0.000 C 
ATOM      9  C   UNL     1      28.615  21.763  11.232  0.00  0.00    +0.000 C 
ATOM     10  C   UNL     1      27.513  22.684  11.668  0.00  0.00    +0.000 C 
ATOM     11  C   UNL     1      28.036  23.815  12.538  0.00  0.00    +0.000 C 
ATOM     12  C   UNL     1      28.962  23.264  13.599  0.00  0.00    +0.000 C 
ATOM     13  C   UNL     1      30.189  22.669  12.976  0.00  0.00    +0.000 C 
ENDROOT
BRANCH   4  14
ATOM     14  C   UNL     1      30.393  20.267   8.742  0.00  0.00    +0.000 C 
BRANCH  14  15
ATOM     15  C   UNL     1      31.121  20.292   7.485  0.00  0.00    +0.000 C 
BRANCH  15  16
ATOM     16  C   UNL     1      30.666  19.341   6.466  0.00  0.00    +0.000 A 
ATOM     17  C   UNL     1      31.409  18.241   6.109  0.00  0.00    +0.000 A 
ATOM     18  C   UNL     1      31.072  17.307   5.181  0.00  0.00    +0.000 A 
ATOM     19  C   UNL     1      29.849  17.489   4.525  0.00  0.00    +0.000 A 
ATOM     20  C   UNL     1      29.060  18.574   4.839  0.00  0.00    +0.000 A 
ATOM     21  C   UNL     1      29.455  19.487   5.791  0.00  0.00    +0.000 A 
ENDBRANCH  15  16
ENDBRANCH  14  15
ENDBRANCH   4  14
TORSDOF 3
ENDMDL
MODEL 4
REMARK VINA RESULT:      -6.6     32.064     33.708
REMARK  Name = 
REMARK  3 active torsions:
REMARK  status: ('A' for Active; 'I' for Inactive)
REMARK    1  A    between atoms: N_4  and  C_5
REMARK    2  A    between atoms: C_5  and  C_6
REMARK    3  A    between atoms: C_6  and  C_7
REMARK                            x       y       z     vdW  Elec       q    Type
REMARK                         _______ _______ _______ _____ _____    ______ ____
ROOT
ATOM      1  C   UNL     1      34.608  -0.313  33.289  0.00  0.00    +0.000 C 
ATOM      2  C   UNL     1      33.633  -0.599  34.384  0.00  0.00    +0.000 C 
ATOM      3  O   UNL     1      32.373  -0.112  34.168  0.00  0.00    +0.000 OA
ATOM      4  N   UNL     1      34.117  -0.182  35.718  0.00  0.00    +0.000 N 
ATOM      5  C   UNL     1      35.236  -1.093  35.913  0.00  0.00    +0.000 C 
ATOM      6  O   UNL     1      36.206  -0.794  36.650  0.00  0.00    +0.000 OA
ATOM      7  O   UNL     1      34.979  -2.235  35.165  0.00  0.00    +0.000 OA
ATOM      8  C   UNL     1      33.635  -2.122  34.667  0.00  0.00    +0.000 C 
ATOM      9  C   UNL     1      32.639  -2.367  35.745  0.00  0.00    +0.000 C 
ATOM     10  C   UNL     1      32.496  -3.823  36.083  0.00  0.00    +0.000 C 
ATOM     11  C   UNL     1      33.222  -4.706  35.084  0.00  0.00    +0.000 C 
ATOM     12  C   UNL     1      32.893  -4.270  33.673  0.00  0.00    +0.000 C 
ATOM     13  C   UNL     1      33.419  -2.891  33.409  0.00  0.00    +0.000 C 
ENDROOT
BRANCH   4  14
ATOM     14  C   UNL     1      33.625   0.776  36.610  0.00  0.00    +0.000 C 
BRANCH  14  15
ATOM     15  C   UNL     1      34.424   1.975  36.795  0.00  0.00    +0.000 C 
BRANCH  15  16
ATOM     16  C   UNL     1      34.010   3.143  36.012  0.00  0.00    +0.000 A 
ATOM     17  C   UNL     1      33.840   3.087  34.648  0.00  0.00    +0.000 A 
ATOM     18  C   UNL     1      33.460   4.112  33.841  0.00  0.00    +0.000 A 
ATOM     19  C   UNL     1      33.219   5.343  34.462  0.00  0.00    +0.000 A 
ATOM     20  C   UNL     1      33.373   5.462  35.826  0.00  0.00    +0.000 A 
ATOM     21  C   UNL     1      33.761   4.385  36.593  0.00  0.00    +0.000 A 
ENDBRANCH  15  16
ENDBRANCH  14  15
ENDBRANCH   4  14
TORSDOF 3
ENDMDL
MODEL 5
REMARK VINA RESULT:      -6.6     14.001     16.832
REMARK  Name = 
REMARK  3 active torsions:
REMARK  status: ('A' for Active; 'I' for Inactive)
REMARK    1  A    between atoms: N_4  and  C_5
REMARK    2  A    between atoms: C_5  and  C_6
REMARK    3  A    between atoms: C_6  and  C_7
REMARK                            x       y       z     vdW  Elec       q    Type
REMARK                         _______ _______ _______ _____ _____    ______ ____
ROOT
ATOM      1  C   UNL     1      28.626  25.357  22.444  0.00  0.00    +0.000 C 
ATOM      2  C   UNL     1      28.164  24.317  23.412  0.00  0.00    +0.000 C 
ATOM      3  O   UNL     1      27.710  23.163  22.835  0.00  0.00    +0.000 OA
ATOM      4  N   UNL     1      27.169  24.826  24.381  0.00  0.00    +0.000 N 
ATOM      5  C   UNL     1      27.972  25.773  25.143  0.00  0.00    +0.000 C 
ATOM      6  O   UNL     1      27.454  26.757  25.722  0.00  0.00    +0.000 OA
ATOM      7  O   UNL     1      29.293  25.350  25.071  0.00  0.00    +0.000 OA
ATOM      8  C   UNL     1      29.293  24.059  24.441  0.00  0.00    +0.000 C 
ATOM      9  C   UNL     1      28.802  23.005  25.370  0.00  0.00    +0.000 C 
ATOM     10  C   UNL     1      29.828  22.613  26.394  0.00  0.00    +0.000 C 
ATOM     11  C   UNL     1      31.189  23.211  26.085  0.00  0.00    +0.000 C 
ATOM     12  C   UNL     1      31.527  22.999  24.626  0.00  0.00    +0.000 C 
ATOM     13  C   UNL     1      30.576  23.754  23.747  0.00  0.00    +0.000 C 
ENDROOT
BRANCH   4  14
ATOM     14  C   UNL     1      25.832  24.475  24.587  0.00  0.00    +0.000 C 
BRANCH  14  15
ATOM     15  C   UNL     1      25.551  23.572  25.690  0.00  0.00    +0.000 C 
BRANCH  15  16
ATOM     16  C   UNL     1      25.430  24.197  27.011  0.00  0.00    +0.000 A 
ATOM     17  C   UNL     1      26.095  23.713  28.113  0.00  0.00    +0.000 A 
ATOM     18  C   UNL     1      26.047  24.222  29.372  0.00  0.00    +0.000 A 
ATOM     19  C   UNL     1      25.239  25.349  29.560  0.00  0.00    +0.000 A 
ATOM     20  C   UNL     1      24.547  25.880  28.494  0.00  0.00    +0.000 A 
ATOM     21  C   UNL     1      24.636  25.319  27.239  0.00  0.00    +0.000 A 
ENDBRANCH  15  16
ENDBRANCH  14  15
ENDBRANCH   4  14
TORSDOF 3
ENDMDL
MODEL 6
REMARK VINA RESULT:      -6.5     13.040     16.063
REMARK  Name = 
REMARK  3 active torsions:
REMARK  status: ('A' for Active; 'I' for Inactive)
REMARK    1  A    between atoms: N_4  and  C_5
REMARK    2  A    between atoms: C_5  and  C_6
REMARK    3  A    between atoms: C_6  and  C_7
REMARK                            x       y       z     vdW  Elec       q    Type
REMARK                         _______ _______ _______ _____ _____    ______ ____
ROOT
ATOM      1  C   UNL     1      28.987  23.098  23.591  0.00  0.00    +0.000 C 
ATOM      2  C   UNL     1      28.187  24.327  23.876  0.00  0.00    +0.000 C 
ATOM      3  O   UNL     1      28.637  25.068  24.934  0.00  0.00    +0.000 OA
ATOM      4  N   UNL     1      26.740  24.059  24.022  0.00  0.00    +0.000 N 
ATOM      5  C   UNL     1      26.389  23.641  22.671  0.00  0.00    +0.000 C 
ATOM      6  O   UNL     1      25.419  22.878  22.450  0.00  0.00    +0.000 OA
ATOM      7  O   UNL     1      27.297  24.235  21.803  0.00  0.00    +0.000 OA
ATOM      8  C   UNL     1      28.079  25.162  22.575  0.00  0.00    +0.000 C 
ATOM      9  C   UNL     1      27.296  26.383  22.905  0.00  0.00    +0.000 C 
ATOM     10  C   UNL     1      27.161  27.319  21.739  0.00  0.00    +0.000 C 
ATOM     11  C   UNL     1      28.054  26.906  20.581  0.00  0.00    +0.000 C 
ATOM     12  C   UNL     1      29.446  26.598  21.086  0.00  0.00    +0.000 C 
ATOM     13  C   UNL     1      29.429  25.404  21.992  0.00  0.00    +0.000 C 
ENDROOT
BRANCH   4  14
ATOM     14  C   UNL     1      25.888  24.213  25.120  0.00  0.00    +0.000 C 
BRANCH  14  15
ATOM     15  C   UNL     1      26.118  23.340  26.258  0.00  0.00    +0.000 C 
BRANCH  15  16
ATOM     16  C   UNL     1      25.881  23.936  27.576  0.00  0.00    +0.000 A 
ATOM     17  C   UNL     1      25.169  25.102  27.734  0.00  0.00    +0.000 A 
ATOM     18  C   UNL     1      24.897  25.728  28.909  0.00  0.00    +0.000 A 
ATOM     19  C   UNL     1      25.394  25.124  30.070  0.00  0.00    +0.000 A 
ATOM     20  C   UNL     1      26.116  23.954  29.976  0.00  0.00    +0.000 A 
ATOM     21  C   UNL     1      26.358  23.365  28.755  0.00  0.00    +0.000 A 
ENDBRANCH  15  16
ENDBRANCH  14  15
ENDBRANCH   4  14
TORSDOF 3
ENDMDL
MODEL 7
REMARK VINA RESULT:      -6.5     15.440     18.134
REMARK  Name = 
REMARK  3 active torsions:
REMARK  status: ('A' for Active; 'I' for Inactive)
REMARK    1  A    between atoms: N_4  and  C_5
REMARK    2  A    between atoms: C_5  and  C_6
REMARK    3  A    between atoms: C_6  and  C_7
REMARK                            x       y       z     vdW  Elec       q    Type
REMARK                         _______ _______ _______ _____ _____    ______ ____
ROOT
ATOM      1  C   UNL     1      26.674  24.712  23.853  0.00  0.00    +0.000 C 
ATOM      2  C   UNL     1      26.764  23.854  25.072  0.00  0.00    +0.000 C 
ATOM      3  O   UNL     1      26.048  22.690  25.004  0.00  0.00    +0.000 OA
ATOM      4  N   UNL     1      26.440  24.578  26.320  0.00  0.00    +0.000 N 
ATOM      5  C   UNL     1      27.546  25.523  26.397  0.00  0.00    +0.000 C 
ATOM      6  O   UNL     1      27.433  26.619  26.994  0.00  0.00    +0.000 OA
ATOM      7  O   UNL     1      28.622  24.960  25.722  0.00  0.00    +0.000 OA
ATOM      8  C   UNL     1      28.259  23.608  25.397  0.00  0.00    +0.000 C 
ATOM      9  C   UNL     1      28.305  22.733  26.600  0.00  0.00    +0.000 C 
ATOM     10  C   UNL     1      29.706  22.365  26.996  0.00  0.00    +0.000 C 
ATOM     11  C   UNL     1      30.716  22.776  25.939  0.00  0.00    +0.000 C 
ATOM     12  C   UNL     1      30.231  22.352  24.569  0.00  0.00    +0.000 C 
ATOM     13  C   UNL     1      28.979  23.088  24.200  0.00  0.00    +0.000 C 
ENDROOT
BRANCH   4  14
ATOM     14  C   UNL     1      25.402  24.396  27.239  0.00  0.00    +0.000 C 
BRANCH  14  15
ATOM     15  C   UNL     1      25.660  24.800  28.611  0.00  0.00    +0.000 C 
BRANCH  15  16
ATOM     16  C   UNL     1      26.573  23.939  29.368  0.00  0.00    +0.000 A 
ATOM     17  C   UNL     1      27.795  24.385  29.817  0.00  0.00    +0.000 A 
ATOM     18  C   UNL     1      28.705  23.665  30.523  0.00  0.00    +0.000 A 
ATOM     19  C   UNL     1      28.362  22.340  30.821  0.00  0.00    +0.000 A 
ATOM     20  C   UNL     1      27.152  21.837  30.397  0.00  0.00    +0.000 A 
ATOM     21  C   UNL     1      26.269  22.616  29.684  0.00  0.00    +0.000 A 
ENDBRANCH  15  16
ENDBRANCH  14  15
ENDBRANCH   4  14
TORSDOF 3
ENDMDL
MODEL 8
REMARK VINA RESULT:      -6.4     13.339     16.082
REMARK  Name = 
REMARK  3 active torsions:
REMARK  status: ('A' for Active; 'I' for Inactive)
REMARK    1  A    between atoms: N_4  and  C_5
REMARK    2  A    between atoms: C_5  and  C_6
REMARK    3  A    between atoms: C_6  and  C_7
REMARK                            x       y       z     vdW  Elec       q    Type
REMARK                         _______ _______ _______ _____ _____    ______ ____
ROOT
ATOM      1  C   UNL     1      28.783  27.133  23.384  0.00  0.00    +0.000 C 
ATOM      2  C   UNL     1      28.936  25.852  24.137  0.00  0.00    +0.000 C 
ATOM      3  O   UNL     1      29.292  26.002  25.450  0.00  0.00    +0.000 OA
ATOM      4  N   UNL     1      29.842  24.891  23.472  0.00  0.00    +0.000 N 
ATOM      5  C   UNL     1      29.087  24.574  22.267  0.00  0.00    +0.000 C 
ATOM      6  O   UNL     1      29.656  24.198  21.215  0.00  0.00    +0.000 OA
ATOM      7  O   UNL     1      27.742  24.771  22.555  0.00  0.00    +0.000 OA
ATOM      8  C   UNL     1      27.642  25.018  23.967  0.00  0.00    +0.000 C 
ATOM      9  C   UNL     1      27.826  23.765  24.748  0.00  0.00    +0.000 C 
ATOM     10  C   UNL     1      26.614  22.880  24.718  0.00  0.00    +0.000 C 
ATOM     11  C   UNL     1      25.418  23.584  24.101  0.00  0.00    +0.000 C 
ATOM     12  C   UNL     1      25.271  24.968  24.694  0.00  0.00    +0.000 C 
ATOM     13  C   UNL     1      26.444  25.828  24.329  0.00  0.00    +0.000 C 
ENDROOT
BRANCH   4  14
ATOM     14  C   UNL     1      31.066  24.355  23.882  0.00  0.00    +0.000 C 
BRANCH  14  15
ATOM     15  C   UNL     1      31.031  23.057  24.534  0.00  0.00    +0.000 C 
BRANCH  15  16
ATOM     16  C   UNL     1      31.249  23.066  25.984  0.00  0.00    +0.000 A 
ATOM     17  C   UNL     1      32.129  23.935  26.586  0.00  0.00    +0.000 A 
ATOM     18  C   UNL     1      32.397  24.019  27.915  0.00  0.00    +0.000 A 
ATOM     19  C   UNL     1      31.707  23.131  28.750  0.00  0.00    +0.000 A 
ATOM     20  C   UNL     1      30.813  22.236  28.205  0.00  0.00    +0.000 A 
ATOM     21  C   UNL     1      30.583  22.199  26.847  0.00  0.00    +0.000 A 
ENDBRANCH  15  16
ENDBRANCH  14  15
ENDBRANCH   4  14
TORSDOF 3
ENDMDL
MODEL 9
REMARK VINA RESULT:      -6.4      1.770      6.057
REMARK  Name = 
REMARK  3 active torsions:
REMARK  status: ('A' for Active; 'I' for Inactive)
REMARK    1  A    between atoms: N_4  and  C_5
REMARK    2  A    between atoms: C_5  and  C_6
REMARK    3  A    between atoms: C_6  and  C_7
REMARK                            x       y       z     vdW  Elec       q    Type
REMARK                         _______ _______ _______ _____ _____    ______ ____
ROOT
ATOM      1  C   UNL     1      32.082  22.204  11.807  0.00  0.00    +0.000 C 
ATOM      2  C   UNL     1      30.836  21.535  11.326  0.00  0.00    +0.000 C 
ATOM      3  O   UNL     1      30.644  20.271  11.813  0.00  0.00    +0.000 OA
ATOM      4  N   UNL     1      30.706  21.537   9.852  0.00  0.00    +0.000 N 
ATOM      5  C   UNL     1      30.542  22.959   9.582  0.00  0.00    +0.000 C 
ATOM      6  O   UNL     1      30.876  23.462   8.484  0.00  0.00    +0.000 OA
ATOM      7  O   UNL     1      29.987  23.536  10.718  0.00  0.00    +0.000 OA
ATOM      8  C   UNL     1      29.630  22.466  11.608  0.00  0.00    +0.000 C 
ATOM      9  C   UNL     1      28.412  21.755  11.135  0.00  0.00    +0.000 C 
ATOM     10  C   UNL     1      27.151  22.526  11.401  0.00  0.00    +0.000 C 
ATOM     11  C   UNL     1      27.404  23.727  12.296  0.00  0.00    +0.000 C 
ATOM     12  C   UNL     1      28.249  23.317  13.483  0.00  0.00    +0.000 C 
ATOM     13  C   UNL     1      29.613  22.885  13.038  0.00  0.00    +0.000 C 
ENDROOT
BRANCH   4  14
ATOM     14  C   UNL     1      30.679  20.482   8.936  0.00  0.00    +0.000 C 
BRANCH  14  15
ATOM     15  C   UNL     1      31.819  20.354   8.044  0.00  0.00    +0.000 C 
BRANCH  15  16
ATOM     16  C   UNL     1      33.133  20.574   8.654  0.00  0.00    +0.000 A 
ATOM     17  C   UNL     1      33.900  21.678   8.363  0.00  0.00    +0.000 A 
ATOM     18  C   UNL     1      35.124  21.967   8.876  0.00  0.00    +0.000 A 
ATOM     19  C   UNL     1      35.653  21.048   9.790  0.00  0.00    +0.000 A 
ATOM     20  C   UNL     1      34.932  19.922  10.122  0.00  0.00    +0.000 A 
ATOM     21  C   UNL     1      33.693  19.683   9.568  0.00  0.00    +0.000 A 
ENDBRANCH  15  16
ENDBRANCH  14  15
ENDBRANCH   4  14
TORSDOF 3
ENDMDL
MODEL 10
REMARK VINA RESULT:      -6.4     30.546     32.125
REMARK  Name = 
REMARK  3 active torsions:
REMARK  status: ('A' for Active; 'I' for Inactive)
REMARK    1  A    between atoms: N_4  and  C_5
REMARK    2  A    between atoms: C_5  and  C_6
REMARK    3  A    between atoms: C_6  and  C_7
REMARK                            x       y       z     vdW  Elec       q    Type
REMARK                         _______ _______ _______ _____ _____    ______ ____
ROOT
ATOM      1  C   UNL     1      21.212  12.441  40.208  0.00  0.00    +0.000 C 
ATOM      2  C   UNL     1      20.747  11.751  38.968  0.00  0.00    +0.000 C 
ATOM      3  O   UNL     1      20.129  12.567  38.060  0.00  0.00    +0.000 OA
ATOM      4  N   UNL     1      19.906  10.566  39.242  0.00  0.00    +0.000 N 
ATOM      5  C   UNL     1      20.867   9.674  39.875  0.00  0.00    +0.000 C 
ATOM      6  O   UNL     1      20.507   8.787  40.685  0.00  0.00    +0.000 OA
ATOM      7  O   UNL     1      22.128  10.020  39.405  0.00  0.00    +0.000 OA
ATOM      8  C   UNL     1      21.940  10.979  38.351  0.00  0.00    +0.000 C 
ATOM      9  C   UNL     1      21.441  10.326  37.111  0.00  0.00    +0.000 C 
ATOM     10  C   UNL     1      22.517   9.583  36.373  0.00  0.00    +0.000 C 
ATOM     11  C   UNL     1      23.895   9.876  36.943  0.00  0.00    +0.000 C 
ATOM     12  C   UNL     1      24.067  11.366  37.137  0.00  0.00    +0.000 C 
ATOM     13  C   UNL     1      23.114  11.879  38.173  0.00  0.00    +0.000 C 
ENDROOT
BRANCH   4  14
ATOM     14  C   UNL     1      18.567  10.305  38.936  0.00  0.00    +0.000 C 
BRANCH  14  15
ATOM     15  C   UNL     1      18.309   9.371  37.854  0.00  0.00    +0.000 C 
BRANCH  15  16
ATOM     16  C   UNL     1      17.880   9.968  36.586  0.00  0.00    +0.000 A 
ATOM     17  C   UNL     1      17.246  11.187  36.528  0.00  0.00    +0.000 A 
ATOM     18  C   UNL     1      16.814  11.819  35.406  0.00  0.00    +0.000 A 
ATOM     19  C   UNL     1      17.038  11.160  34.191  0.00  0.00    +0.000 A 
ATOM     20  C   UNL     1      17.668   9.935  34.184  0.00  0.00    +0.000 A 
ATOM     21  C   UNL     1      18.085   9.344  35.356  0.00  0.00    +0.000 A 
ENDBRANCH  15  16
ENDBRANCH  14  15
ENDBRANCH   4  14
TORSDOF 3
ENDMDL
