MODEL 1
REMARK VINA RESULT:      -7.1      0.000      0.000
REMARK  Name = 
REMARK  2 active torsions:
REMARK  status: ('A' for Active; 'I' for Inactive)
REMARK    1  A    between atoms: C_2  and  C_15
REMARK    2  A    between atoms: N_3  and  N_4
REMARK                            x       y       z     vdW  Elec       q    Type
REMARK                         _______ _______ _______ _____ _____    ______ ____
ROOT
ATOM      1  N   UNL     1      31.602  20.325  11.187  0.00  0.00    +0.000 NA
ATOM      2  C   UNL     1      32.631  20.787  10.614  0.00  0.00    +0.000 C 
ATOM      3  C   UNL     1      32.686  22.055   9.874  0.00  0.00    +0.000 C 
ATOM      4  C   UNL     1      33.089  21.715   8.437  0.00  0.00    +0.000 C 
ATOM      5  C   UNL     1      34.401  20.970   8.503  0.00  0.00    +0.000 C 
ATOM      6  C   UNL     1      35.499  21.820   9.109  0.00  0.00    +0.000 C 
ATOM      7  C   UNL     1      35.046  22.143  10.537  0.00  0.00    +0.000 C 
ATOM      8  C   UNL     1      33.773  22.926  10.473  0.00  0.00    +0.000 C 
ATOM      9  C   UNL     1      34.928  20.883  11.340  0.00  0.00    +0.000 C 
ATOM     10  C   UNL     1      33.899  19.984  10.691  0.00  0.00    +0.000 C 
ATOM     11  C   UNL     1      34.271  19.659   9.251  0.00  0.00    +0.000 C 
ENDROOT
BRANCH   1  14
ATOM     12  O   UNL     1      30.554  21.841  13.312  0.00  0.00    +0.000 OA
ATOM     13  C   UNL     1      29.897  21.769  12.247  0.00  0.00    +0.000 C 
ATOM     14  N   UNL     1      30.390  21.017  11.156  0.00  0.00    +0.000 NA
BRANCH  13  15
ATOM     15  C   UNL     1      28.626  22.476  12.171  0.00  0.00    +0.000 A 
ATOM     16  C   UNL     1      28.349  23.525  13.016  0.00  0.00    +0.000 A 
ATOM     17  C   UNL     1      27.147  24.190  12.940  0.00  0.00    +0.000 A 
ATOM     18  C   UNL     1      26.187  23.818  12.012  0.00  0.00    +0.000 A 
ATOM     19  O   UNL     1      24.975  24.484  11.932  0.00  0.00    +0.000 OA
ATOM     20  C   UNL     1      26.457  22.783  11.178  0.00  0.00    +0.000 A 
ATOM     21  C   UNL     1      27.651  22.111  11.241  0.00  0.00    +0.000 A 
ENDBRANCH  13  15
ENDBRANCH   1  14
TORSDOF 2
ENDMDL
MODEL 2
REMARK VINA RESULT:      -7.0     32.146     33.609
REMARK  Name = 
REMARK  2 active torsions:
REMARK  status: ('A' for Active; 'I' for Inactive)
REMARK    1  A    between atoms: C_2  and  C_15
REMARK    2  A    between atoms: N_3  and  N_4
REMARK                            x       y       z     vdW  Elec       q    Type
REMARK                         _______ _______ _______ _____ _____    ______ ____
ROOT
ATOM      1  N   UNL     1      33.500  -4.598  33.290  0.00  0.00    +0.000 NA
ATOM      2  C   UNL     1      33.549  -5.441  32.347  0.00  0.00    +0.000 C 
ATOM      3  C   UNL     1      33.639  -5.105  30.920  0.00  0.00    +0.000 C 
ATOM      4  C   UNL     1      32.401  -5.701  30.243  0.00  0.00    +0.000 C 
ATOM      5  C   UNL     1      32.398  -7.182  30.540  0.00  0.00    +0.000 C 
ATOM      6  C   UNL     1      33.621  -7.871  29.971  0.00  0.00    +0.000 C 
ATOM      7  C   UNL     1      34.828  -7.235  30.668  0.00  0.00    +0.000 C 
ATOM      8  C   UNL     1      34.865  -5.777  30.333  0.00  0.00    +0.000 C 
ATOM      9  C   UNL     1      34.777  -7.505  32.141  0.00  0.00    +0.000 C 
ATOM     10  C   UNL     1      33.511  -6.899  32.706  0.00  0.00    +0.000 C 
ATOM     11  C   UNL     1      32.272  -7.461  32.023  0.00  0.00    +0.000 C 
ENDROOT
BRANCH   1  14
ATOM     12  O   UNL     1      33.527  -2.583  35.253  0.00  0.00    +0.000 OA
ATOM     13  C   UNL     1      33.544  -2.243  34.046  0.00  0.00    +0.000 C 
ATOM     14  N   UNL     1      33.531  -3.227  33.030  0.00  0.00    +0.000 NA
BRANCH  13  15
ATOM     15  C   UNL     1      33.575  -0.823  33.729  0.00  0.00    +0.000 A 
ATOM     16  C   UNL     1      34.327  -0.350  32.679  0.00  0.00    +0.000 A 
ATOM     17  C   UNL     1      34.354   0.993  32.383  0.00  0.00    +0.000 A 
ATOM     18  C   UNL     1      33.625   1.902  33.135  0.00  0.00    +0.000 A 
ATOM     19  O   UNL     1      33.649   3.255  32.841  0.00  0.00    +0.000 OA
ATOM     20  C   UNL     1      32.883   1.438  34.172  0.00  0.00    +0.000 A 
ATOM     21  C   UNL     1      32.846   0.101  34.479  0.00  0.00    +0.000 A 
ENDBRANCH  13  15
ENDBRANCH   1  14
TORSDOF 2
ENDMDL
MODEL 3
REMARK VINA RESULT:      -6.6     14.411     17.182
REMARK  Name = 
REMARK  2 active torsions:
REMARK  status: ('A' for Active; 'I' for Inactive)
REMARK    1  A    between atoms: C_2  and  C_15
REMARK    2  A    between atoms: N_3  and  N_4
REMARK                            x       y       z     vdW  Elec       q    Type
REMARK                         _______ _______ _______ _____ _____    ______ ____
ROOT
ATOM      1  N   UNL     1      28.170  22.040  27.538  0.00  0.00    +0.000 NA
ATOM      2  C   UNL     1      27.940  22.774  28.543  0.00  0.00    +0.000 C 
ATOM      3  C   UNL     1      28.072  24.236  28.564  0.00  0.00    +0.000 C 
ATOM      4  C   UNL     1      29.116  24.574  29.633  0.00  0.00    +0.000 C 
ATOM      5  C   UNL     1      28.640  23.967  30.932  0.00  0.00    +0.000 C 
ATOM      6  C   UNL     1      27.314  24.552  31.372  0.00  0.00    +0.000 C 
ATOM      7  C   UNL     1      26.309  24.200  30.270  0.00  0.00    +0.000 C 
ATOM      8  C   UNL     1      26.749  24.843  28.992  0.00  0.00    +0.000 C 
ATOM      9  C   UNL     1      26.157  22.712  30.164  0.00  0.00    +0.000 C 
ATOM     10  C   UNL     1      27.499  22.108  29.815  0.00  0.00    +0.000 C 
ATOM     11  C   UNL     1      28.555  22.457  30.853  0.00  0.00    +0.000 C 
ENDROOT
BRANCH   1  14
ATOM     12  O   UNL     1      26.468  22.679  25.391  0.00  0.00    +0.000 OA
ATOM     13  C   UNL     1      27.696  22.898  25.267  0.00  0.00    +0.000 C 
ATOM     14  N   UNL     1      28.584  22.591  26.324  0.00  0.00    +0.000 NA
BRANCH  13  15
ATOM     15  C   UNL     1      28.172  23.472  24.017  0.00  0.00    +0.000 A 
ATOM     16  C   UNL     1      29.478  23.883  23.880  0.00  0.00    +0.000 A 
ATOM     17  C   UNL     1      29.923  24.425  22.697  0.00  0.00    +0.000 A 
ATOM     18  C   UNL     1      29.068  24.570  21.615  0.00  0.00    +0.000 A 
ATOM     19  O   UNL     1      29.512  25.115  20.422  0.00  0.00    +0.000 OA
ATOM     20  C   UNL     1      27.780  24.167  21.748  0.00  0.00    +0.000 A 
ATOM     21  C   UNL     1      27.321  23.624  22.921  0.00  0.00    +0.000 A 
ENDBRANCH  13  15
ENDBRANCH   1  14
TORSDOF 2
ENDMDL
MODEL 4
REMARK VINA RESULT:      -6.6     29.210     30.426
REMARK  Name = 
REMARK  2 active torsions:
REMARK  status: ('A' for Active; 'I' for Inactive)
REMARK    1  A    between atoms: C_2  and  C_15
REMARK    2  A    between atoms: N_3  and  N_4
REMARK                            x       y       z     vdW  Elec       q    Type
REMARK                         _______ _______ _______ _____ _____    ______ ____
ROOT
ATOM      1  N   UNL     1      20.431   9.806  38.114  0.00  0.00    +0.000 NA
ATOM      2  C   UNL     1      21.691   9.907  38.076  0.00  0.00    +0.000 C 
ATOM      3  C   UNL     1      22.469  10.308  36.897  0.00  0.00    +0.000 C 
ATOM      4  C   UNL     1      23.411   9.146  36.567  0.00  0.00    +0.000 C 
ATOM      5  C   UNL     1      24.237   8.875  37.802  0.00  0.00    +0.000 C 
ATOM      6  C   UNL     1      25.085  10.071  38.184  0.00  0.00    +0.000 C 
ATOM      7  C   UNL     1      24.103  11.207  38.491  0.00  0.00    +0.000 C 
ATOM      8  C   UNL     1      23.318  11.513  37.255  0.00  0.00    +0.000 C 
ATOM      9  C   UNL     1      23.244  10.844  39.665  0.00  0.00    +0.000 C 
ATOM     10  C   UNL     1      22.459   9.595  39.329  0.00  0.00    +0.000 C 
ATOM     11  C   UNL     1      23.381   8.437  38.972  0.00  0.00    +0.000 C 
ENDROOT
BRANCH   1  14
ATOM     12  O   UNL     1      17.623   9.994  38.095  0.00  0.00    +0.000 OA
ATOM     13  C   UNL     1      18.242  10.167  37.018  0.00  0.00    +0.000 C 
ATOM     14  N   UNL     1      19.653  10.080  36.987  0.00  0.00    +0.000 NA
BRANCH  13  15
ATOM     15  C   UNL     1      17.471  10.455  35.817  0.00  0.00    +0.000 A 
ATOM     16  C   UNL     1      16.336  11.231  35.876  0.00  0.00    +0.000 A 
ATOM     17  C   UNL     1      15.611  11.500  34.739  0.00  0.00    +0.000 A 
ATOM     18  C   UNL     1      16.005  10.998  33.508  0.00  0.00    +0.000 A 
ATOM     19  O   UNL     1      15.278  11.267  32.360  0.00  0.00    +0.000 OA
ATOM     20  C   UNL     1      17.124  10.232  33.448  0.00  0.00    +0.000 A 
ATOM     21  C   UNL     1      17.858   9.955  34.573  0.00  0.00    +0.000 A 
ENDBRANCH  13  15
ENDBRANCH   1  14
TORSDOF 2
ENDMDL
MODEL 5
REMARK VINA RESULT:      -6.6     32.007     34.248
REMARK  Name = 
REMARK  2 active torsions:
REMARK  status: ('A' for Active; 'I' for Inactive)
REMARK    1  A    between atoms: C_2  and  C_15
REMARK    2  A    between atoms: N_3  and  N_4
REMARK                            x       y       z     vdW  Elec       q    Type
REMARK                         _______ _______ _______ _____ _____    ______ ____
ROOT
ATOM      1  N   UNL     1      18.137   9.296  39.630  0.00  0.00    +0.000 NA
ATOM      2  C   UNL     1      17.668   8.880  40.729  0.00  0.00    +0.000 C 
ATOM      3  C   UNL     1      16.296   9.111  41.200  0.00  0.00    +0.000 C 
ATOM      4  C   UNL     1      16.402   9.880  42.521  0.00  0.00    +0.000 C 
ATOM      5  C   UNL     1      17.255   9.054  43.454  0.00  0.00    +0.000 C 
ATOM      6  C   UNL     1      16.626   7.707  43.745  0.00  0.00    +0.000 C 
ATOM      7  C   UNL     1      16.530   6.983  42.398  0.00  0.00    +0.000 C 
ATOM      8  C   UNL     1      15.643   7.773  41.488  0.00  0.00    +0.000 C 
ATOM      9  C   UNL     1      17.901   6.751  41.836  0.00  0.00    +0.000 C 
ATOM     10  C   UNL     1      18.576   8.088  41.627  0.00  0.00    +0.000 C 
ATOM     11  C   UNL     1      18.664   8.878  42.926  0.00  0.00    +0.000 C 
ENDROOT
BRANCH   1  14
ATOM     12  O   UNL     1      18.527   9.434  36.847  0.00  0.00    +0.000 OA
ATOM     13  C   UNL     1      17.579  10.082  37.352  0.00  0.00    +0.000 C 
ATOM     14  N   UNL     1      17.351  10.038  38.747  0.00  0.00    +0.000 NA
BRANCH  13  15
ATOM     15  C   UNL     1      16.733  10.870  36.467  0.00  0.00    +0.000 A 
ATOM     16  C   UNL     1      16.747  10.664  35.107  0.00  0.00    +0.000 A 
ATOM     17  C   UNL     1      15.946  11.411  34.276  0.00  0.00    +0.000 A 
ATOM     18  C   UNL     1      15.105  12.388  34.787  0.00  0.00    +0.000 A 
ATOM     19  O   UNL     1      14.297  13.142  33.954  0.00  0.00    +0.000 OA
ATOM     20  C   UNL     1      15.090  12.593  36.128  0.00  0.00    +0.000 A 
ATOM     21  C   UNL     1      15.883  11.856  36.970  0.00  0.00    +0.000 A 
ENDBRANCH  13  15
ENDBRANCH   1  14
TORSDOF 2
ENDMDL
MODEL 6
REMARK VINA RESULT:      -6.6      9.034     11.206
REMARK  Name = 
REMARK  2 active torsions:
REMARK  status: ('A' for Active; 'I' for Inactive)
REMARK    1  A    between atoms: C_2  and  C_15
REMARK    2  A    between atoms: N_3  and  N_4
REMARK                            x       y       z     vdW  Elec       q    Type
REMARK                         _______ _______ _______ _____ _____    ______ ____
ROOT
ATOM      1  N   UNL     1      30.225  26.445  19.383  0.00  0.00    +0.000 NA
ATOM      2  C   UNL     1      30.287  27.463  18.634  0.00  0.00    +0.000 C 
ATOM      3  C   UNL     1      29.401  28.631  18.725  0.00  0.00    +0.000 C 
ATOM      4  C   UNL     1      28.678  28.748  17.381  0.00  0.00    +0.000 C 
ATOM      5  C   UNL     1      29.738  28.847  16.309  0.00  0.00    +0.000 C 
ATOM      6  C   UNL     1      30.602  30.079  16.485  0.00  0.00    +0.000 C 
ATOM      7  C   UNL     1      31.292  29.921  17.844  0.00  0.00    +0.000 C 
ATOM      8  C   UNL     1      30.247  29.876  18.914  0.00  0.00    +0.000 C 
ATOM      9  C   UNL     1      32.185  28.717  17.835  0.00  0.00    +0.000 C 
ATOM     10  C   UNL     1      31.344  27.488  17.567  0.00  0.00    +0.000 C 
ATOM     11  C   UNL     1      30.596  27.600  16.246  0.00  0.00    +0.000 C 
ENDROOT
BRANCH   1  14
ATOM     12  O   UNL     1      29.724  24.149  20.931  0.00  0.00    +0.000 OA
ATOM     13  C   UNL     1      29.046  25.180  21.152  0.00  0.00    +0.000 C 
ATOM     14  N   UNL     1      29.267  26.354  20.395  0.00  0.00    +0.000 NA
BRANCH  13  15
ATOM     15  C   UNL     1      28.035  25.130  22.199  0.00  0.00    +0.000 A 
ATOM     16  C   UNL     1      27.345  23.969  22.459  0.00  0.00    +0.000 A 
ATOM     17  C   UNL     1      26.391  23.927  23.449  0.00  0.00    +0.000 A 
ATOM     18  C   UNL     1      26.103  25.051  24.208  0.00  0.00    +0.000 A 
ATOM     19  O   UNL     1      25.143  25.013  25.205  0.00  0.00    +0.000 OA
ATOM     20  C   UNL     1      26.782  26.197  23.952  0.00  0.00    +0.000 A 
ATOM     21  C   UNL     1      27.736  26.255  22.969  0.00  0.00    +0.000 A 
ENDBRANCH  13  15
ENDBRANCH   1  14
TORSDOF 2
ENDMDL
MODEL 7
REMARK VINA RESULT:      -6.5     33.344     34.265
REMARK  Name = 
REMARK  2 active torsions:
REMARK  status: ('A' for Active; 'I' for Inactive)
REMARK    1  A    between atoms: C_2  and  C_15
REMARK    2  A    between atoms: N_3  and  N_4
REMARK                            x       y       z     vdW  Elec       q    Type
REMARK                         _______ _______ _______ _____ _____    ______ ____
ROOT
ATOM      1  N   UNL     1      23.716  -9.462  25.186  0.00  0.00    +0.000 NA
ATOM      2  C   UNL     1      24.451  -9.208  24.187  0.00  0.00    +0.000 C 
ATOM      3  C   UNL     1      24.332  -8.017  23.336  0.00  0.00    +0.000 C 
ATOM      4  C   UNL     1      24.044  -8.512  21.915  0.00  0.00    +0.000 C 
ATOM      5  C   UNL     1      25.163  -9.449  21.531  0.00  0.00    +0.000 C 
ATOM      6  C   UNL     1      26.505  -8.746  21.518  0.00  0.00    +0.000 C 
ATOM      7  C   UNL     1      26.743  -8.261  22.952  0.00  0.00    +0.000 C 
ATOM      8  C   UNL     1      25.664  -7.291  23.319  0.00  0.00    +0.000 C 
ATOM      9  C   UNL     1      26.832  -9.430  23.886  0.00  0.00    +0.000 C 
ATOM     10  C   UNL     1      25.528 -10.195  23.837  0.00  0.00    +0.000 C 
ATOM     11  C   UNL     1      25.212 -10.670  22.426  0.00  0.00    +0.000 C 
ENDROOT
BRANCH   1  14
ATOM     12  O   UNL     1      20.990 -10.137  25.342  0.00  0.00    +0.000 OA
ATOM     13  C   UNL     1      21.335  -8.968  25.635  0.00  0.00    +0.000 C 
ATOM     14  N   UNL     1      22.696  -8.590  25.568  0.00  0.00    +0.000 NA
BRANCH  13  15
ATOM     15  C   UNL     1      20.303  -8.024  26.039  0.00  0.00    +0.000 A 
ATOM     16  C   UNL     1      20.353  -6.708  25.641  0.00  0.00    +0.000 A 
ATOM     17  C   UNL     1      19.376  -5.820  26.025  0.00  0.00    +0.000 A 
ATOM     18  C   UNL     1      18.318  -6.228  26.823  0.00  0.00    +0.000 A 
ATOM     19  O   UNL     1      17.332  -5.338  27.212  0.00  0.00    +0.000 OA
ATOM     20  C   UNL     1      18.266  -7.525  27.217  0.00  0.00    +0.000 A 
ATOM     21  C   UNL     1      19.233  -8.423  26.841  0.00  0.00    +0.000 A 
ENDBRANCH  13  15
ENDBRANCH   1  14
TORSDOF 2
ENDMDL
MODEL 8
REMARK VINA RESULT:      -6.4     10.320     12.879
REMARK  Name = 
REMARK  2 active torsions:
REMARK  status: ('A' for Active; 'I' for Inactive)
REMARK    1  A    between atoms: C_2  and  C_15
REMARK    2  A    between atoms: N_3  and  N_4
REMARK                            x       y       z     vdW  Elec       q    Type
REMARK                         _______ _______ _______ _____ _____    ______ ____
ROOT
ATOM      1  N   UNL     1      29.259  23.991  21.721  0.00  0.00    +0.000 NA
ATOM      2  C   UNL     1      29.489  24.003  22.966  0.00  0.00    +0.000 C 
ATOM      3  C   UNL     1      30.285  25.020  23.666  0.00  0.00    +0.000 C 
ATOM      4  C   UNL     1      31.460  24.291  24.324  0.00  0.00    +0.000 C 
ATOM      5  C   UNL     1      30.879  23.222  25.220  0.00  0.00    +0.000 C 
ATOM      6  C   UNL     1      30.021  23.815  26.318  0.00  0.00    +0.000 C 
ATOM      7  C   UNL     1      28.871  24.541  25.612  0.00  0.00    +0.000 C 
ATOM      8  C   UNL     1      29.439  25.635  24.764  0.00  0.00    +0.000 C 
ATOM      9  C   UNL     1      28.038  23.563  24.840  0.00  0.00    +0.000 C 
ATOM     10  C   UNL     1      28.908  22.896  23.798  0.00  0.00    +0.000 C 
ATOM     11  C   UNL     1      30.098  22.189  24.435  0.00  0.00    +0.000 C 
ENDROOT
BRANCH   1  14
ATOM     12  O   UNL     1      28.029  26.475  21.239  0.00  0.00    +0.000 OA
ATOM     13  C   UNL     1      29.118  26.226  20.670  0.00  0.00    +0.000 C 
ATOM     14  N   UNL     1      29.767  24.988  20.887  0.00  0.00    +0.000 NA
BRANCH  13  15
ATOM     15  C   UNL     1      29.685  27.238  19.790  0.00  0.00    +0.000 A 
ATOM     16  C   UNL     1      29.615  28.574  20.112  0.00  0.00    +0.000 A 
ATOM     17  C   UNL     1      30.152  29.526  19.278  0.00  0.00    +0.000 A 
ATOM     18  C   UNL     1      30.775  29.164  18.093  0.00  0.00    +0.000 A 
ATOM     19  O   UNL     1      31.316  30.119  17.250  0.00  0.00    +0.000 OA
ATOM     20  C   UNL     1      30.844  27.848  17.773  0.00  0.00    +0.000 A 
ATOM     21  C   UNL     1      30.314  26.886  18.595  0.00  0.00    +0.000 A 
ENDBRANCH  13  15
ENDBRANCH   1  14
TORSDOF 2
ENDMDL
MODEL 9
REMARK VINA RESULT:      -6.4     13.134     15.656
REMARK  Name = 
REMARK  2 active torsions:
REMARK  status: ('A' for Active; 'I' for Inactive)
REMARK    1  A    between atoms: C_2  and  C_15
REMARK    2  A    between atoms: N_3  and  N_4
REMARK                            x       y       z     vdW  Elec       q    Type
REMARK                         _______ _______ _______ _____ _____    ______ ____
ROOT
ATOM      1  N   UNL     1      29.569  22.813  23.923  0.00  0.00    +0.000 NA
ATOM      2  C   UNL     1      29.114  23.892  23.446  0.00  0.00    +0.000 C 
ATOM      3  C   UNL     1      29.103  25.184  24.145  0.00  0.00    +0.000 C 
ATOM      4  C   UNL     1      27.638  25.617  24.257  0.00  0.00    +0.000 C 
ATOM      5  C   UNL     1      27.074  25.657  22.857  0.00  0.00    +0.000 C 
ATOM      6  C   UNL     1      27.796  26.667  21.989  0.00  0.00    +0.000 C 
ATOM      7  C   UNL     1      29.253  26.199  21.917  0.00  0.00    +0.000 C 
ATOM      8  C   UNL     1      29.832  26.208  23.297  0.00  0.00    +0.000 C 
ATOM      9  C   UNL     1      29.334  24.860  21.248  0.00  0.00    +0.000 C 
ATOM     10  C   UNL     1      28.538  23.861  22.058  0.00  0.00    +0.000 C 
ATOM     11  C   UNL     1      27.085  24.291  22.203  0.00  0.00    +0.000 C 
ENDROOT
BRANCH   1  14
ATOM     12  O   UNL     1      28.129  22.272  26.279  0.00  0.00    +0.000 OA
ATOM     13  C   UNL     1      29.361  22.493  26.367  0.00  0.00    +0.000 C 
ATOM     14  N   UNL     1      30.118  22.769  25.205  0.00  0.00    +0.000 NA
BRANCH  13  15
ATOM     15  C   UNL     1      29.976  22.458  27.686  0.00  0.00    +0.000 A 
ATOM     16  C   UNL     1      31.283  22.060  27.845  0.00  0.00    +0.000 A 
ATOM     17  C   UNL     1      31.860  22.028  29.093  0.00  0.00    +0.000 A 
ATOM     18  C   UNL     1      31.140  22.395  30.220  0.00  0.00    +0.000 A 
ATOM     19  O   UNL     1      31.717  22.364  31.478  0.00  0.00    +0.000 OA
ATOM     20  C   UNL     1      29.850  22.786  30.065  0.00  0.00    +0.000 A 
ATOM     21  C   UNL     1      29.261  22.824  28.827  0.00  0.00    +0.000 A 
ENDBRANCH  13  15
ENDBRANCH   1  14
TORSDOF 2
ENDMDL
MODEL 10
REMARK VINA RESULT:      -6.3     19.446     20.318
REMARK  Name = 
REMARK  2 active torsions:
REMARK  status: ('A' for Active; 'I' for Inactive)
REMARK    1  A    between atoms: C_2  and  C_15
REMARK    2  A    between atoms: N_3  and  N_4
REMARK                            x       y       z     vdW  Elec       q    Type
REMARK                         _______ _______ _______ _____ _____    ______ ____
ROOT
ATOM      1  N   UNL     1      26.033   3.170  17.105  0.00  0.00    +0.000 NA
ATOM      2  C   UNL     1      26.504   4.320  16.864  0.00  0.00    +0.000 C 
ATOM      3  C   UNL     1      25.726   5.460  16.361  0.00  0.00    +0.000 C 
ATOM      4  C   UNL     1      26.347   5.866  15.021  0.00  0.00    +0.000 C 
ATOM      5  C   UNL     1      27.805   6.163  15.275  0.00  0.00    +0.000 C 
ATOM      6  C   UNL     1      27.984   7.316  16.242  0.00  0.00    +0.000 C 
ATOM      7  C   UNL     1      27.339   6.869  17.558  0.00  0.00    +0.000 C 
ATOM      8  C   UNL     1      25.882   6.623  17.322  0.00  0.00    +0.000 C 
ATOM      9  C   UNL     1      28.061   5.676  18.108  0.00  0.00    +0.000 C 
ATOM     10  C   UNL     1      27.969   4.545  17.109  0.00  0.00    +0.000 C 
ATOM     11  C   UNL     1      28.556   4.941  15.761  0.00  0.00    +0.000 C 
ENDROOT
BRANCH   1  14
ATOM     12  O   UNL     1      24.191   2.535  19.135  0.00  0.00    +0.000 OA
ATOM     13  C   UNL     1      23.785   2.574  17.950  0.00  0.00    +0.000 C 
ATOM     14  N   UNL     1      24.680   2.890  16.901  0.00  0.00    +0.000 NA
BRANCH  13  15
ATOM     15  C   UNL     1      22.381   2.288  17.691  0.00  0.00    +0.000 A 
ATOM     16  C   UNL     1      21.391   3.111  18.176  0.00  0.00    +0.000 A 
ATOM     17  C   UNL     1      20.066   2.836  17.929  0.00  0.00    +0.000 A 
ATOM     18  C   UNL     1      19.697   1.726  17.185  0.00  0.00    +0.000 A 
ATOM     19  O   UNL     1      18.364   1.445  16.934  0.00  0.00    +0.000 OA
ATOM     20  C   UNL     1      20.671   0.913  16.706  0.00  0.00    +0.000 A 
ATOM     21  C   UNL     1      21.997   1.174  16.944  0.00  0.00    +0.000 A 
ENDBRANCH  13  15
ENDBRANCH   1  14
TORSDOF 2
ENDMDL
