MODEL 1
REMARK VINA RESULT:      -7.9      0.000      0.000
REMARK  Name = 
REMARK  0 active torsions:
REMARK  status: ('A' for Active; 'I' for Inactive)
REMARK                            x       y       z     vdW  Elec       q    Type
REMARK                         _______ _______ _______ _____ _____    ______ ____
ROOT
ATOM      1  C   UNL     1      29.046  22.509  30.934  0.00  0.00    +0.000 C 
ATOM      2  C   UNL     1      29.765  22.546  29.618  0.00  0.00    +0.000 C 
ATOM      3  C   UNL     1      28.275  22.672  29.503  0.00  0.00    +0.000 C 
ATOM      4  C   UNL     1      27.635  22.819  28.154  0.00  0.00    +0.000 C 
ATOM      5  C   UNL     1      28.488  22.840  26.920  0.00  0.00    +0.000 C 
ATOM      6  C   UNL     1      27.849  22.987  25.570  0.00  0.00    +0.000 A 
ATOM      7  C   UNL     1      26.359  23.114  25.455  0.00  0.00    +0.000 A 
ATOM      8  C   UNL     1      25.720  23.261  24.106  0.00  0.00    +0.000 A 
ATOM      9  C   UNL     1      26.572  23.281  22.871  0.00  0.00    +0.000 A 
ATOM     10  O   UNL     1      25.934  23.428  21.522  0.00  0.00    +0.000 OA
ATOM     11  C   UNL     1      28.063  23.155  22.987  0.00  0.00    +0.000 A 
ATOM     12  C   UNL     1      28.701  23.008  24.336  0.00  0.00    +0.000 A 
ATOM     13  C   UNL     1      30.191  22.881  24.451  0.00  0.00    +0.000 C 
ATOM     14  C   UNL     1      30.830  22.734  25.800  0.00  0.00    +0.000 C 
ATOM     15  C   UNL     1      29.978  22.714  27.034  0.00  0.00    +0.000 C 
ATOM     16  C   UNL     1      30.616  22.566  28.384  0.00  0.00    +0.000 C 
ATOM     17  C   UNL     1      32.048  22.423  28.806  0.00  0.00    +0.000 C 
ATOM     18  C   UNL     1      32.081  22.313  30.302  0.00  0.00    +0.000 C 
ATOM     19  O   UNL     1      33.311  22.155  31.147  0.00  0.00    +0.000 OA
ATOM     20  C   UNL     1      30.670  22.389  30.804  0.00  0.00    +0.000 C 
ATOM     21  O   UNL     1      30.239  22.321  32.239  0.00  0.00    +0.000 OA
ENDROOT
TORSDOF 0
ENDMDL
MODEL 2
REMARK VINA RESULT:      -7.9      1.257      6.866
REMARK  Name = 
REMARK  0 active torsions:
REMARK  status: ('A' for Active; 'I' for Inactive)
REMARK                            x       y       z     vdW  Elec       q    Type
REMARK                         _______ _______ _______ _____ _____    ______ ____
ROOT
ATOM      1  C   UNL     1      26.498  23.315  23.528  0.00  0.00    +0.000 C 
ATOM      2  C   UNL     1      27.883  23.421  24.096  0.00  0.00    +0.000 C 
ATOM      3  C   UNL     1      26.835  23.062  25.106  0.00  0.00    +0.000 C 
ATOM      4  C   UNL     1      27.219  22.845  26.541  0.00  0.00    +0.000 C 
ATOM      5  C   UNL     1      28.651  22.988  26.962  0.00  0.00    +0.000 C 
ATOM      6  C   UNL     1      29.036  22.771  28.397  0.00  0.00    +0.000 A 
ATOM      7  C   UNL     1      27.988  22.412  29.407  0.00  0.00    +0.000 A 
ATOM      8  C   UNL     1      28.372  22.195  30.842  0.00  0.00    +0.000 A 
ATOM      9  C   UNL     1      29.804  22.337  31.263  0.00  0.00    +0.000 A 
ATOM     10  O   UNL     1      30.189  22.120  32.697  0.00  0.00    +0.000 OA
ATOM     11  C   UNL     1      30.852  22.696  30.252  0.00  0.00    +0.000 A 
ATOM     12  C   UNL     1      30.468  22.913  28.818  0.00  0.00    +0.000 A 
ATOM     13  C   UNL     1      31.516  23.272  27.807  0.00  0.00    +0.000 C 
ATOM     14  C   UNL     1      31.132  23.488  26.373  0.00  0.00    +0.000 C 
ATOM     15  C   UNL     1      29.699  23.346  25.952  0.00  0.00    +0.000 C 
ATOM     16  C   UNL     1      29.315  23.563  24.517  0.00  0.00    +0.000 C 
ATOM     17  C   UNL     1      30.121  23.923  23.306  0.00  0.00    +0.000 C 
ATOM     18  C   UNL     1      29.188  24.004  22.135  0.00  0.00    +0.000 C 
ATOM     19  O   UNL     1      29.571  24.336  20.723  0.00  0.00    +0.000 OA
ATOM     20  C   UNL     1      27.804  23.693  22.622  0.00  0.00    +0.000 C 
ATOM     21  O   UNL     1      26.560  23.661  21.785  0.00  0.00    +0.000 OA
ENDROOT
TORSDOF 0
ENDMDL
MODEL 3
REMARK VINA RESULT:      -7.8     31.723     32.142
REMARK  Name = 
REMARK  0 active torsions:
REMARK  status: ('A' for Active; 'I' for Inactive)
REMARK                            x       y       z     vdW  Elec       q    Type
REMARK                         _______ _______ _______ _____ _____    ______ ____
ROOT
ATOM      1  C   UNL     1      18.869  -5.781  26.317  0.00  0.00    +0.000 C 
ATOM      2  C   UNL     1      19.599  -7.092  26.322  0.00  0.00    +0.000 C 
ATOM      3  C   UNL     1      20.331  -5.987  25.620  0.00  0.00    +0.000 C 
ATOM      4  C   UNL     1      21.673  -6.250  25.002  0.00  0.00    +0.000 C 
ATOM      5  C   UNL     1      22.281  -7.619  25.087  0.00  0.00    +0.000 C 
ATOM      6  C   UNL     1      23.623  -7.883  24.469  0.00  0.00    +0.000 A 
ATOM      7  C   UNL     1      24.355  -6.779  23.767  0.00  0.00    +0.000 A 
ATOM      8  C   UNL     1      25.697  -7.042  23.149  0.00  0.00    +0.000 A 
ATOM      9  C   UNL     1      26.305  -8.411  23.234  0.00  0.00    +0.000 A 
ATOM     10  O   UNL     1      27.646  -8.675  22.617  0.00  0.00    +0.000 OA
ATOM     11  C   UNL     1      25.571  -9.516  23.936  0.00  0.00    +0.000 A 
ATOM     12  C   UNL     1      24.230  -9.251  24.554  0.00  0.00    +0.000 A 
ATOM     13  C   UNL     1      23.497 -10.356  25.256  0.00  0.00    +0.000 C 
ATOM     14  C   UNL     1      22.156 -10.093  25.873  0.00  0.00    +0.000 C 
ATOM     15  C   UNL     1      21.548  -8.724  25.788  0.00  0.00    +0.000 C 
ATOM     16  C   UNL     1      20.206  -8.460  26.406  0.00  0.00    +0.000 C 
ATOM     17  C   UNL     1      19.256  -9.344  27.156  0.00  0.00    +0.000 C 
ATOM     18  C   UNL     1      18.060  -8.522  27.536  0.00  0.00    +0.000 C 
ATOM     19  O   UNL     1      16.862  -9.008  28.298  0.00  0.00    +0.000 OA
ATOM     20  C   UNL     1      18.271  -7.130  27.020  0.00  0.00    +0.000 C 
ATOM     21  O   UNL     1      17.323  -5.978  27.175  0.00  0.00    +0.000 OA
ENDROOT
TORSDOF 0
ENDMDL
MODEL 4
REMARK VINA RESULT:      -7.6     31.750     32.148
REMARK  Name = 
REMARK  0 active torsions:
REMARK  status: ('A' for Active; 'I' for Inactive)
REMARK                            x       y       z     vdW  Elec       q    Type
REMARK                         _______ _______ _______ _____ _____    ______ ____
ROOT
ATOM      1  C   UNL     1      19.227  -9.458  27.468  0.00  0.00    +0.000 C 
ATOM      2  C   UNL     1      19.875  -8.372  26.660  0.00  0.00    +0.000 C 
ATOM      3  C   UNL     1      20.673  -9.639  26.732  0.00  0.00    +0.000 C 
ATOM      4  C   UNL     1      21.996  -9.734  26.028  0.00  0.00    +0.000 C 
ATOM      5  C   UNL     1      22.518  -8.559  25.255  0.00  0.00    +0.000 C 
ATOM      6  C   UNL     1      23.840  -8.653  24.551  0.00  0.00    +0.000 A 
ATOM      7  C   UNL     1      24.638  -9.920  24.622  0.00  0.00    +0.000 A 
ATOM      8  C   UNL     1      25.961 -10.014  23.919  0.00  0.00    +0.000 A 
ATOM      9  C   UNL     1      26.483  -8.840  23.145  0.00  0.00    +0.000 A 
ATOM     10  O   UNL     1      27.804  -8.933  22.442  0.00  0.00    +0.000 OA
ATOM     11  C   UNL     1      25.684  -7.573  23.075  0.00  0.00    +0.000 A 
ATOM     12  C   UNL     1      24.362  -7.479  23.778  0.00  0.00    +0.000 A 
ATOM     13  C   UNL     1      23.563  -6.212  23.707  0.00  0.00    +0.000 C 
ATOM     14  C   UNL     1      22.241  -6.118  24.410  0.00  0.00    +0.000 C 
ATOM     15  C   UNL     1      21.719  -7.292  25.184  0.00  0.00    +0.000 C 
ATOM     16  C   UNL     1      20.397  -7.199  25.887  0.00  0.00    +0.000 C 
ATOM     17  C   UNL     1      19.394  -6.089  25.995  0.00  0.00    +0.000 C 
ATOM     18  C   UNL     1      18.252  -6.577  26.836  0.00  0.00    +0.000 C 
ATOM     19  O   UNL     1      17.027  -5.790  27.201  0.00  0.00    +0.000 OA
ATOM     20  C   UNL     1      18.548  -7.988  27.247  0.00  0.00    +0.000 C 
ATOM     21  O   UNL     1      17.673  -8.862  28.096  0.00  0.00    +0.000 OA
ENDROOT
TORSDOF 0
ENDMDL
MODEL 5
REMARK VINA RESULT:      -7.6      1.180      7.388
REMARK  Name = 
REMARK  0 active torsions:
REMARK  status: ('A' for Active; 'I' for Inactive)
REMARK                            x       y       z     vdW  Elec       q    Type
REMARK                         _______ _______ _______ _____ _____    ______ ____
ROOT
ATOM      1  C   UNL     1      29.372  23.008  23.699  0.00  0.00    +0.000 C 
ATOM      2  C   UNL     1      28.727  22.941  25.052  0.00  0.00    +0.000 C 
ATOM      3  C   UNL     1      30.219  22.792  25.079  0.00  0.00    +0.000 C 
ATOM      4  C   UNL     1      30.930  22.596  26.385  0.00  0.00    +0.000 C 
ATOM      5  C   UNL     1      30.147  22.550  27.664  0.00  0.00    +0.000 C 
ATOM      6  C   UNL     1      30.858  22.354  28.972  0.00  0.00    +0.000 A 
ATOM      7  C   UNL     1      32.349  22.205  28.999  0.00  0.00    +0.000 A 
ATOM      8  C   UNL     1      33.061  22.009  30.306  0.00  0.00    +0.000 A 
ATOM      9  C   UNL     1      32.278  21.963  31.584  0.00  0.00    +0.000 A 
ATOM     10  O   UNL     1      32.988  21.767  32.891  0.00  0.00    +0.000 OA
ATOM     11  C   UNL     1      30.785  22.113  31.557  0.00  0.00    +0.000 A 
ATOM     12  C   UNL     1      30.076  22.308  30.250  0.00  0.00    +0.000 A 
ATOM     13  C   UNL     1      28.583  22.458  30.222  0.00  0.00    +0.000 C 
ATOM     14  C   UNL     1      27.873  22.654  28.916  0.00  0.00    +0.000 C 
ATOM     15  C   UNL     1      28.655  22.700  27.637  0.00  0.00    +0.000 C 
ATOM     16  C   UNL     1      27.945  22.895  26.330  0.00  0.00    +0.000 C 
ATOM     17  C   UNL     1      26.495  23.071  25.993  0.00  0.00    +0.000 C 
ATOM     18  C   UNL     1      26.380  23.225  24.505  0.00  0.00    +0.000 C 
ATOM     19  O   UNL     1      25.108  23.425  23.735  0.00  0.00    +0.000 OA
ATOM     20  C   UNL     1      27.760  23.145  23.923  0.00  0.00    +0.000 C 
ATOM     21  O   UNL     1      28.111  23.251  22.468  0.00  0.00    +0.000 OA
ENDROOT
TORSDOF 0
ENDMDL
MODEL 6
REMARK VINA RESULT:      -7.6     21.548     23.674
REMARK  Name = 
REMARK  0 active torsions:
REMARK  status: ('A' for Active; 'I' for Inactive)
REMARK                            x       y       z     vdW  Elec       q    Type
REMARK                         _______ _______ _______ _____ _____    ______ ____
ROOT
ATOM      1  C   UNL     1      34.085  -1.716  36.954  0.00  0.00    +0.000 C 
ATOM      2  C   UNL     1      33.919  -0.738  35.828  0.00  0.00    +0.000 C 
ATOM      3  C   UNL     1      34.130  -0.097  37.167  0.00  0.00    +0.000 C 
ATOM      4  C   UNL     1      34.159   1.398  37.287  0.00  0.00    +0.000 C 
ATOM      5  C   UNL     1      33.978   2.251  36.067  0.00  0.00    +0.000 C 
ATOM      6  C   UNL     1      34.007   3.747  36.186  0.00  0.00    +0.000 A 
ATOM      7  C   UNL     1      34.218   4.388  37.525  0.00  0.00    +0.000 A 
ATOM      8  C   UNL     1      34.247   5.884  37.645  0.00  0.00    +0.000 A 
ATOM      9  C   UNL     1      34.066   6.736  36.424  0.00  0.00    +0.000 A 
ATOM     10  O   UNL     1      34.095   8.231  36.543  0.00  0.00    +0.000 OA
ATOM     11  C   UNL     1      33.855   6.094  35.085  0.00  0.00    +0.000 A 
ATOM     12  C   UNL     1      33.826   4.600  34.966  0.00  0.00    +0.000 A 
ATOM     13  C   UNL     1      33.615   3.958  33.626  0.00  0.00    +0.000 C 
ATOM     14  C   UNL     1      33.586   2.463  33.507  0.00  0.00    +0.000 C 
ATOM     15  C   UNL     1      33.767   1.610  34.727  0.00  0.00    +0.000 C 
ATOM     16  C   UNL     1      33.738   0.115  34.608  0.00  0.00    +0.000 C 
ATOM     17  C   UNL     1      33.550  -0.794  33.431  0.00  0.00    +0.000 C 
ATOM     18  C   UNL     1      33.615  -2.210  33.923  0.00  0.00    +0.000 C 
ATOM     19  O   UNL     1      33.476  -3.443  33.080  0.00  0.00    +0.000 OA
ATOM     20  C   UNL     1      33.843  -2.175  35.405  0.00  0.00    +0.000 C 
ATOM     21  O   UNL     1      33.973  -3.368  36.305  0.00  0.00    +0.000 OA
ENDROOT
TORSDOF 0
ENDMDL
MODEL 7
REMARK VINA RESULT:      -7.4     22.840     24.866
REMARK  Name = 
REMARK  0 active torsions:
REMARK  status: ('A' for Active; 'I' for Inactive)
REMARK                            x       y       z     vdW  Elec       q    Type
REMARK                         _______ _______ _______ _____ _____    ______ ____
ROOT
ATOM      1  C   UNL     1      33.534   3.720  33.606  0.00  0.00    +0.000 C 
ATOM      2  C   UNL     1      33.733   2.800  34.775  0.00  0.00    +0.000 C 
ATOM      3  C   UNL     1      33.540   2.093  33.466  0.00  0.00    +0.000 C 
ATOM      4  C   UNL     1      33.559   0.593  33.414  0.00  0.00    +0.000 C 
ATOM      5  C   UNL     1      33.770  -0.197  34.671  0.00  0.00    +0.000 C 
ATOM      6  C   UNL     1      33.788  -1.697  34.620  0.00  0.00    +0.000 A 
ATOM      7  C   UNL     1      33.595  -2.404  33.312  0.00  0.00    +0.000 A 
ATOM      8  C   UNL     1      33.613  -3.904  33.259  0.00  0.00    +0.000 A 
ATOM      9  C   UNL     1      33.824  -4.695  34.516  0.00  0.00    +0.000 A 
ATOM     10  O   UNL     1      33.843  -6.193  34.465  0.00  0.00    +0.000 OA
ATOM     11  C   UNL     1      34.017  -3.986  35.825  0.00  0.00    +0.000 A 
ATOM     12  C   UNL     1      33.999  -2.488  35.876  0.00  0.00    +0.000 A 
ATOM     13  C   UNL     1      34.192  -1.780  37.185  0.00  0.00    +0.000 C 
ATOM     14  C   UNL     1      34.173  -0.281  37.237  0.00  0.00    +0.000 C 
ATOM     15  C   UNL     1      33.962   0.510  35.979  0.00  0.00    +0.000 C 
ATOM     16  C   UNL     1      33.944   2.009  36.031  0.00  0.00    +0.000 C 
ATOM     17  C   UNL     1      34.105   2.976  37.166  0.00  0.00    +0.000 C 
ATOM     18  C   UNL     1      33.993   4.365  36.610  0.00  0.00    +0.000 C 
ATOM     19  O   UNL     1      34.094   5.640  37.396  0.00  0.00    +0.000 OA
ATOM     20  C   UNL     1      33.764   4.257  35.132  0.00  0.00    +0.000 C 
ATOM     21  O   UNL     1      33.594   5.403  34.179  0.00  0.00    +0.000 OA
ENDROOT
TORSDOF 0
ENDMDL
MODEL 8
REMARK VINA RESULT:      -7.4     19.999     22.130
REMARK  Name = 
REMARK  0 active torsions:
REMARK  status: ('A' for Active; 'I' for Inactive)
REMARK                            x       y       z     vdW  Elec       q    Type
REMARK                         _______ _______ _______ _____ _____    ______ ____
ROOT
ATOM      1  C   UNL     1      34.527   5.632  38.940  0.00  0.00    +0.000 C 
ATOM      2  C   UNL     1      34.300   5.432  37.470  0.00  0.00    +0.000 C 
ATOM      3  C   UNL     1      34.394   4.156  38.252  0.00  0.00    +0.000 C 
ATOM      4  C   UNL     1      34.262   2.835  37.553  0.00  0.00    +0.000 C 
ATOM      5  C   UNL     1      34.035   2.793  36.070  0.00  0.00    +0.000 C 
ATOM      6  C   UNL     1      33.903   1.472  35.370  0.00  0.00    +0.000 A 
ATOM      7  C   UNL     1      33.997   0.196  36.152  0.00  0.00    +0.000 A 
ATOM      8  C   UNL     1      33.865  -1.125  35.452  0.00  0.00    +0.000 A 
ATOM      9  C   UNL     1      33.639  -1.167  33.970  0.00  0.00    +0.000 A 
ATOM     10  O   UNL     1      33.507  -2.487  33.270  0.00  0.00    +0.000 OA
ATOM     11  C   UNL     1      33.545   0.109  33.188  0.00  0.00    +0.000 A 
ATOM     12  C   UNL     1      33.677   1.429  33.888  0.00  0.00    +0.000 A 
ATOM     13  C   UNL     1      33.583   2.706  33.106  0.00  0.00    +0.000 C 
ATOM     14  C   UNL     1      33.715   4.026  33.806  0.00  0.00    +0.000 C 
ATOM     15  C   UNL     1      33.941   4.069  35.288  0.00  0.00    +0.000 C 
ATOM     16  C   UNL     1      34.073   5.389  35.989  0.00  0.00    +0.000 C 
ATOM     17  C   UNL     1      34.024   6.801  35.486  0.00  0.00    +0.000 C 
ATOM     18  C   UNL     1      34.220   7.717  36.657  0.00  0.00    +0.000 C 
ATOM     19  O   UNL     1      34.242   9.217  36.609  0.00  0.00    +0.000 OA
ATOM     20  C   UNL     1      34.391   6.872  37.884  0.00  0.00    +0.000 C 
ATOM     21  O   UNL     1      34.613   7.376  39.279  0.00  0.00    +0.000 OA
ENDROOT
TORSDOF 0
ENDMDL
MODEL 9
REMARK VINA RESULT:      -7.3      3.156      7.302
REMARK  Name = 
REMARK  0 active torsions:
REMARK  status: ('A' for Active; 'I' for Inactive)
REMARK                            x       y       z     vdW  Elec       q    Type
REMARK                         _______ _______ _______ _____ _____    ______ ____
ROOT
ATOM      1  C   UNL     1      27.013  27.408  22.321  0.00  0.00    +0.000 C 
ATOM      2  C   UNL     1      27.659  26.165  22.859  0.00  0.00    +0.000 C 
ATOM      3  C   UNL     1      26.675  26.797  23.798  0.00  0.00    +0.000 C 
ATOM      4  C   UNL     1      26.415  26.179  25.140  0.00  0.00    +0.000 C 
ATOM      5  C   UNL     1      27.140  24.929  25.542  0.00  0.00    +0.000 C 
ATOM      6  C   UNL     1      26.881  24.310  26.884  0.00  0.00    +0.000 A 
ATOM      7  C   UNL     1      25.897  24.942  27.823  0.00  0.00    +0.000 A 
ATOM      8  C   UNL     1      25.636  24.324  29.166  0.00  0.00    +0.000 A 
ATOM      9  C   UNL     1      26.362  23.074  29.568  0.00  0.00    +0.000 A 
ATOM     10  O   UNL     1      26.102  22.456  30.909  0.00  0.00    +0.000 OA
ATOM     11  C   UNL     1      27.346  22.443  28.628  0.00  0.00    +0.000 A 
ATOM     12  C   UNL     1      27.605  23.061  27.287  0.00  0.00    +0.000 A 
ATOM     13  C   UNL     1      28.590  22.429  26.347  0.00  0.00    +0.000 C 
ATOM     14  C   UNL     1      28.850  23.047  25.006  0.00  0.00    +0.000 C 
ATOM     15  C   UNL     1      28.124  24.297  24.604  0.00  0.00    +0.000 C 
ATOM     16  C   UNL     1      28.384  24.916  23.261  0.00  0.00    +0.000 C 
ATOM     17  C   UNL     1      29.291  24.522  22.134  0.00  0.00    +0.000 C 
ATOM     18  C   UNL     1      29.127  25.529  21.034  0.00  0.00    +0.000 C 
ATOM     19  O   UNL     1      29.845  25.521  19.717  0.00  0.00    +0.000 OA
ATOM     20  C   UNL     1      28.118  26.545  21.482  0.00  0.00    +0.000 C 
ATOM     21  O   UNL     1      27.651  27.732  20.692  0.00  0.00    +0.000 OA
ENDROOT
TORSDOF 0
ENDMDL
MODEL 10
REMARK VINA RESULT:      -7.2      3.332      4.472
REMARK  Name = 
REMARK  0 active torsions:
REMARK  status: ('A' for Active; 'I' for Inactive)
REMARK                            x       y       z     vdW  Elec       q    Type
REMARK                         _______ _______ _______ _____ _____    ______ ____
ROOT
ATOM      1  C   UNL     1      25.263  25.937  28.587  0.00  0.00    +0.000 C 
ATOM      2  C   UNL     1      26.140  24.916  27.924  0.00  0.00    +0.000 C 
ATOM      3  C   UNL     1      25.889  26.139  27.092  0.00  0.00    +0.000 C 
ATOM      4  C   UNL     1      26.498  26.255  25.725  0.00  0.00    +0.000 C 
ATOM      5  C   UNL     1      27.358  25.147  25.192  0.00  0.00    +0.000 C 
ATOM      6  C   UNL     1      27.967  25.262  23.826  0.00  0.00    +0.000 A 
ATOM      7  C   UNL     1      27.716  26.485  22.994  0.00  0.00    +0.000 A 
ATOM      8  C   UNL     1      28.326  26.601  21.628  0.00  0.00    +0.000 A 
ATOM      9  C   UNL     1      29.185  25.493  21.095  0.00  0.00    +0.000 A 
ATOM     10  O   UNL     1      29.795  25.608  19.729  0.00  0.00    +0.000 OA
ATOM     11  C   UNL     1      29.436  24.271  21.927  0.00  0.00    +0.000 A 
ATOM     12  C   UNL     1      28.827  24.156  23.293  0.00  0.00    +0.000 A 
ATOM     13  C   UNL     1      29.078  22.933  24.125  0.00  0.00    +0.000 C 
ATOM     14  C   UNL     1      28.469  22.817  25.491  0.00  0.00    +0.000 C 
ATOM     15  C   UNL     1      27.609  23.925  26.024  0.00  0.00    +0.000 C 
ATOM     16  C   UNL     1      26.999  23.810  27.391  0.00  0.00    +0.000 C 
ATOM     17  C   UNL     1      27.068  22.733  28.432  0.00  0.00    +0.000 C 
ATOM     18  C   UNL     1      26.251  23.175  29.610  0.00  0.00    +0.000 C 
ATOM     19  O   UNL     1      26.044  22.402  30.879  0.00  0.00    +0.000 OA
ATOM     20  C   UNL     1      25.677  24.524  29.296  0.00  0.00    +0.000 C 
ATOM     21  O   UNL     1      24.795  25.339  30.195  0.00  0.00    +0.000 OA
ENDROOT
TORSDOF 0
ENDMDL
