MODEL 1
REMARK VINA RESULT:      -5.7      0.000      0.000
REMARK  Name = 
REMARK  5 active torsions:
REMARK  status: ('A' for Active; 'I' for Inactive)
REMARK    1  A    between atoms: C_2  and  O_3
REMARK    2  A    between atoms: O_3  and  C_4
REMARK    3  A    between atoms: C_4  and  C_6
REMARK    4  A    between atoms: C_7  and  C_8
REMARK    5  A    between atoms: C_14  and  C_15
REMARK                            x       y       z     vdW  Elec       q    Type
REMARK                         _______ _______ _______ _____ _____    ______ ____
ROOT
ATOM      1  C   UNL     1      27.695  24.214  25.077  0.00  0.00    +0.000 C 
ATOM      2  C   UNL     1      27.837  24.573  23.831  0.00  0.00    +0.000 C 
ATOM      3  N   UNL     1      27.028  24.130  22.754  0.00  0.00    +0.000 NA
ATOM      4  C   UNL     1      26.000  23.209  23.148  0.00  0.00    +0.000 C 
ATOM      5  O   UNL     1      25.204  22.744  22.256  0.00  0.00    +0.000 OA
ATOM      6  N   UNL     1      25.843  22.808  24.451  0.00  0.00    +0.000 NA
ATOM      7  C   UNL     1      26.537  23.364  25.604  0.00  0.00    +0.000 C 
ENDROOT
BRANCH   7   8
ATOM      8  C   UNL     1      25.562  24.482  26.052  0.00  0.00    +0.000 A 
ATOM      9  C   UNL     1      25.048  25.264  25.072  0.00  0.00    +0.000 A 
ATOM     10  C   UNL     1      24.154  26.310  25.380  0.00  0.00    +0.000 A 
ATOM     11  C   UNL     1      23.820  26.515  26.682  0.00  0.00    +0.000 A 
ATOM     12  C   UNL     1      24.325  25.742  27.677  0.00  0.00    +0.000 A 
ATOM     13  C   UNL     1      25.202  24.721  27.342  0.00  0.00    +0.000 A 
ATOM     14  O   UNL     1      25.736  23.913  28.329  0.00  0.00    +0.000 OA
ENDBRANCH   7   8
BRANCH   1  15
ATOM     15  C   UNL     1      28.666  24.706  26.043  0.00  0.00    +0.000 C 
ATOM     16  O   UNL     1      28.478  25.790  26.615  0.00  0.00    +0.000 OA
BRANCH  15  17
ATOM     17  O   UNL     1      29.814  24.060  26.392  0.00  0.00    +0.000 OA
BRANCH  17  19
ATOM     18  C   UNL     1      31.221  22.858  24.758  0.00  0.00    +0.000 C 
ATOM     19  C   UNL     1      30.534  23.073  25.929  0.00  0.00    +0.000 C 
ENDBRANCH  17  19
ENDBRANCH  15  17
ENDBRANCH   1  15
BRANCH   2  20
ATOM     20  C   UNL     1      29.017  25.495  23.495  0.00  0.00    +0.000 C 
ATOM     21 CL   UNL     1      29.418  25.303  21.798  0.00  0.00    +0.000 Cl
ENDBRANCH   2  20
TORSDOF 5
ENDMDL
MODEL 2
REMARK VINA RESULT:      -5.7      2.329      3.344
REMARK  Name = 
REMARK  5 active torsions:
REMARK  status: ('A' for Active; 'I' for Inactive)
REMARK    1  A    between atoms: C_2  and  O_3
REMARK    2  A    between atoms: O_3  and  C_4
REMARK    3  A    between atoms: C_4  and  C_6
REMARK    4  A    between atoms: C_7  and  C_8
REMARK    5  A    between atoms: C_14  and  C_15
REMARK                            x       y       z     vdW  Elec       q    Type
REMARK                         _______ _______ _______ _____ _____    ______ ____
ROOT
ATOM      1  C   UNL     1      29.108  23.413  24.608  0.00  0.00    +0.000 C 
ATOM      2  C   UNL     1      30.159  24.101  24.255  0.00  0.00    +0.000 C 
ATOM      3  N   UNL     1      30.428  24.569  22.943  0.00  0.00    +0.000 NA
ATOM      4  C   UNL     1      29.421  24.208  21.986  0.00  0.00    +0.000 C 
ATOM      5  O   UNL     1      29.557  24.581  20.766  0.00  0.00    +0.000 OA
ATOM      6  N   UNL     1      28.316  23.473  22.335  0.00  0.00    +0.000 NA
ATOM      7  C   UNL     1      27.919  23.120  23.691  0.00  0.00    +0.000 C 
ENDROOT
BRANCH   7   8
ATOM      8  C   UNL     1      26.990  24.302  24.067  0.00  0.00    +0.000 A 
ATOM      9  C   UNL     1      27.411  25.539  23.707  0.00  0.00    +0.000 A 
ATOM     10  C   UNL     1      26.636  26.679  24.008  0.00  0.00    +0.000 A 
ATOM     11  C   UNL     1      25.458  26.507  24.665  0.00  0.00    +0.000 A 
ATOM     12  C   UNL     1      25.021  25.275  25.033  0.00  0.00    +0.000 A 
ATOM     13  C   UNL     1      25.805  24.174  24.723  0.00  0.00    +0.000 A 
ATOM     14  O   UNL     1      25.391  22.905  25.081  0.00  0.00    +0.000 OA
ENDBRANCH   7   8
BRANCH   1  15
ATOM     15  C   UNL     1      29.031  22.946  25.984  0.00  0.00    +0.000 C 
ATOM     16  O   UNL     1      29.564  21.872  26.305  0.00  0.00    +0.000 OA
BRANCH  15  17
ATOM     17  O   UNL     1      28.400  23.603  26.997  0.00  0.00    +0.000 OA
BRANCH  17  19
ATOM     18  C   UNL     1      26.344  23.706  28.359  0.00  0.00    +0.000 C 
ATOM     19  C   UNL     1      27.600  23.296  27.983  0.00  0.00    +0.000 C 
ENDBRANCH  17  19
ENDBRANCH  15  17
ENDBRANCH   1  15
BRANCH   2  20
ATOM     20  C   UNL     1      31.221  24.365  25.330  0.00  0.00    +0.000 C 
ATOM     21 CL   UNL     1      32.798  23.964  24.677  0.00  0.00    +0.000 Cl
ENDBRANCH   2  20
TORSDOF 5
ENDMDL
MODEL 3
REMARK VINA RESULT:      -5.6      2.866      4.255
REMARK  Name = 
REMARK  5 active torsions:
REMARK  status: ('A' for Active; 'I' for Inactive)
REMARK    1  A    between atoms: C_2  and  O_3
REMARK    2  A    between atoms: O_3  and  C_4
REMARK    3  A    between atoms: C_4  and  C_6
REMARK    4  A    between atoms: C_7  and  C_8
REMARK    5  A    between atoms: C_14  and  C_15
REMARK                            x       y       z     vdW  Elec       q    Type
REMARK                         _______ _______ _______ _____ _____    ______ ____
ROOT
ATOM      1  C   UNL     1      28.411  25.175  23.441  0.00  0.00    +0.000 C 
ATOM      2  C   UNL     1      27.183  25.563  23.647  0.00  0.00    +0.000 C 
ATOM      3  N   UNL     1      26.026  24.782  23.396  0.00  0.00    +0.000 NA
ATOM      4  C   UNL     1      26.314  23.479  22.867  0.00  0.00    +0.000 C 
ATOM      5  O   UNL     1      25.343  22.683  22.606  0.00  0.00    +0.000 OA
ATOM      6  N   UNL     1      27.598  23.058  22.630  0.00  0.00    +0.000 NA
ATOM      7  C   UNL     1      28.812  23.757  23.029  0.00  0.00    +0.000 C 
ENDROOT
BRANCH   7   8
ATOM      8  C   UNL     1      29.091  23.139  24.422  0.00  0.00    +0.000 A 
ATOM      9  C   UNL     1      28.009  22.868  25.191  0.00  0.00    +0.000 A 
ATOM     10  C   UNL     1      28.161  22.307  26.476  0.00  0.00    +0.000 A 
ATOM     11  C   UNL     1      29.417  22.044  26.924  0.00  0.00    +0.000 A 
ATOM     12  C   UNL     1      30.512  22.308  26.168  0.00  0.00    +0.000 A 
ATOM     13  C   UNL     1      30.331  22.860  24.908  0.00  0.00    +0.000 A 
ATOM     14  O   UNL     1      31.424  23.142  24.110  0.00  0.00    +0.000 OA
ENDBRANCH   7   8
BRANCH   1  15
ATOM     15  C   UNL     1      29.478  26.136  23.680  0.00  0.00    +0.000 C 
ATOM     16  O   UNL     1      29.799  26.939  22.791  0.00  0.00    +0.000 OA
BRANCH  15  17
ATOM     17  O   UNL     1      30.189  26.239  24.838  0.00  0.00    +0.000 OA
BRANCH  17  19
ATOM     18  C   UNL     1      29.187  25.863  27.062  0.00  0.00    +0.000 C 
ATOM     19  C   UNL     1      29.937  26.488  26.095  0.00  0.00    +0.000 C 
ENDBRANCH  17  19
ENDBRANCH  15  17
ENDBRANCH   1  15
BRANCH   2  20
ATOM     20  C   UNL     1      26.971  27.001  24.134  0.00  0.00    +0.000 C 
ATOM     21 CL   UNL     1      25.293  27.198  24.604  0.00  0.00    +0.000 Cl
ENDBRANCH   2  20
TORSDOF 5
ENDMDL
MODEL 4
REMARK VINA RESULT:      -5.6      1.552      2.070
REMARK  Name = 
REMARK  5 active torsions:
REMARK  status: ('A' for Active; 'I' for Inactive)
REMARK    1  A    between atoms: C_2  and  O_3
REMARK    2  A    between atoms: O_3  and  C_4
REMARK    3  A    between atoms: C_4  and  C_6
REMARK    4  A    between atoms: C_7  and  C_8
REMARK    5  A    between atoms: C_14  and  C_15
REMARK                            x       y       z     vdW  Elec       q    Type
REMARK                         _______ _______ _______ _____ _____    ______ ____
ROOT
ATOM      1  C   UNL     1      27.459  23.098  25.082  0.00  0.00    +0.000 C 
ATOM      2  C   UNL     1      28.189  23.109  24.001  0.00  0.00    +0.000 C 
ATOM      3  N   UNL     1      27.686  23.152  22.675  0.00  0.00    +0.000 NA
ATOM      4  C   UNL     1      26.253  23.174  22.603  0.00  0.00    +0.000 C 
ATOM      5  O   UNL     1      25.686  23.218  21.453  0.00  0.00    +0.000 OA
ATOM      6  N   UNL     1      25.468  23.149  23.728  0.00  0.00    +0.000 NA
ATOM      7  C   UNL     1      25.939  23.275  25.101  0.00  0.00    +0.000 C 
ENDROOT
BRANCH   7   8
ATOM      8  C   UNL     1      25.848  24.805  25.328  0.00  0.00    +0.000 A 
ATOM      9  C   UNL     1      26.250  25.594  24.302  0.00  0.00    +0.000 A 
ATOM     10  C   UNL     1      26.207  26.999  24.414  0.00  0.00    +0.000 A 
ATOM     11  C   UNL     1      25.753  27.543  25.574  0.00  0.00    +0.000 A 
ATOM     12  C   UNL     1      25.347  26.769  26.612  0.00  0.00    +0.000 A 
ATOM     13  C   UNL     1      25.401  25.390  26.472  0.00  0.00    +0.000 A 
ATOM     14  O   UNL     1      24.994  24.571  27.508  0.00  0.00    +0.000 OA
ENDBRANCH   7   8
BRANCH   1  15
ATOM     15  C   UNL     1      28.140  22.972  26.361  0.00  0.00    +0.000 C 
ATOM     16  O   UNL     1      27.971  21.959  27.057  0.00  0.00    +0.000 OA
BRANCH  15  17
ATOM     17  O   UNL     1      28.982  23.903  26.892  0.00  0.00    +0.000 OA
BRANCH  17  19
ATOM     18  C   UNL     1      29.141  26.360  26.716  0.00  0.00    +0.000 C 
ATOM     19  C   UNL     1      28.901  25.140  27.302  0.00  0.00    +0.000 C 
ENDBRANCH  17  19
ENDBRANCH  15  17
ENDBRANCH   1  15
BRANCH   2  20
ATOM     20  C   UNL     1      29.708  22.997  24.176  0.00  0.00    +0.000 C 
ATOM     21 CL   UNL     1      30.437  24.545  23.791  0.00  0.00    +0.000 Cl
ENDBRANCH   2  20
TORSDOF 5
ENDMDL
MODEL 5
REMARK VINA RESULT:      -5.6     32.956     34.300
REMARK  Name = 
REMARK  5 active torsions:
REMARK  status: ('A' for Active; 'I' for Inactive)
REMARK    1  A    between atoms: C_2  and  O_3
REMARK    2  A    between atoms: O_3  and  C_4
REMARK    3  A    between atoms: C_4  and  C_6
REMARK    4  A    between atoms: C_7  and  C_8
REMARK    5  A    between atoms: C_14  and  C_15
REMARK                            x       y       z     vdW  Elec       q    Type
REMARK                         _______ _______ _______ _____ _____    ______ ____
ROOT
ATOM      1  C   UNL     1      17.516  -8.979  27.600  0.00  0.00    +0.000 C 
ATOM      2  C   UNL     1      17.155  -9.955  26.815  0.00  0.00    +0.000 C 
ATOM      3  N   UNL     1      16.336  -9.820  25.665  0.00  0.00    +0.000 NA
ATOM      4  C   UNL     1      15.905  -8.473  25.420  0.00  0.00    +0.000 C 
ATOM      5  O   UNL     1      15.162  -8.230  24.402  0.00  0.00    +0.000 OA
ATOM      6  N   UNL     1      16.263  -7.434  26.242  0.00  0.00    +0.000 NA
ATOM      7  C   UNL     1      17.232  -7.500  27.327  0.00  0.00    +0.000 C 
ENDROOT
BRANCH   7   8
ATOM      8  C   UNL     1      18.544  -7.102  26.604  0.00  0.00    +0.000 A 
ATOM      9  C   UNL     1      19.342  -8.119  26.196  0.00  0.00    +0.000 A 
ATOM     10  C   UNL     1      20.558  -7.857  25.532  0.00  0.00    +0.000 A 
ATOM     11  C   UNL     1      20.911  -6.564  25.310  0.00  0.00    +0.000 A 
ATOM     12  C   UNL     1      20.125  -5.533  25.712  0.00  0.00    +0.000 A 
ATOM     13  C   UNL     1      18.934  -5.821  26.363  0.00  0.00    +0.000 A 
ATOM     14  O   UNL     1      18.108  -4.797  26.785  0.00  0.00    +0.000 OA
ENDBRANCH   7   8
BRANCH   1  15
ATOM     15  C   UNL     1      18.295  -9.309  28.784  0.00  0.00    +0.000 C 
ATOM     16  O   UNL     1      17.724  -9.514  29.866  0.00  0.00    +0.000 OA
BRANCH  15  17
ATOM     17  O   UNL     1      19.654  -9.417  28.818  0.00  0.00    +0.000 OA
BRANCH  17  19
ATOM     18  C   UNL     1      21.783 -10.552  28.297  0.00  0.00    +0.000 C 
ATOM     19  C   UNL     1      20.534 -10.381  28.845  0.00  0.00    +0.000 C 
ENDBRANCH  17  19
ENDBRANCH  15  17
ENDBRANCH   1  15
BRANCH   2  20
ATOM     20  C   UNL     1      17.594 -11.372  27.206  0.00  0.00    +0.000 C 
ATOM     21 CL   UNL     1      18.841 -11.905  26.094  0.00  0.00    +0.000 Cl
ENDBRANCH   2  20
TORSDOF 5
ENDMDL
MODEL 6
REMARK VINA RESULT:      -5.5      2.295      4.616
REMARK  Name = 
REMARK  5 active torsions:
REMARK  status: ('A' for Active; 'I' for Inactive)
REMARK    1  A    between atoms: C_2  and  O_3
REMARK    2  A    between atoms: O_3  and  C_4
REMARK    3  A    between atoms: C_4  and  C_6
REMARK    4  A    between atoms: C_7  and  C_8
REMARK    5  A    between atoms: C_14  and  C_15
REMARK                            x       y       z     vdW  Elec       q    Type
REMARK                         _______ _______ _______ _____ _____    ______ ____
ROOT
ATOM      1  C   UNL     1      27.043  25.235  25.202  0.00  0.00    +0.000 C 
ATOM      2  C   UNL     1      26.150  24.340  25.523  0.00  0.00    +0.000 C 
ATOM      3  N   UNL     1      25.560  23.413  24.626  0.00  0.00    +0.000 NA
ATOM      4  C   UNL     1      26.030  23.540  23.276  0.00  0.00    +0.000 C 
ATOM      5  O   UNL     1      25.569  22.750  22.377  0.00  0.00    +0.000 OA
ATOM      6  N   UNL     1      26.959  24.484  22.915  0.00  0.00    +0.000 NA
ATOM      7  C   UNL     1      27.709  25.336  23.828  0.00  0.00    +0.000 C 
ENDROOT
BRANCH   7   8
ATOM      8  C   UNL     1      28.981  24.487  24.081  0.00  0.00    +0.000 A 
ATOM      9  C   UNL     1      28.798  23.151  24.220  0.00  0.00    +0.000 A 
ATOM     10  C   UNL     1      29.894  22.296  24.456  0.00  0.00    +0.000 A 
ATOM     11  C   UNL     1      31.137  22.841  24.540  0.00  0.00    +0.000 A 
ATOM     12  C   UNL     1      31.338  24.176  24.403  0.00  0.00    +0.000 A 
ATOM     13  C   UNL     1      30.240  24.992  24.172  0.00  0.00    +0.000 A 
ATOM     14  O   UNL     1      30.408  26.357  24.026  0.00  0.00    +0.000 OA
ENDBRANCH   7   8
BRANCH   1  15
ATOM     15  C   UNL     1      27.483  26.159  26.235  0.00  0.00    +0.000 C 
ATOM     16  O   UNL     1      26.820  27.179  26.478  0.00  0.00    +0.000 OA
BRANCH  15  17
ATOM     17  O   UNL     1      28.605  26.006  26.993  0.00  0.00    +0.000 OA
BRANCH  17  19
ATOM     18  C   UNL     1      29.135  23.739  27.815  0.00  0.00    +0.000 C 
ATOM     19  C   UNL     1      29.087  25.112  27.815  0.00  0.00    +0.000 C 
ENDBRANCH  17  19
ENDBRANCH  15  17
ENDBRANCH   1  15
BRANCH   2  20
ATOM     20  C   UNL     1      25.647  24.337  26.972  0.00  0.00    +0.000 C 
ATOM     21 CL   UNL     1      24.146  25.241  27.052  0.00  0.00    +0.000 Cl
ENDBRANCH   2  20
TORSDOF 5
ENDMDL
MODEL 7
REMARK VINA RESULT:      -5.4      2.552      3.947
REMARK  Name = 
REMARK  5 active torsions:
REMARK  status: ('A' for Active; 'I' for Inactive)
REMARK    1  A    between atoms: C_2  and  O_3
REMARK    2  A    between atoms: O_3  and  C_4
REMARK    3  A    between atoms: C_4  and  C_6
REMARK    4  A    between atoms: C_7  and  C_8
REMARK    5  A    between atoms: C_14  and  C_15
REMARK                            x       y       z     vdW  Elec       q    Type
REMARK                         _______ _______ _______ _____ _____    ______ ____
ROOT
ATOM      1  C   UNL     1      27.693  23.878  23.940  0.00  0.00    +0.000 C 
ATOM      2  C   UNL     1      28.937  23.515  23.791  0.00  0.00    +0.000 C 
ATOM      3  N   UNL     1      29.738  23.786  22.652  0.00  0.00    +0.000 NA
ATOM      4  C   UNL     1      29.050  24.514  21.624  0.00  0.00    +0.000 C 
ATOM      5  O   UNL     1      29.678  24.820  20.548  0.00  0.00    +0.000 OA
ATOM      6  N   UNL     1      27.738  24.893  21.756  0.00  0.00    +0.000 NA
ATOM      7  C   UNL     1      26.935  24.784  22.967  0.00  0.00    +0.000 C 
ENDROOT
BRANCH   7   8
ATOM      8  C   UNL     1      27.180  26.162  23.634  0.00  0.00    +0.000 A 
ATOM      9  C   UNL     1      28.354  26.773  23.344  0.00  0.00    +0.000 A 
ATOM     10  C   UNL     1      28.669  28.028  23.906  0.00  0.00    +0.000 A 
ATOM     11  C   UNL     1      27.769  28.610  24.742  0.00  0.00    +0.000 A 
ATOM     12  C   UNL     1      26.588  28.011  25.043  0.00  0.00    +0.000 A 
ATOM     13  C   UNL     1      26.307  26.777  24.476  0.00  0.00    +0.000 A 
ATOM     14  O   UNL     1      25.113  26.139  24.760  0.00  0.00    +0.000 OA
ENDBRANCH   7   8
BRANCH   1  15
ATOM     15  C   UNL     1      26.996  23.446  25.141  0.00  0.00    +0.000 C 
ATOM     16  O   UNL     1      26.137  22.554  25.074  0.00  0.00    +0.000 OA
BRANCH  15  17
ATOM     17  O   UNL     1      27.207  23.951  26.390  0.00  0.00    +0.000 OA
BRANCH  17  19
ATOM     18  C   UNL     1      25.477  24.679  27.993  0.00  0.00    +0.000 C 
ATOM     19  C   UNL     1      26.567  23.983  27.528  0.00  0.00    +0.000 C 
ENDBRANCH  17  19
ENDBRANCH  15  17
ENDBRANCH   1  15
BRANCH   2  20
ATOM     20  C   UNL     1      29.561  22.667  24.906  0.00  0.00    +0.000 C 
ATOM     21 CL   UNL     1      31.307  22.741  24.763  0.00  0.00    +0.000 Cl
ENDBRANCH   2  20
TORSDOF 5
ENDMDL
MODEL 8
REMARK VINA RESULT:      -5.3     33.014     34.386
REMARK  Name = 
REMARK  5 active torsions:
REMARK  status: ('A' for Active; 'I' for Inactive)
REMARK    1  A    between atoms: C_2  and  O_3
REMARK    2  A    between atoms: O_3  and  C_4
REMARK    3  A    between atoms: C_4  and  C_6
REMARK    4  A    between atoms: C_7  and  C_8
REMARK    5  A    between atoms: C_14  and  C_15
REMARK                            x       y       z     vdW  Elec       q    Type
REMARK                         _______ _______ _______ _____ _____    ______ ____
ROOT
ATOM      1  C   UNL     1      18.849  -8.460  25.272  0.00  0.00    +0.000 C 
ATOM      2  C   UNL     1      19.851  -7.647  25.467  0.00  0.00    +0.000 C 
ATOM      3  N   UNL     1      19.754  -6.351  26.035  0.00  0.00    +0.000 NA
ATOM      4  C   UNL     1      18.415  -5.975  26.387  0.00  0.00    +0.000 C 
ATOM      5  O   UNL     1      18.207  -4.824  26.913  0.00  0.00    +0.000 OA
ATOM      6  N   UNL     1      17.346  -6.810  26.177  0.00  0.00    +0.000 NA
ATOM      7  C   UNL     1      17.421  -8.203  25.757  0.00  0.00    +0.000 C 
ENDROOT
BRANCH   7   8
ATOM      8  C   UNL     1      17.461  -8.942  27.119  0.00  0.00    +0.000 A 
ATOM      9  C   UNL     1      18.278  -8.421  28.066  0.00  0.00    +0.000 A 
ATOM     10  C   UNL     1      18.385  -9.025  29.336  0.00  0.00    +0.000 A 
ATOM     11  C   UNL     1      17.648 -10.139  29.588  0.00  0.00    +0.000 A 
ATOM     12  C   UNL     1      16.824 -10.675  28.652  0.00  0.00    +0.000 A 
ATOM     13  C   UNL     1      16.741 -10.059  27.412  0.00  0.00    +0.000 A 
ATOM     14  O   UNL     1      15.912 -10.576  26.434  0.00  0.00    +0.000 OA
ENDBRANCH   7   8
BRANCH   1  15
ATOM     15  C   UNL     1      19.118  -9.724  24.604  0.00  0.00    +0.000 C 
ATOM     16  O   UNL     1      18.844  -9.862  23.403  0.00  0.00    +0.000 OA
BRANCH  15  17
ATOM     17  O   UNL     1      19.666 -10.820  25.201  0.00  0.00    +0.000 OA
BRANCH  17  19
ATOM     18  C   UNL     1      20.941 -10.901  27.313  0.00  0.00    +0.000 C 
ATOM     19  C   UNL     1      19.945 -11.206  26.417  0.00  0.00    +0.000 C 
ENDBRANCH  17  19
ENDBRANCH  15  17
ENDBRANCH   1  15
BRANCH   2  20
ATOM     20  C   UNL     1      21.232  -8.103  24.981  0.00  0.00    +0.000 C 
ATOM     21 CL   UNL     1      22.280  -6.702  24.859  0.00  0.00    +0.000 Cl
ENDBRANCH   2  20
TORSDOF 5
ENDMDL
MODEL 9
REMARK VINA RESULT:      -5.3     19.370     21.016
REMARK  Name = 
REMARK  5 active torsions:
REMARK  status: ('A' for Active; 'I' for Inactive)
REMARK    1  A    between atoms: C_2  and  O_3
REMARK    2  A    between atoms: O_3  and  C_4
REMARK    3  A    between atoms: C_4  and  C_6
REMARK    4  A    between atoms: C_7  and  C_8
REMARK    5  A    between atoms: C_14  and  C_15
REMARK                            x       y       z     vdW  Elec       q    Type
REMARK                         _______ _______ _______ _____ _____    ______ ____
ROOT
ATOM      1  C   UNL     1      17.448  10.367  37.104  0.00  0.00    +0.000 C 
ATOM      2  C   UNL     1      16.539  10.577  38.016  0.00  0.00    +0.000 C 
ATOM      3  N   UNL     1      16.530   9.999  39.311  0.00  0.00    +0.000 NA
ATOM      4  C   UNL     1      17.639   9.120  39.557  0.00  0.00    +0.000 C 
ATOM      5  O   UNL     1      17.737   8.544  40.698  0.00  0.00    +0.000 OA
ATOM      6  N   UNL     1      18.598   8.876  38.606  0.00  0.00    +0.000 NA
ATOM      7  C   UNL     1      18.736   9.573  37.334  0.00  0.00    +0.000 C 
ENDROOT
BRANCH   7   8
ATOM      8  C   UNL     1      19.701  10.727  37.708  0.00  0.00    +0.000 A 
ATOM      9  C   UNL     1      19.139  11.831  38.257  0.00  0.00    +0.000 A 
ATOM     10  C   UNL     1      19.935  12.935  38.628  0.00  0.00    +0.000 A 
ATOM     11  C   UNL     1      21.277  12.864  38.424  0.00  0.00    +0.000 A 
ATOM     12  C   UNL     1      21.857  11.766  37.876  0.00  0.00    +0.000 A 
ATOM     13  C   UNL     1      21.048  10.697  37.521  0.00  0.00    +0.000 A 
ATOM     14  O   UNL     1      21.604   9.562  36.961  0.00  0.00    +0.000 OA
ENDBRANCH   7   8
BRANCH   1  15
ATOM     15  C   UNL     1      17.257  10.981  35.799  0.00  0.00    +0.000 C 
ATOM     16  O   UNL     1      17.358  12.210  35.670  0.00  0.00    +0.000 OA
BRANCH  15  17
ATOM     17  O   UNL     1      16.964  10.302  34.653  0.00  0.00    +0.000 OA
BRANCH  17  19
ATOM     18  C   UNL     1      16.264  11.086  32.420  0.00  0.00    +0.000 C 
ATOM     19  C   UNL     1      16.161  10.451  33.634  0.00  0.00    +0.000 C 
ENDBRANCH  17  19
ENDBRANCH  15  17
ENDBRANCH   1  15
BRANCH   2  20
ATOM     20  C   UNL     1      15.348  11.464  37.631  0.00  0.00    +0.000 C 
ATOM     21 CL   UNL     1      13.971  11.023  38.624  0.00  0.00    +0.000 Cl
ENDBRANCH   2  20
TORSDOF 5
ENDMDL
MODEL 10
REMARK VINA RESULT:      -5.3     33.238     34.606
REMARK  Name = 
REMARK  5 active torsions:
REMARK  status: ('A' for Active; 'I' for Inactive)
REMARK    1  A    between atoms: C_2  and  O_3
REMARK    2  A    between atoms: O_3  and  C_4
REMARK    3  A    between atoms: C_4  and  C_6
REMARK    4  A    between atoms: C_7  and  C_8
REMARK    5  A    between atoms: C_14  and  C_15
REMARK                            x       y       z     vdW  Elec       q    Type
REMARK                         _______ _______ _______ _____ _____    ______ ____
ROOT
ATOM      1  C   UNL     1      18.361  -9.672  26.869  0.00  0.00    +0.000 C 
ATOM      2  C   UNL     1      19.358 -10.409  26.463  0.00  0.00    +0.000 C 
ATOM      3  N   UNL     1      19.729 -10.609  25.108  0.00  0.00    +0.000 NA
ATOM      4  C   UNL     1      18.888  -9.917  24.173  0.00  0.00    +0.000 C 
ATOM      5  O   UNL     1      19.132 -10.021  22.918  0.00  0.00    +0.000 OA
ATOM      6  N   UNL     1      17.827  -9.148  24.580  0.00  0.00    +0.000 NA
ATOM      7  C   UNL     1      17.515  -8.783  25.955  0.00  0.00    +0.000 C 
ENDROOT
BRANCH   7   8
ATOM      8  C   UNL     1      18.275  -7.440  26.106  0.00  0.00    +0.000 A 
ATOM      9  C   UNL     1      19.518  -7.385  25.570  0.00  0.00    +0.000 A 
ATOM     10  C   UNL     1      20.289  -6.208  25.659  0.00  0.00    +0.000 A 
ATOM     11  C   UNL     1      19.755  -5.130  26.293  0.00  0.00    +0.000 A 
ATOM     12  C   UNL     1      18.512  -5.167  26.836  0.00  0.00    +0.000 A 
ATOM     13  C   UNL     1      17.778  -6.339  26.733  0.00  0.00    +0.000 A 
ATOM     14  O   UNL     1      16.508  -6.413  27.273  0.00  0.00    +0.000 OA
ENDBRANCH   7   8
BRANCH   1  15
ATOM     15  C   UNL     1      18.073  -9.643  28.295  0.00  0.00    +0.000 C 
ATOM     16  O   UNL     1      18.774  -8.958  29.056  0.00  0.00    +0.000 OA
BRANCH  15  17
ATOM     17  O   UNL     1      17.062 -10.328  28.900  0.00  0.00    +0.000 OA
BRANCH  17  19
ATOM     18  C   UNL     1      15.085 -11.420  27.903  0.00  0.00    +0.000 C 
ATOM     19  C   UNL     1      16.266 -11.319  28.599  0.00  0.00    +0.000 C 
ENDBRANCH  17  19
ENDBRANCH  15  17
ENDBRANCH   1  15
BRANCH   2  20
ATOM     20  C   UNL     1      20.147 -11.177  27.530  0.00  0.00    +0.000 C 
ATOM     21 CL   UNL     1      21.735 -10.451  27.690  0.00  0.00    +0.000 Cl
ENDBRANCH   2  20
TORSDOF 5
ENDMDL
