MODEL 1
REMARK VINA RESULT:      -8.1      0.000      0.000
REMARK  Name = 
REMARK  7 active torsions:
REMARK  status: ('A' for Active; 'I' for Inactive)
REMARK    1  A    between atoms: C_8  and  C_9
REMARK    2  A    between atoms: C_15  and  C_16
REMARK    3  A    between atoms: N_22  and  C_23
REMARK    4  A    between atoms: C_23  and  C_24
REMARK    5  A    between atoms: C_24  and  C_26
REMARK    6  A    between atoms: C_26  and  N_27
REMARK    7  A    between atoms: N_27  and  C_28
REMARK                            x       y       z     vdW  Elec       q    Type
REMARK                         _______ _______ _______ _____ _____    ______ ____
ROOT
ATOM      1  C   UNL     1      38.841  -3.894  19.410  0.00  0.00    +0.000 C 
ATOM      2  C   UNL     1      38.280  -2.894  18.441  0.00  0.00    +0.000 A 
ATOM      3  C   UNL     1      37.081  -2.258  18.686  0.00  0.00    +0.000 A 
ATOM      4  C   UNL     1      36.566  -1.342  17.804  0.00  0.00    +0.000 A 
ATOM      5  C   UNL     1      37.231  -1.013  16.622  0.00  0.00    +0.000 A 
ATOM      6  C   UNL     1      38.430  -1.640  16.364  0.00  0.00    +0.000 A 
ATOM      7  C   UNL     1      38.941  -2.571  17.275  0.00  0.00    +0.000 A 
ATOM      8  C   UNL     1      38.852  -1.131  15.151  0.00  0.00    +0.000 A 
ATOM      9  C   UNL     1      37.939  -0.213  14.669  0.00  0.00    +0.000 A 
ATOM     10  N   UNL     1      36.970  -0.185  15.614  0.00  0.00    +0.000 N 
ENDROOT
BRANCH   8  11
ATOM     11  C   UNL     1      40.094  -1.528  14.507  0.00  0.00    +0.000 A 
ATOM     12  C   UNL     1      41.216  -0.709  14.629  0.00  0.00    +0.000 A 
ATOM     13  C   UNL     1      42.418  -1.019  14.044  0.00  0.00    +0.000 A 
ATOM     14  C   UNL     1      42.548  -2.156  13.316  0.00  0.00    +0.000 A 
ATOM     15  C   UNL     1      41.440  -3.003  13.172  0.00  0.00    +0.000 A 
ATOM     16  C   UNL     1      40.241  -2.667  13.771  0.00  0.00    +0.000 A 
ENDBRANCH   8  11
BRANCH   9  17
ATOM     17  C   UNL     1      37.977   0.562  13.437  0.00  0.00    +0.000 A 
ATOM     18  C   UNL     1      38.620   1.780  13.420  0.00  0.00    +0.000 A 
ATOM     19  C   UNL     1      38.703   2.580  12.289  0.00  0.00    +0.000 A 
ATOM     20  C   UNL     1      38.120   2.156  11.114  0.00  0.00    +0.000 A 
ATOM     21  C   UNL     1      37.471   0.949  11.097  0.00  0.00    +0.000 A 
ATOM     22  C   UNL     1      37.410   0.183  12.240  0.00  0.00    +0.000 A 
ENDBRANCH   9  17
BRANCH  10  23
ATOM     23  C   UNL     1      35.785   0.650  15.530  0.00  0.00    +0.000 C 
BRANCH  23  24
ATOM     24  C   UNL     1      35.844   1.524  16.976  0.00  0.00    +0.000 C 
ATOM     25  O   UNL     1      34.347   1.905  16.847  0.00  0.00    +0.000 OA
BRANCH  24  26
ATOM     26  C   UNL     1      36.326   2.914  16.183  0.00  0.00    +0.000 C 
BRANCH  26  27
ATOM     27  N   UNL     1      37.627   3.071  16.791  0.00  0.00    +0.000 NA
BRANCH  27  28
ATOM     28  C   UNL     1      38.088   4.425  16.840  0.00  0.00    +0.000 C 
ATOM     29  C   UNL     1      38.776   4.821  18.098  0.00  0.00    +0.000 C 
ATOM     30  C   UNL     1      39.550   6.071  17.692  0.00  0.00    +0.000 C 
ATOM     31  C   UNL     1      40.040   5.743  16.296  0.00  0.00    +0.000 C 
ATOM     32  C   UNL     1      39.062   4.738  15.726  0.00  0.00    +0.000 C 
ENDBRANCH  27  28
ENDBRANCH  26  27
ENDBRANCH  24  26
ENDBRANCH  23  24
ENDBRANCH  10  23
TORSDOF 7
ENDMDL
MODEL 2
REMARK VINA RESULT:      -7.5      1.792      2.504
REMARK  Name = 
REMARK  7 active torsions:
REMARK  status: ('A' for Active; 'I' for Inactive)
REMARK    1  A    between atoms: C_8  and  C_9
REMARK    2  A    between atoms: C_15  and  C_16
REMARK    3  A    between atoms: N_22  and  C_23
REMARK    4  A    between atoms: C_23  and  C_24
REMARK    5  A    between atoms: C_24  and  C_26
REMARK    6  A    between atoms: C_26  and  N_27
REMARK    7  A    between atoms: N_27  and  C_28
REMARK                            x       y       z     vdW  Elec       q    Type
REMARK                         _______ _______ _______ _____ _____    ______ ____
ROOT
ATOM      1  C   UNL     1      38.594  -3.422  19.424  0.00  0.00    +0.000 C 
ATOM      2  C   UNL     1      38.050  -2.493  18.378  0.00  0.00    +0.000 A 
ATOM      3  C   UNL     1      36.825  -1.879  18.536  0.00  0.00    +0.000 A 
ATOM      4  C   UNL     1      36.326  -1.027  17.582  0.00  0.00    +0.000 A 
ATOM      5  C   UNL     1      37.034  -0.745  16.413  0.00  0.00    +0.000 A 
ATOM      6  C   UNL     1      38.259  -1.350  16.243  0.00  0.00    +0.000 A 
ATOM      7  C   UNL     1      38.753  -2.215  17.224  0.00  0.00    +0.000 A 
ATOM      8  C   UNL     1      38.721  -0.896  15.022  0.00  0.00    +0.000 A 
ATOM      9  C   UNL     1      37.806  -0.032  14.451  0.00  0.00    +0.000 A 
ATOM     10  N   UNL     1      36.796   0.020  15.350  0.00  0.00    +0.000 N 
ENDROOT
BRANCH   8  11
ATOM     11  C   UNL     1      40.000  -1.292  14.455  0.00  0.00    +0.000 A 
ATOM     12  C   UNL     1      40.118  -2.546  13.854  0.00  0.00    +0.000 A 
ATOM     13  C   UNL     1      41.295  -2.988  13.303  0.00  0.00    +0.000 A 
ATOM     14  C   UNL     1      42.398  -2.198  13.329  0.00  0.00    +0.000 A 
ATOM     15  C   UNL     1      42.315  -0.932  13.925  0.00  0.00    +0.000 A 
ATOM     16  C   UNL     1      41.118  -0.511  14.473  0.00  0.00    +0.000 A 
ENDBRANCH   8  11
BRANCH   9  17
ATOM     17  C   UNL     1      37.878   0.675  13.180  0.00  0.00    +0.000 A 
ATOM     18  C   UNL     1      38.620   1.832  13.088  0.00  0.00    +0.000 A 
ATOM     19  C   UNL     1      38.741   2.565  11.916  0.00  0.00    +0.000 A 
ATOM     20  C   UNL     1      38.097   2.135  10.776  0.00  0.00    +0.000 A 
ATOM     21  C   UNL     1      37.351   0.987  10.834  0.00  0.00    +0.000 A 
ATOM     22  C   UNL     1      37.254   0.286  12.016  0.00  0.00    +0.000 A 
ENDBRANCH   9  17
BRANCH  10  23
ATOM     23  C   UNL     1      35.594   0.814  15.169  0.00  0.00    +0.000 C 
BRANCH  23  24
ATOM     24  C   UNL     1      35.961   2.237  16.006  0.00  0.00    +0.000 C 
ATOM     25  O   UNL     1      34.537   2.285  16.617  0.00  0.00    +0.000 OA
BRANCH  24  26
ATOM     26  C   UNL     1      35.500   3.186  14.710  0.00  0.00    +0.000 C 
BRANCH  26  27
ATOM     27  N   UNL     1      36.356   4.324  14.959  0.00  0.00    +0.000 NA
BRANCH  27  28
ATOM     28  C   UNL     1      36.197   5.390  14.018  0.00  0.00    +0.000 C 
ATOM     29  C   UNL     1      36.279   4.996  12.586  0.00  0.00    +0.000 C 
ATOM     30  C   UNL     1      35.612   6.165  11.866  0.00  0.00    +0.000 C 
ATOM     31  C   UNL     1      34.462   6.532  12.781  0.00  0.00    +0.000 C 
ATOM     32  C   UNL     1      34.868   6.095  14.173  0.00  0.00    +0.000 C 
ENDBRANCH  27  28
ENDBRANCH  26  27
ENDBRANCH  24  26
ENDBRANCH  23  24
ENDBRANCH  10  23
TORSDOF 7
ENDMDL
MODEL 3
REMARK VINA RESULT:      -7.4      1.719      4.946
REMARK  Name = 
REMARK  7 active torsions:
REMARK  status: ('A' for Active; 'I' for Inactive)
REMARK    1  A    between atoms: C_8  and  C_9
REMARK    2  A    between atoms: C_15  and  C_16
REMARK    3  A    between atoms: N_22  and  C_23
REMARK    4  A    between atoms: C_23  and  C_24
REMARK    5  A    between atoms: C_24  and  C_26
REMARK    6  A    between atoms: C_26  and  N_27
REMARK    7  A    between atoms: N_27  and  C_28
REMARK                            x       y       z     vdW  Elec       q    Type
REMARK                         _______ _______ _______ _____ _____    ______ ____
ROOT
ATOM      1  C   UNL     1      38.446   2.246  10.546  0.00  0.00    +0.000 C 
ATOM      2  C   UNL     1      37.970   1.426  11.710  0.00  0.00    +0.000 A 
ATOM      3  C   UNL     1      36.742   1.661  12.293  0.00  0.00    +0.000 A 
ATOM      4  C   UNL     1      36.303   0.911  13.356  0.00  0.00    +0.000 A 
ATOM      5  C   UNL     1      37.077  -0.119  13.892  0.00  0.00    +0.000 A 
ATOM      6  C   UNL     1      38.305  -0.364  13.319  0.00  0.00    +0.000 A 
ATOM      7  C   UNL     1      38.737   0.409  12.236  0.00  0.00    +0.000 A 
ATOM      8  C   UNL     1      38.838  -1.416  14.039  0.00  0.00    +0.000 A 
ATOM      9  C   UNL     1      37.964  -1.812  15.034  0.00  0.00    +0.000 A 
ATOM     10  N   UNL     1      36.905  -0.980  14.892  0.00  0.00    +0.000 N 
ENDROOT
BRANCH   8  11
ATOM     11  C   UNL     1      40.139  -1.999  13.757  0.00  0.00    +0.000 A 
ATOM     12  C   UNL     1      41.250  -1.564  14.478  0.00  0.00    +0.000 A 
ATOM     13  C   UNL     1      42.510  -2.067  14.261  0.00  0.00    +0.000 A 
ATOM     14  C   UNL     1      42.708  -3.022  13.318  0.00  0.00    +0.000 A 
ATOM     15  C   UNL     1      41.614  -3.482  12.574  0.00  0.00    +0.000 A 
ATOM     16  C   UNL     1      40.356  -2.959  12.812  0.00  0.00    +0.000 A 
ENDBRANCH   8  11
BRANCH   9  17
ATOM     17  C   UNL     1      38.113  -2.871  16.022  0.00  0.00    +0.000 A 
ATOM     18  C   UNL     1      37.494  -4.084  15.816  0.00  0.00    +0.000 A 
ATOM     19  C   UNL     1      37.585  -5.144  16.706  0.00  0.00    +0.000 A 
ATOM     20  C   UNL     1      38.326  -5.000  17.859  0.00  0.00    +0.000 A 
ATOM     21  C   UNL     1      38.955  -3.806  18.094  0.00  0.00    +0.000 A 
ATOM     22  C   UNL     1      38.840  -2.776  17.187  0.00  0.00    +0.000 A 
ENDBRANCH   9  17
BRANCH  10  23
ATOM     23  C   UNL     1      35.725  -1.025  15.737  0.00  0.00    +0.000 C 
BRANCH  23  24
ATOM     24  C   UNL     1      36.296  -0.406  17.203  0.00  0.00    +0.000 C 
ATOM     25  O   UNL     1      35.130  -1.072  17.977  0.00  0.00    +0.000 OA
BRANCH  24  26
ATOM     26  C   UNL     1      35.432   1.012  17.007  0.00  0.00    +0.000 C 
BRANCH  26  27
ATOM     27  N   UNL     1      36.537   1.943  17.027  0.00  0.00    +0.000 NA
BRANCH  27  28
ATOM     28  C   UNL     1      36.242   3.210  16.431  0.00  0.00    +0.000 C 
ATOM     29  C   UNL     1      37.244   3.703  15.448  0.00  0.00    +0.000 C 
ATOM     30  C   UNL     1      36.468   4.752  14.658  0.00  0.00    +0.000 C 
ATOM     31  C   UNL     1      35.089   4.141  14.521  0.00  0.00    +0.000 C 
ATOM     32  C   UNL     1      34.920   3.203  15.698  0.00  0.00    +0.000 C 
ENDBRANCH  27  28
ENDBRANCH  26  27
ENDBRANCH  24  26
ENDBRANCH  23  24
ENDBRANCH  10  23
TORSDOF 7
ENDMDL
MODEL 4
REMARK VINA RESULT:      -7.2      1.254      4.570
REMARK  Name = 
REMARK  7 active torsions:
REMARK  status: ('A' for Active; 'I' for Inactive)
REMARK    1  A    between atoms: C_8  and  C_9
REMARK    2  A    between atoms: C_15  and  C_16
REMARK    3  A    between atoms: N_22  and  C_23
REMARK    4  A    between atoms: C_23  and  C_24
REMARK    5  A    between atoms: C_24  and  C_26
REMARK    6  A    between atoms: C_26  and  N_27
REMARK    7  A    between atoms: N_27  and  C_28
REMARK                            x       y       z     vdW  Elec       q    Type
REMARK                         _______ _______ _______ _____ _____    ______ ____
ROOT
ATOM      1  C   UNL     1      40.218   3.648  10.698  0.00  0.00    +0.000 C 
ATOM      2  C   UNL     1      39.267   3.004  11.664  0.00  0.00    +0.000 A 
ATOM      3  C   UNL     1      38.124   3.654  12.081  0.00  0.00    +0.000 A 
ATOM      4  C   UNL     1      37.251   3.068  12.963  0.00  0.00    +0.000 A 
ATOM      5  C   UNL     1      37.480   1.791  13.476  0.00  0.00    +0.000 A 
ATOM      6  C   UNL     1      38.618   1.129  13.068  0.00  0.00    +0.000 A 
ATOM      7  C   UNL     1      39.496   1.741  12.169  0.00  0.00    +0.000 A 
ATOM      8  C   UNL     1      38.585  -0.087  13.723  0.00  0.00    +0.000 A 
ATOM      9  C   UNL     1      37.457  -0.177  14.517  0.00  0.00    +0.000 A 
ATOM     10  N   UNL     1      36.821   1.002  14.322  0.00  0.00    +0.000 N 
ENDROOT
BRANCH   8  11
ATOM     11  C   UNL     1      39.611  -1.105  13.569  0.00  0.00    +0.000 A 
ATOM     12  C   UNL     1      40.675  -1.139  14.470  0.00  0.00    +0.000 A 
ATOM     13  C   UNL     1      41.682  -2.069  14.382  0.00  0.00    +0.000 A 
ATOM     14  C   UNL     1      41.666  -2.999  13.394  0.00  0.00    +0.000 A 
ATOM     15  C   UNL     1      40.611  -2.994  12.471  0.00  0.00    +0.000 A 
ATOM     16  C   UNL     1      39.610  -2.046  12.582  0.00  0.00    +0.000 A 
ENDBRANCH   8  11
BRANCH   9  17
ATOM     17  C   UNL     1      37.021  -1.270  15.376  0.00  0.00    +0.000 A 
ATOM     18  C   UNL     1      35.990  -2.087  14.966  0.00  0.00    +0.000 A 
ATOM     19  C   UNL     1      35.516  -3.148  15.722  0.00  0.00    +0.000 A 
ATOM     20  C   UNL     1      36.087  -3.418  16.947  0.00  0.00    +0.000 A 
ATOM     21  C   UNL     1      37.115  -2.624  17.384  0.00  0.00    +0.000 A 
ATOM     22  C   UNL     1      37.559  -1.579  16.605  0.00  0.00    +0.000 A 
ENDBRANCH   9  17
BRANCH  10  23
ATOM     23  C   UNL     1      35.571   1.361  14.967  0.00  0.00    +0.000 C 
BRANCH  23  24
ATOM     24  C   UNL     1      36.005   1.435  16.600  0.00  0.00    +0.000 C 
ATOM     25  O   UNL     1      34.520   1.557  17.025  0.00  0.00    +0.000 OA
BRANCH  24  26
ATOM     26  C   UNL     1      36.183   3.096  16.537  0.00  0.00    +0.000 C 
BRANCH  26  27
ATOM     27  N   UNL     1      37.497   3.197  17.131  0.00  0.00    +0.000 NA
BRANCH  27  28
ATOM     28  C   UNL     1      38.067   4.508  17.067  0.00  0.00    +0.000 C 
ATOM     29  C   UNL     1      38.875   4.911  18.248  0.00  0.00    +0.000 C 
ATOM     30  C   UNL     1      39.715   6.069  17.715  0.00  0.00    +0.000 C 
ATOM     31  C   UNL     1      40.072   5.627  16.311  0.00  0.00    +0.000 C 
ATOM     32  C   UNL     1      38.977   4.678  15.871  0.00  0.00    +0.000 C 
ENDBRANCH  27  28
ENDBRANCH  26  27
ENDBRANCH  24  26
ENDBRANCH  23  24
ENDBRANCH  10  23
TORSDOF 7
ENDMDL
MODEL 5
REMARK VINA RESULT:      -7.2      2.042      4.609
REMARK  Name = 
REMARK  7 active torsions:
REMARK  status: ('A' for Active; 'I' for Inactive)
REMARK    1  A    between atoms: C_8  and  C_9
REMARK    2  A    between atoms: C_15  and  C_16
REMARK    3  A    between atoms: N_22  and  C_23
REMARK    4  A    between atoms: C_23  and  C_24
REMARK    5  A    between atoms: C_24  and  C_26
REMARK    6  A    between atoms: C_26  and  N_27
REMARK    7  A    between atoms: N_27  and  C_28
REMARK                            x       y       z     vdW  Elec       q    Type
REMARK                         _______ _______ _______ _____ _____    ______ ____
ROOT
ATOM      1  C   UNL     1      42.891  -3.328  12.728  0.00  0.00    +0.000 C 
ATOM      2  C   UNL     1      41.993  -2.243  13.246  0.00  0.00    +0.000 A 
ATOM      3  C   UNL     1      42.359  -0.915  13.167  0.00  0.00    +0.000 A 
ATOM      4  C   UNL     1      41.539   0.080  13.639  0.00  0.00    +0.000 A 
ATOM      5  C   UNL     1      40.302  -0.207  14.218  0.00  0.00    +0.000 A 
ATOM      6  C   UNL     1      39.924  -1.529  14.303  0.00  0.00    +0.000 A 
ATOM      7  C   UNL     1      40.771  -2.530  13.817  0.00  0.00    +0.000 A 
ATOM      8  C   UNL     1      38.682  -1.512  14.908  0.00  0.00    +0.000 A 
ATOM      9  C   UNL     1      38.300  -0.214  15.191  0.00  0.00    +0.000 A 
ATOM     10  N   UNL     1      39.333   0.538  14.744  0.00  0.00    +0.000 N 
ENDROOT
BRANCH   8  11
ATOM     11  C   UNL     1      37.913  -2.714  15.187  0.00  0.00    +0.000 A 
ATOM     12  C   UNL     1      38.179  -3.437  16.350  0.00  0.00    +0.000 A 
ATOM     13  C   UNL     1      37.497  -4.583  16.674  0.00  0.00    +0.000 A 
ATOM     14  C   UNL     1      36.524  -5.052  15.853  0.00  0.00    +0.000 A 
ATOM     15  C   UNL     1      36.231  -4.351  14.675  0.00  0.00    +0.000 A 
ATOM     16  C   UNL     1      36.933  -3.200  14.372  0.00  0.00    +0.000 A 
ENDBRANCH   8  11
BRANCH   9  17
ATOM     17  C   UNL     1      37.079   0.269  15.821  0.00  0.00    +0.000 A 
ATOM     18  C   UNL     1      36.158   0.967  15.071  0.00  0.00    +0.000 A 
ATOM     19  C   UNL     1      34.972   1.461  15.594  0.00  0.00    +0.000 A 
ATOM     20  C   UNL     1      34.678   1.255  16.925  0.00  0.00    +0.000 A 
ATOM     21  C   UNL     1      35.574   0.564  17.698  0.00  0.00    +0.000 A 
ATOM     22  C   UNL     1      36.742   0.089  17.144  0.00  0.00    +0.000 A 
ENDBRANCH   9  17
BRANCH  10  23
ATOM     23  C   UNL     1      39.375   1.986  14.836  0.00  0.00    +0.000 C 
BRANCH  23  24
ATOM     24  C   UNL     1      38.716   2.470  13.356  0.00  0.00    +0.000 C 
ATOM     25  O   UNL     1      40.056   3.125  12.934  0.00  0.00    +0.000 OA
BRANCH  24  26
ATOM     26  C   UNL     1      38.156   3.904  14.009  0.00  0.00    +0.000 C 
BRANCH  26  27
ATOM     27  N   UNL     1      38.446   3.637  15.400  0.00  0.00    +0.000 NA
BRANCH  27  28
ATOM     28  C   UNL     1      38.529   4.811  16.213  0.00  0.00    +0.000 C 
ATOM     29  C   UNL     1      38.362   4.589  17.674  0.00  0.00    +0.000 C 
ATOM     30  C   UNL     1      38.964   5.850  18.288  0.00  0.00    +0.000 C 
ATOM     31  C   UNL     1      40.164   6.131  17.408  0.00  0.00    +0.000 C 
ATOM     32  C   UNL     1      39.855   5.522  16.057  0.00  0.00    +0.000 C 
ENDBRANCH  27  28
ENDBRANCH  26  27
ENDBRANCH  24  26
ENDBRANCH  23  24
ENDBRANCH  10  23
TORSDOF 7
ENDMDL
MODEL 6
REMARK VINA RESULT:      -7.1      2.429      7.552
REMARK  Name = 
REMARK  7 active torsions:
REMARK  status: ('A' for Active; 'I' for Inactive)
REMARK    1  A    between atoms: C_8  and  C_9
REMARK    2  A    between atoms: C_15  and  C_16
REMARK    3  A    between atoms: N_22  and  C_23
REMARK    4  A    between atoms: C_23  and  C_24
REMARK    5  A    between atoms: C_24  and  C_26
REMARK    6  A    between atoms: C_26  and  N_27
REMARK    7  A    between atoms: N_27  and  C_28
REMARK                            x       y       z     vdW  Elec       q    Type
REMARK                         _______ _______ _______ _____ _____    ______ ____
ROOT
ATOM      1  C   UNL     1      43.715   6.603  13.760  0.00  0.00    +0.000 C 
ATOM      2  C   UNL     1      42.551   5.656  13.729  0.00  0.00    +0.000 A 
ATOM      3  C   UNL     1      42.495   4.625  12.814  0.00  0.00    +0.000 A 
ATOM      4  C   UNL     1      41.433   3.756  12.784  0.00  0.00    +0.000 A 
ATOM      5  C   UNL     1      40.366   3.876  13.675  0.00  0.00    +0.000 A 
ATOM      6  C   UNL     1      40.409   4.902  14.594  0.00  0.00    +0.000 A 
ATOM      7  C   UNL     1      41.499   5.778  14.611  0.00  0.00    +0.000 A 
ATOM      8  C   UNL     1      39.246   4.779  15.329  0.00  0.00    +0.000 A 
ATOM      9  C   UNL     1      38.500   3.707  14.877  0.00  0.00    +0.000 A 
ATOM     10  N   UNL     1      39.239   3.195  13.864  0.00  0.00    +0.000 N 
ENDROOT
BRANCH   8  11
ATOM     11  C   UNL     1      38.893   5.672  16.420  0.00  0.00    +0.000 A 
ATOM     12  C   UNL     1      39.266   5.336  17.721  0.00  0.00    +0.000 A 
ATOM     13  C   UNL     1      38.963   6.129  18.800  0.00  0.00    +0.000 A 
ATOM     14  C   UNL     1      38.277   7.286  18.623  0.00  0.00    +0.000 A 
ATOM     15  C   UNL     1      37.885   7.655  17.329  0.00  0.00    +0.000 A 
ATOM     16  C   UNL     1      38.203   6.838  16.260  0.00  0.00    +0.000 A 
ENDBRANCH   8  11
BRANCH   9  17
ATOM     17  C   UNL     1      37.215   3.213  15.354  0.00  0.00    +0.000 A 
ATOM     18  C   UNL     1      37.145   2.566  16.569  0.00  0.00    +0.000 A 
ATOM     19  C   UNL     1      35.963   2.067  17.095  0.00  0.00    +0.000 A 
ATOM     20  C   UNL     1      34.789   2.213  16.387  0.00  0.00    +0.000 A 
ATOM     21  C   UNL     1      34.825   2.852  15.176  0.00  0.00    +0.000 A 
ATOM     22  C   UNL     1      36.018   3.334  14.685  0.00  0.00    +0.000 A 
ENDBRANCH   9  17
BRANCH  10  23
ATOM     23  C   UNL     1      38.840   2.041  13.079  0.00  0.00    +0.000 C 
BRANCH  23  24
ATOM     24  C   UNL     1      39.709   0.783  13.802  0.00  0.00    +0.000 C 
ATOM     25  O   UNL     1      39.957   0.116  12.425  0.00  0.00    +0.000 OA
BRANCH  24  26
ATOM     26  C   UNL     1      38.318  -0.111  14.050  0.00  0.00    +0.000 C 
BRANCH  26  27
ATOM     27  N   UNL     1      38.492  -0.398  15.455  0.00  0.00    +0.000 NA
BRANCH  27  28
ATOM     28  C   UNL     1      37.561  -1.353  15.975  0.00  0.00    +0.000 C 
ATOM     29  C   UNL     1      37.422  -1.369  17.456  0.00  0.00    +0.000 C 
ATOM     30  C   UNL     1      36.088  -2.078  17.670  0.00  0.00    +0.000 C 
ATOM     31  C   UNL     1      35.221  -1.544  16.548  0.00  0.00    +0.000 C 
ATOM     32  C   UNL     1      36.165  -1.143  15.434  0.00  0.00    +0.000 C 
ENDBRANCH  27  28
ENDBRANCH  26  27
ENDBRANCH  24  26
ENDBRANCH  23  24
ENDBRANCH  10  23
TORSDOF 7
ENDMDL
MODEL 7
REMARK VINA RESULT:      -7.0      3.084      6.829
REMARK  Name = 
REMARK  7 active torsions:
REMARK  status: ('A' for Active; 'I' for Inactive)
REMARK    1  A    between atoms: C_8  and  C_9
REMARK    2  A    between atoms: C_15  and  C_16
REMARK    3  A    between atoms: N_22  and  C_23
REMARK    4  A    between atoms: C_23  and  C_24
REMARK    5  A    between atoms: C_24  and  C_26
REMARK    6  A    between atoms: C_26  and  N_27
REMARK    7  A    between atoms: N_27  and  C_28
REMARK                            x       y       z     vdW  Elec       q    Type
REMARK                         _______ _______ _______ _____ _____    ______ ____
ROOT
ATOM      1  C   UNL     1      37.310   3.145  10.622  0.00  0.00    +0.000 C 
ATOM      2  C   UNL     1      37.713   1.818  11.195  0.00  0.00    +0.000 A 
ATOM      3  C   UNL     1      38.525   0.954  10.490  0.00  0.00    +0.000 A 
ATOM      4  C   UNL     1      38.897  -0.260  11.012  0.00  0.00    +0.000 A 
ATOM      5  C   UNL     1      38.472  -0.673  12.275  0.00  0.00    +0.000 A 
ATOM      6  C   UNL     1      37.661   0.180  12.990  0.00  0.00    +0.000 A 
ATOM      7  C   UNL     1      37.292   1.414  12.444  0.00  0.00    +0.000 A 
ATOM      8  C   UNL     1      37.402  -0.476  14.178  0.00  0.00    +0.000 A 
ATOM      9  C   UNL     1      38.035  -1.705  14.199  0.00  0.00    +0.000 A 
ATOM     10  N   UNL     1      38.674  -1.766  13.006  0.00  0.00    +0.000 N 
ENDROOT
BRANCH   8  11
ATOM     11  C   UNL     1      36.577   0.083  15.236  0.00  0.00    +0.000 A 
ATOM     12  C   UNL     1      36.824   1.384  15.675  0.00  0.00    +0.000 A 
ATOM     13  C   UNL     1      36.087   1.974  16.673  0.00  0.00    +0.000 A 
ATOM     14  C   UNL     1      35.078   1.291  17.269  0.00  0.00    +0.000 A 
ATOM     15  C   UNL     1      34.802  -0.018  16.853  0.00  0.00    +0.000 A 
ATOM     16  C   UNL     1      35.559  -0.589  15.846  0.00  0.00    +0.000 A 
ENDBRANCH   8  11
BRANCH   9  17
ATOM     17  C   UNL     1      38.037  -2.721  15.241  0.00  0.00    +0.000 A 
ATOM     18  C   UNL     1      38.908  -2.605  16.302  0.00  0.00    +0.000 A 
ATOM     19  C   UNL     1      38.974  -3.528  17.336  0.00  0.00    +0.000 A 
ATOM     20  C   UNL     1      38.136  -4.622  17.323  0.00  0.00    +0.000 A 
ATOM     21  C   UNL     1      37.257  -4.768  16.281  0.00  0.00    +0.000 A 
ATOM     22  C   UNL     1      37.221  -3.830  15.273  0.00  0.00    +0.000 A 
ENDBRANCH   9  17
BRANCH  10  23
ATOM     23  C   UNL     1      39.478  -2.897  12.580  0.00  0.00    +0.000 C 
BRANCH  23  24
ATOM     24  C   UNL     1      40.978  -2.184  12.260  0.00  0.00    +0.000 C 
ATOM     25  O   UNL     1      41.549  -3.532  11.751  0.00  0.00    +0.000 OA
BRANCH  24  26
ATOM     26  C   UNL     1      41.514  -2.479  13.816  0.00  0.00    +0.000 C 
BRANCH  26  27
ATOM     27  N   UNL     1      42.298  -1.281  14.006  0.00  0.00    +0.000 NA
BRANCH  27  28
ATOM     28  C   UNL     1      41.809  -0.144  13.287  0.00  0.00    +0.000 C 
ATOM     29  C   UNL     1      40.989   0.810  14.081  0.00  0.00    +0.000 C 
ATOM     30  C   UNL     1      41.033   2.084  13.243  0.00  0.00    +0.000 C 
ATOM     31  C   UNL     1      42.455   2.116  12.724  0.00  0.00    +0.000 C 
ATOM     32  C   UNL     1      42.928   0.678  12.688  0.00  0.00    +0.000 C 
ENDBRANCH  27  28
ENDBRANCH  26  27
ENDBRANCH  24  26
ENDBRANCH  23  24
ENDBRANCH  10  23
TORSDOF 7
ENDMDL
MODEL 8
REMARK VINA RESULT:      -6.9     25.251     28.607
REMARK  Name = 
REMARK  7 active torsions:
REMARK  status: ('A' for Active; 'I' for Inactive)
REMARK    1  A    between atoms: C_8  and  C_9
REMARK    2  A    between atoms: C_15  and  C_16
REMARK    3  A    between atoms: N_22  and  C_23
REMARK    4  A    between atoms: C_23  and  C_24
REMARK    5  A    between atoms: C_24  and  C_26
REMARK    6  A    between atoms: C_26  and  N_27
REMARK    7  A    between atoms: N_27  and  C_28
REMARK                            x       y       z     vdW  Elec       q    Type
REMARK                         _______ _______ _______ _____ _____    ______ ____
ROOT
ATOM      1  C   UNL     1      32.173  15.949  33.438  0.00  0.00    +0.000 C 
ATOM      2  C   UNL     1      31.306  15.939  34.663  0.00  0.00    +0.000 A 
ATOM      3  C   UNL     1      31.857  15.966  35.927  0.00  0.00    +0.000 A 
ATOM      4  C   UNL     1      31.067  15.959  37.050  0.00  0.00    +0.000 A 
ATOM      5  C   UNL     1      29.675  15.926  36.962  0.00  0.00    +0.000 A 
ATOM      6  C   UNL     1      29.111  15.899  35.706  0.00  0.00    +0.000 A 
ATOM      7  C   UNL     1      29.931  15.906  34.572  0.00  0.00    +0.000 A 
ATOM      8  C   UNL     1      27.747  15.869  35.921  0.00  0.00    +0.000 A 
ATOM      9  C   UNL     1      27.472  15.875  37.275  0.00  0.00    +0.000 A 
ATOM     10  N   UNL     1      28.693  15.911  37.860  0.00  0.00    +0.000 N 
ENDROOT
BRANCH   8  11
ATOM     11  C   UNL     1      26.769  15.838  34.845  0.00  0.00    +0.000 A 
ATOM     12  C   UNL     1      26.417  14.612  34.281  0.00  0.00    +0.000 A 
ATOM     13  C   UNL     1      25.505  14.509  33.260  0.00  0.00    +0.000 A 
ATOM     14  C   UNL     1      24.910  15.622  32.763  0.00  0.00    +0.000 A 
ATOM     15  C   UNL     1      25.241  16.871  33.307  0.00  0.00    +0.000 A 
ATOM     16  C   UNL     1      26.162  16.948  34.334  0.00  0.00    +0.000 A 
ENDBRANCH   8  11
BRANCH   9  17
ATOM     17  C   UNL     1      26.183  15.850  37.952  0.00  0.00    +0.000 A 
ATOM     18  C   UNL     1      25.545  17.036  38.242  0.00  0.00    +0.000 A 
ATOM     19  C   UNL     1      24.316  17.101  38.884  0.00  0.00    +0.000 A 
ATOM     20  C   UNL     1      23.684  15.935  39.259  0.00  0.00    +0.000 A 
ATOM     21  C   UNL     1      24.293  14.738  38.985  0.00  0.00    +0.000 A 
ATOM     22  C   UNL     1      25.513  14.714  38.346  0.00  0.00    +0.000 A 
ENDBRANCH   9  17
BRANCH  10  23
ATOM     23  C   UNL     1      28.899  15.927  39.296  0.00  0.00    +0.000 C 
BRANCH  23  24
ATOM     24  C   UNL     1      28.849  14.285  39.696  0.00  0.00    +0.000 C 
ATOM     25  O   UNL     1      28.190  14.602  41.063  0.00  0.00    +0.000 OA
BRANCH  24  26
ATOM     26  C   UNL     1      30.383  14.340  40.358  0.00  0.00    +0.000 C 
BRANCH  26  27
ATOM     27  N   UNL     1      30.855  13.047  39.918  0.00  0.00    +0.000 NA
BRANCH  27  28
ATOM     28  C   UNL     1      31.948  13.108  38.996  0.00  0.00    +0.000 C 
ATOM     29  C   UNL     1      33.207  12.460  39.453  0.00  0.00    +0.000 C 
ATOM     30  C   UNL     1      33.980  12.252  38.154  0.00  0.00    +0.000 C 
ATOM     31  C   UNL     1      32.905  11.855  37.164  0.00  0.00    +0.000 C 
ATOM     32  C   UNL     1      31.614  12.463  37.670  0.00  0.00    +0.000 C 
ENDBRANCH  27  28
ENDBRANCH  26  27
ENDBRANCH  24  26
ENDBRANCH  23  24
ENDBRANCH  10  23
TORSDOF 7
ENDMDL
MODEL 9
REMARK VINA RESULT:      -6.9     25.362     28.487
REMARK  Name = 
REMARK  7 active torsions:
REMARK  status: ('A' for Active; 'I' for Inactive)
REMARK    1  A    between atoms: C_8  and  C_9
REMARK    2  A    between atoms: C_15  and  C_16
REMARK    3  A    between atoms: N_22  and  C_23
REMARK    4  A    between atoms: C_23  and  C_24
REMARK    5  A    between atoms: C_24  and  C_26
REMARK    6  A    between atoms: C_26  and  N_27
REMARK    7  A    between atoms: N_27  and  C_28
REMARK                            x       y       z     vdW  Elec       q    Type
REMARK                         _______ _______ _______ _____ _____    ______ ____
ROOT
ATOM      1  C   UNL     1      22.752  15.128  39.760  0.00  0.00    +0.000 C 
ATOM      2  C   UNL     1      24.214  15.240  39.440  0.00  0.00    +0.000 A 
ATOM      3  C   UNL     1      25.167  15.212  40.438  0.00  0.00    +0.000 A 
ATOM      4  C   UNL     1      26.505  15.313  40.149  0.00  0.00    +0.000 A 
ATOM      5  C   UNL     1      26.960  15.447  38.837  0.00  0.00    +0.000 A 
ATOM      6  C   UNL     1      26.020  15.476  37.831  0.00  0.00    +0.000 A 
ATOM      7  C   UNL     1      24.661  15.372  38.143  0.00  0.00    +0.000 A 
ATOM      8  C   UNL     1      26.744  15.614  36.662  0.00  0.00    +0.000 A 
ATOM      9  C   UNL     1      28.097  15.670  36.936  0.00  0.00    +0.000 A 
ATOM     10  N   UNL     1      28.165  15.563  38.284  0.00  0.00    +0.000 N 
ENDROOT
BRANCH   8  11
ATOM     11  C   UNL     1      26.130  15.683  35.346  0.00  0.00    +0.000 A 
ATOM     12  C   UNL     1      26.142  14.552  34.530  0.00  0.00    +0.000 A 
ATOM     13  C   UNL     1      25.586  14.547  33.274  0.00  0.00    +0.000 A 
ATOM     14  C   UNL     1      24.997  15.667  32.786  0.00  0.00    +0.000 A 
ATOM     15  C   UNL     1      24.967  16.822  33.579  0.00  0.00    +0.000 A 
ATOM     16  C   UNL     1      25.534  16.801  34.840  0.00  0.00    +0.000 A 
ENDBRANCH   8  11
BRANCH   9  17
ATOM     17  C   UNL     1      29.217  15.812  36.016  0.00  0.00    +0.000 A 
ATOM     18  C   UNL     1      29.436  17.022  35.393  0.00  0.00    +0.000 A 
ATOM     19  C   UNL     1      30.478  17.241  34.505  0.00  0.00    +0.000 A 
ATOM     20  C   UNL     1      31.350  16.214  34.215  0.00  0.00    +0.000 A 
ATOM     21  C   UNL     1      31.161  14.998  34.818  0.00  0.00    +0.000 A 
ATOM     22  C   UNL     1      30.114  14.818  35.695  0.00  0.00    +0.000 A 
ENDBRANCH   9  17
BRANCH  10  23
ATOM     23  C   UNL     1      29.409  15.576  39.033  0.00  0.00    +0.000 C 
BRANCH  23  24
ATOM     24  C   UNL     1      29.486  14.005  39.651  0.00  0.00    +0.000 C 
ATOM     25  O   UNL     1      29.919  14.536  41.041  0.00  0.00    +0.000 OA
BRANCH  24  26
ATOM     26  C   UNL     1      31.075  13.828  39.160  0.00  0.00    +0.000 C 
BRANCH  26  27
ATOM     27  N   UNL     1      31.242  12.426  39.468  0.00  0.00    +0.000 NA
BRANCH  27  28
ATOM     28  C   UNL     1      32.318  11.799  38.762  0.00  0.00    +0.000 C 
ATOM     29  C   UNL     1      32.386  12.097  37.306  0.00  0.00    +0.000 C 
ATOM     30  C   UNL     1      33.823  11.731  36.945  0.00  0.00    +0.000 C 
ATOM     31  C   UNL     1      34.619  12.205  38.143  0.00  0.00    +0.000 C 
ATOM     32  C   UNL     1      33.669  12.183  39.322  0.00  0.00    +0.000 C 
ENDBRANCH  27  28
ENDBRANCH  26  27
ENDBRANCH  24  26
ENDBRANCH  23  24
ENDBRANCH  10  23
TORSDOF 7
ENDMDL
MODEL 10
REMARK VINA RESULT:      -6.9     25.315     29.088
REMARK  Name = 
REMARK  7 active torsions:
REMARK  status: ('A' for Active; 'I' for Inactive)
REMARK    1  A    between atoms: C_8  and  C_9
REMARK    2  A    between atoms: C_15  and  C_16
REMARK    3  A    between atoms: N_22  and  C_23
REMARK    4  A    between atoms: C_23  and  C_24
REMARK    5  A    between atoms: C_24  and  C_26
REMARK    6  A    between atoms: C_26  and  N_27
REMARK    7  A    between atoms: N_27  and  C_28
REMARK                            x       y       z     vdW  Elec       q    Type
REMARK                         _______ _______ _______ _____ _____    ______ ____
ROOT
ATOM      1  C   UNL     1      32.305  15.283  34.042  0.00  0.00    +0.000 C 
ATOM      2  C   UNL     1      31.375  15.344  35.219  0.00  0.00    +0.000 A 
ATOM      3  C   UNL     1      31.855  15.288  36.511  0.00  0.00    +0.000 A 
ATOM      4  C   UNL     1      31.008  15.345  37.589  0.00  0.00    +0.000 A 
ATOM      5  C   UNL     1      29.627  15.462  37.427  0.00  0.00    +0.000 A 
ATOM      6  C   UNL     1      29.134  15.519  36.142  0.00  0.00    +0.000 A 
ATOM      7  C   UNL     1      30.011  15.460  35.054  0.00  0.00    +0.000 A 
ATOM      8  C   UNL     1      27.764  15.631  36.284  0.00  0.00    +0.000 A 
ATOM      9  C   UNL     1      27.417  15.642  37.621  0.00  0.00    +0.000 A 
ATOM     10  N   UNL     1      28.600  15.536  38.270  0.00  0.00    +0.000 N 
ENDROOT
BRANCH   8  11
ATOM     11  C   UNL     1      26.850  15.726  35.157  0.00  0.00    +0.000 A 
ATOM     12  C   UNL     1      26.451  14.559  34.505  0.00  0.00    +0.000 A 
ATOM     13  C   UNL     1      25.595  14.573  33.432  0.00  0.00    +0.000 A 
ATOM     14  C   UNL     1      25.103  15.750  32.969  0.00  0.00    +0.000 A 
ATOM     15  C   UNL     1      25.483  16.942  33.600  0.00  0.00    +0.000 A 
ATOM     16  C   UNL     1      26.347  16.900  34.679  0.00  0.00    +0.000 A 
ENDBRANCH   8  11
BRANCH   9  17
ATOM     17  C   UNL     1      26.096  15.742  38.228  0.00  0.00    +0.000 A 
ATOM     18  C   UNL     1      25.622  16.974  38.622  0.00  0.00    +0.000 A 
ATOM     19  C   UNL     1      24.378  17.157  39.207  0.00  0.00    +0.000 A 
ATOM     20  C   UNL     1      23.558  16.068  39.414  0.00  0.00    +0.000 A 
ATOM     21  C   UNL     1      24.000  14.828  39.032  0.00  0.00    +0.000 A 
ATOM     22  C   UNL     1      25.243  14.686  38.455  0.00  0.00    +0.000 A 
ENDBRANCH   9  17
BRANCH  10  23
ATOM     23  C   UNL     1      28.727  15.503  39.716  0.00  0.00    +0.000 C 
BRANCH  23  24
ATOM     24  C   UNL     1      28.313  13.906  40.088  0.00  0.00    +0.000 C 
ATOM     25  O   UNL     1      27.850  14.321  41.508  0.00  0.00    +0.000 OA
BRANCH  24  26
ATOM     26  C   UNL     1      29.859  13.570  40.627  0.00  0.00    +0.000 C 
BRANCH  26  27
ATOM     27  N   UNL     1      30.029  12.277  40.003  0.00  0.00    +0.000 NA
BRANCH  27  28
ATOM     28  C   UNL     1      29.787  11.171  40.879  0.00  0.00    +0.000 C 
ATOM     29  C   UNL     1      28.585  10.355  40.561  0.00  0.00    +0.000 C 
ATOM     30  C   UNL     1      28.850   9.046  41.299  0.00  0.00    +0.000 C 
ATOM     31  C   UNL     1      30.336   8.829  41.108  0.00  0.00    +0.000 C 
ATOM     32  C   UNL     1      30.946  10.200  40.907  0.00  0.00    +0.000 C 
ENDBRANCH  27  28
ENDBRANCH  26  27
ENDBRANCH  24  26
ENDBRANCH  23  24
ENDBRANCH  10  23
TORSDOF 7
ENDMDL
