MODEL 1
REMARK VINA RESULT:      -7.6      0.000      0.000
REMARK  Name = 
REMARK  9 active torsions:
REMARK  status: ('A' for Active; 'I' for Inactive)
REMARK    1  A    between atoms: C_2  and  C_3
REMARK    2  A    between atoms: C_3  and  C_4
REMARK    3  A    between atoms: C_4  and  C_5
REMARK    4  A    between atoms: C_5  and  C_6
REMARK    5  A    between atoms: C_6  and  N_7
REMARK    6  A    between atoms: C_10  and  C_11
REMARK    7  A    between atoms: C_11  and  O_13
REMARK    8  A    between atoms: O_13  and  C_14
REMARK    9  A    between atoms: C_14  and  C_15
REMARK                            x       y       z     vdW  Elec       q    Type
REMARK                         _______ _______ _______ _____ _____    ______ ____
ROOT
ATOM      1  N   UNL     1      36.203   0.652  15.890  0.00  0.00    +0.000 N 
ATOM      2  C   UNL     1      36.011   1.973  15.751  0.00  0.00    +0.000 A 
ATOM      3  N   UNL     1      34.778   2.607  16.092  0.00  0.00    +0.000 NA
ATOM      4  C   UNL     1      37.143   2.570  15.253  0.00  0.00    +0.000 A 
ATOM      5  C   UNL     1      38.061   1.569  15.083  0.00  0.00    +0.000 A 
ATOM      6  N   UNL     1      39.342   1.545  14.629  0.00  0.00    +0.000 NA
ATOM      7  C   UNL     1      40.040   0.399  14.560  0.00  0.00    +0.000 A 
ATOM      8  C   UNL     1      41.338   0.359  14.103  0.00  0.00    +0.000 A 
ATOM      9  C   UNL     1      42.067  -0.806  14.026  0.00  0.00    +0.000 A 
ATOM     10  C   UNL     1      41.446  -1.969  14.429  0.00  0.00    +0.000 A 
ATOM     11  C   UNL     1      40.161  -1.951  14.886  0.00  0.00    +0.000 A 
ATOM     12  C   UNL     1      39.431  -0.762  14.960  0.00  0.00    +0.000 A 
ATOM     13  N   UNL     1      38.167  -0.768  15.412  0.00  0.00    +0.000 NA
ATOM     14  C   UNL     1      37.457   0.398  15.482  0.00  0.00    +0.000 A 
ENDROOT
BRANCH   4  15
ATOM     15  C   UNL     1      37.326   3.979  14.966  0.00  0.00    +0.000 C 
ATOM     16  O   UNL     1      36.772   4.503  13.964  0.00  0.00    +0.000 OA
BRANCH  15  17
ATOM     17  O   UNL     1      38.103   4.806  15.761  0.00  0.00    +0.000 OA
BRANCH  17  18
ATOM     18  C   UNL     1      38.098   4.811  17.160  0.00  0.00    +0.000 C 
BRANCH  18  19
ATOM     19  C   UNL     1      39.322   5.472  17.738  0.00  0.00    +0.000 A 
ATOM     20  C   UNL     1      40.377   5.789  16.912  0.00  0.00    +0.000 A 
ATOM     21  C   UNL     1      41.507   6.390  17.412  0.00  0.00    +0.000 A 
ATOM     22  C   UNL     1      41.596   6.685  18.751  0.00  0.00    +0.000 A 
ATOM     23  C   UNL     1      40.529   6.359  19.557  0.00  0.00    +0.000 A 
ATOM     24  C   UNL     1      39.384   5.755  19.082  0.00  0.00    +0.000 A 
ENDBRANCH  18  19
ENDBRANCH  17  18
ENDBRANCH  15  17
ENDBRANCH   4  15
BRANCH   1  25
ATOM     25  C   UNL     1      35.290  -0.355  16.374  0.00  0.00    +0.000 C 
BRANCH  25  26
ATOM     26  C   UNL     1      35.490  -0.493  17.862  0.00  0.00    +0.000 C 
BRANCH  26  27
ATOM     27  C   UNL     1      36.218  -1.739  18.247  0.00  0.00    +0.000 C 
BRANCH  27  28
ATOM     28  C   UNL     1      37.444  -1.389  19.036  0.00  0.00    +0.000 C 
BRANCH  28  30
ATOM     29  C   UNL     1      38.211  -3.416  17.808  0.00  0.00    +0.000 C 
ATOM     30  C   UNL     1      38.375  -2.606  19.079  0.00  0.00    +0.000 C 
ENDBRANCH  28  30
ENDBRANCH  27  28
ENDBRANCH  26  27
ENDBRANCH  25  26
ENDBRANCH   1  25
TORSDOF 9
ENDMDL
MODEL 2
REMARK VINA RESULT:      -7.5      1.694      6.091
REMARK  Name = 
REMARK  9 active torsions:
REMARK  status: ('A' for Active; 'I' for Inactive)
REMARK    1  A    between atoms: C_2  and  C_3
REMARK    2  A    between atoms: C_3  and  C_4
REMARK    3  A    between atoms: C_4  and  C_5
REMARK    4  A    between atoms: C_5  and  C_6
REMARK    5  A    between atoms: C_6  and  N_7
REMARK    6  A    between atoms: C_10  and  C_11
REMARK    7  A    between atoms: C_11  and  O_13
REMARK    8  A    between atoms: O_13  and  C_14
REMARK    9  A    between atoms: C_14  and  C_15
REMARK                            x       y       z     vdW  Elec       q    Type
REMARK                         _______ _______ _______ _____ _____    ______ ____
ROOT
ATOM      1  N   UNL     1      37.760   2.896  15.029  0.00  0.00    +0.000 N 
ATOM      2  C   UNL     1      36.556   2.583  15.530  0.00  0.00    +0.000 A 
ATOM      3  N   UNL     1      35.535   3.560  15.739  0.00  0.00    +0.000 NA
ATOM      4  C   UNL     1      36.483   1.237  15.793  0.00  0.00    +0.000 A 
ATOM      5  C   UNL     1      37.695   0.711  15.434  0.00  0.00    +0.000 A 
ATOM      6  N   UNL     1      38.212  -0.546  15.462  0.00  0.00    +0.000 NA
ATOM      7  C   UNL     1      39.463  -0.799  15.042  0.00  0.00    +0.000 A 
ATOM      8  C   UNL     1      40.000  -2.067  15.064  0.00  0.00    +0.000 A 
ATOM      9  C   UNL     1      41.279  -2.343  14.637  0.00  0.00    +0.000 A 
ATOM     10  C   UNL     1      42.034  -1.286  14.173  0.00  0.00    +0.000 A 
ATOM     11  C   UNL     1      41.520  -0.023  14.143  0.00  0.00    +0.000 A 
ATOM     12  C   UNL     1      40.221   0.245  14.578  0.00  0.00    +0.000 A 
ATOM     13  N   UNL     1      39.735   1.497  14.540  0.00  0.00    +0.000 NA
ATOM     14  C   UNL     1      38.463   1.754  14.968  0.00  0.00    +0.000 A 
ENDROOT
BRANCH   4  15
ATOM     15  C   UNL     1      35.348   0.520  16.339  0.00  0.00    +0.000 C 
ATOM     16  O   UNL     1      34.481   1.124  17.023  0.00  0.00    +0.000 OA
BRANCH  15  17
ATOM     17  O   UNL     1      35.162  -0.839  16.144  0.00  0.00    +0.000 OA
BRANCH  17  18
ATOM     18  C   UNL     1      35.011  -1.783  17.166  0.00  0.00    +0.000 C 
BRANCH  18  19
ATOM     19  C   UNL     1      36.314  -2.438  17.544  0.00  0.00    +0.000 A 
ATOM     20  C   UNL     1      36.727  -3.566  16.872  0.00  0.00    +0.000 A 
ATOM     21  C   UNL     1      37.910  -4.186  17.196  0.00  0.00    +0.000 A 
ATOM     22  C   UNL     1      38.700  -3.681  18.202  0.00  0.00    +0.000 A 
ATOM     23  C   UNL     1      38.266  -2.552  18.858  0.00  0.00    +0.000 A 
ATOM     24  C   UNL     1      37.084  -1.911  18.554  0.00  0.00    +0.000 A 
ENDBRANCH  18  19
ENDBRANCH  17  18
ENDBRANCH  15  17
ENDBRANCH   4  15
BRANCH   1  25
ATOM     25  C   UNL     1      38.269   4.182  14.616  0.00  0.00    +0.000 C 
BRANCH  25  26
ATOM     26  C   UNL     1      39.202   4.684  15.689  0.00  0.00    +0.000 C 
BRANCH  26  27
ATOM     27  C   UNL     1      38.507   5.461  16.759  0.00  0.00    +0.000 C 
BRANCH  27  28
ATOM     28  C   UNL     1      38.917   4.949  18.108  0.00  0.00    +0.000 C 
BRANCH  28  30
ATOM     29  C   UNL     1      40.512   6.205  19.553  0.00  0.00    +0.000 C 
ATOM     30  C   UNL     1      39.077   6.136  19.065  0.00  0.00    +0.000 C 
ENDBRANCH  28  30
ENDBRANCH  27  28
ENDBRANCH  26  27
ENDBRANCH  25  26
ENDBRANCH   1  25
TORSDOF 9
ENDMDL
MODEL 3
REMARK VINA RESULT:      -7.3      1.533      4.187
REMARK  Name = 
REMARK  9 active torsions:
REMARK  status: ('A' for Active; 'I' for Inactive)
REMARK    1  A    between atoms: C_2  and  C_3
REMARK    2  A    between atoms: C_3  and  C_4
REMARK    3  A    between atoms: C_4  and  C_5
REMARK    4  A    between atoms: C_5  and  C_6
REMARK    5  A    between atoms: C_6  and  N_7
REMARK    6  A    between atoms: C_10  and  C_11
REMARK    7  A    between atoms: C_11  and  O_13
REMARK    8  A    between atoms: O_13  and  C_14
REMARK    9  A    between atoms: C_14  and  C_15
REMARK                            x       y       z     vdW  Elec       q    Type
REMARK                         _______ _______ _______ _____ _____    ______ ____
ROOT
ATOM      1  N   UNL     1      38.694   1.227  14.058  0.00  0.00    +0.000 N 
ATOM      2  C   UNL     1      38.707   2.531  14.373  0.00  0.00    +0.000 A 
ATOM      3  N   UNL     1      39.645   3.447  13.807  0.00  0.00    +0.000 NA
ATOM      4  C   UNL     1      37.717   2.813  15.283  0.00  0.00    +0.000 A 
ATOM      5  C   UNL     1      37.076   1.628  15.529  0.00  0.00    +0.000 A 
ATOM      6  N   UNL     1      36.032   1.281  16.327  0.00  0.00    +0.000 NA
ATOM      7  C   UNL     1      35.586   0.015  16.387  0.00  0.00    +0.000 A 
ATOM      8  C   UNL     1      34.530  -0.352  17.191  0.00  0.00    +0.000 A 
ATOM      9  C   UNL     1      34.061  -1.644  17.264  0.00  0.00    +0.000 A 
ATOM     10  C   UNL     1      34.696  -2.592  16.490  0.00  0.00    +0.000 A 
ATOM     11  C   UNL     1      35.743  -2.250  15.686  0.00  0.00    +0.000 A 
ATOM     12  C   UNL     1      36.210  -0.935  15.621  0.00  0.00    +0.000 A 
ATOM     13  N   UNL     1      37.244  -0.619  14.823  0.00  0.00    +0.000 NA
ATOM     14  C   UNL     1      37.697   0.668  14.763  0.00  0.00    +0.000 A 
ENDROOT
BRANCH   4  15
ATOM     15  C   UNL     1      37.415   4.106  15.864  0.00  0.00    +0.000 C 
ATOM     16  O   UNL     1      36.726   4.946  15.227  0.00  0.00    +0.000 OA
BRANCH  15  17
ATOM     17  O   UNL     1      37.858   4.479  17.122  0.00  0.00    +0.000 OA
BRANCH  17  18
ATOM     18  C   UNL     1      39.129   4.990  17.406  0.00  0.00    +0.000 C 
BRANCH  18  19
ATOM     19  C   UNL     1      39.092   6.082  18.443  0.00  0.00    +0.000 A 
ATOM     20  C   UNL     1      38.109   7.045  18.380  0.00  0.00    +0.000 A 
ATOM     21  C   UNL     1      38.051   8.055  19.311  0.00  0.00    +0.000 A 
ATOM     22  C   UNL     1      38.980   8.114  20.322  0.00  0.00    +0.000 A 
ATOM     23  C   UNL     1      39.953   7.141  20.364  0.00  0.00    +0.000 A 
ATOM     24  C   UNL     1      40.034   6.118  19.443  0.00  0.00    +0.000 A 
ENDBRANCH  18  19
ENDBRANCH  17  18
ENDBRANCH  15  17
ENDBRANCH   4  15
BRANCH   1  25
ATOM     25  C   UNL     1      39.549   0.501  13.151  0.00  0.00    +0.000 C 
BRANCH  25  26
ATOM     26  C   UNL     1      40.655  -0.134  13.956  0.00  0.00    +0.000 C 
BRANCH  26  27
ATOM     27  C   UNL     1      41.080  -1.465  13.428  0.00  0.00    +0.000 C 
BRANCH  27  28
ATOM     28  C   UNL     1      40.156  -2.532  13.936  0.00  0.00    +0.000 C 
BRANCH  28  30
ATOM     29  C   UNL     1      39.380  -3.063  16.243  0.00  0.00    +0.000 C 
ATOM     30  C   UNL     1      40.596  -2.943  15.346  0.00  0.00    +0.000 C 
ENDBRANCH  28  30
ENDBRANCH  27  28
ENDBRANCH  26  27
ENDBRANCH  25  26
ENDBRANCH   1  25
TORSDOF 9
ENDMDL
MODEL 4
REMARK VINA RESULT:      -7.2      1.765      5.670
REMARK  Name = 
REMARK  9 active torsions:
REMARK  status: ('A' for Active; 'I' for Inactive)
REMARK    1  A    between atoms: C_2  and  C_3
REMARK    2  A    between atoms: C_3  and  C_4
REMARK    3  A    between atoms: C_4  and  C_5
REMARK    4  A    between atoms: C_5  and  C_6
REMARK    5  A    between atoms: C_6  and  N_7
REMARK    6  A    between atoms: C_10  and  C_11
REMARK    7  A    between atoms: C_11  and  O_13
REMARK    8  A    between atoms: O_13  and  C_14
REMARK    9  A    between atoms: C_14  and  C_15
REMARK                            x       y       z     vdW  Elec       q    Type
REMARK                         _______ _______ _______ _____ _____    ______ ____
ROOT
ATOM      1  N   UNL     1      36.417   2.470  15.912  0.00  0.00    +0.000 N 
ATOM      2  C   UNL     1      36.591   2.176  14.615  0.00  0.00    +0.000 A 
ATOM      3  N   UNL     1      35.731   1.280  13.911  0.00  0.00    +0.000 NA
ATOM      4  C   UNL     1      37.677   2.850  14.113  0.00  0.00    +0.000 A 
ATOM      5  C   UNL     1      38.184   3.585  15.152  0.00  0.00    +0.000 A 
ATOM      6  N   UNL     1      39.238   4.436  15.265  0.00  0.00    +0.000 NA
ATOM      7  C   UNL     1      39.526   5.044  16.428  0.00  0.00    +0.000 A 
ATOM      8  C   UNL     1      40.590   5.909  16.559  0.00  0.00    +0.000 A 
ATOM      9  C   UNL     1      40.898   6.538  17.742  0.00  0.00    +0.000 A 
ATOM     10  C   UNL     1      40.093   6.274  18.830  0.00  0.00    +0.000 A 
ATOM     11  C   UNL     1      39.034   5.421  18.722  0.00  0.00    +0.000 A 
ATOM     12  C   UNL     1      38.731   4.787  17.515  0.00  0.00    +0.000 A 
ATOM     13  N   UNL     1      37.683   3.951  17.431  0.00  0.00    +0.000 NA
ATOM     14  C   UNL     1      37.391   3.333  16.247  0.00  0.00    +0.000 A 
ENDROOT
BRANCH   4  15
ATOM     15  C   UNL     1      38.184   2.793  12.756  0.00  0.00    +0.000 C 
ATOM     16  O   UNL     1      38.200   3.826  12.038  0.00  0.00    +0.000 OA
BRANCH  15  17
ATOM     17  O   UNL     1      38.665   1.623  12.190  0.00  0.00    +0.000 OA
BRANCH  17  18
ATOM     18  C   UNL     1      39.664   0.815  12.744  0.00  0.00    +0.000 C 
BRANCH  18  19
ATOM     19  C   UNL     1      39.102  -0.317  13.561  0.00  0.00    +0.000 A 
ATOM     20  C   UNL     1      39.447  -0.433  14.890  0.00  0.00    +0.000 A 
ATOM     21  C   UNL     1      38.951  -1.457  15.660  0.00  0.00    +0.000 A 
ATOM     22  C   UNL     1      38.098  -2.384  15.109  0.00  0.00    +0.000 A 
ATOM     23  C   UNL     1      37.767  -2.247  13.780  0.00  0.00    +0.000 A 
ATOM     24  C   UNL     1      38.250  -1.230  12.984  0.00  0.00    +0.000 A 
ENDBRANCH  18  19
ENDBRANCH  17  18
ENDBRANCH  15  17
ENDBRANCH   4  15
BRANCH   1  25
ATOM     25  C   UNL     1      35.409   1.993  16.827  0.00  0.00    +0.000 C 
BRANCH  25  26
ATOM     26  C   UNL     1      35.973   0.807  17.570  0.00  0.00    +0.000 C 
BRANCH  26  27
ATOM     27  C   UNL     1      35.502  -0.504  17.031  0.00  0.00    +0.000 C 
BRANCH  27  28
ATOM     28  C   UNL     1      35.860  -1.604  17.985  0.00  0.00    +0.000 C 
BRANCH  28  30
ATOM     29  C   UNL     1      37.932  -2.280  19.192  0.00  0.00    +0.000 C 
ATOM     30  C   UNL     1      36.995  -1.125  18.897  0.00  0.00    +0.000 C 
ENDBRANCH  28  30
ENDBRANCH  27  28
ENDBRANCH  26  27
ENDBRANCH  25  26
ENDBRANCH   1  25
TORSDOF 9
ENDMDL
MODEL 5
REMARK VINA RESULT:      -7.2      2.045      6.838
REMARK  Name = 
REMARK  9 active torsions:
REMARK  status: ('A' for Active; 'I' for Inactive)
REMARK    1  A    between atoms: C_2  and  C_3
REMARK    2  A    between atoms: C_3  and  C_4
REMARK    3  A    between atoms: C_4  and  C_5
REMARK    4  A    between atoms: C_5  and  C_6
REMARK    5  A    between atoms: C_6  and  N_7
REMARK    6  A    between atoms: C_10  and  C_11
REMARK    7  A    between atoms: C_11  and  O_13
REMARK    8  A    between atoms: O_13  and  C_14
REMARK    9  A    between atoms: C_14  and  C_15
REMARK                            x       y       z     vdW  Elec       q    Type
REMARK                         _______ _______ _______ _____ _____    ______ ____
ROOT
ATOM      1  N   UNL     1      38.292   3.945  15.955  0.00  0.00    +0.000 N 
ATOM      2  C   UNL     1      39.159   3.873  14.934  0.00  0.00    +0.000 A 
ATOM      3  N   UNL     1      40.027   4.952  14.588  0.00  0.00    +0.000 NA
ATOM      4  C   UNL     1      39.068   2.649  14.316  0.00  0.00    +0.000 A 
ATOM      5  C   UNL     1      38.105   1.950  14.993  0.00  0.00    +0.000 A 
ATOM      6  N   UNL     1      37.583   0.703  14.849  0.00  0.00    +0.000 NA
ATOM      7  C   UNL     1      36.621   0.247  15.668  0.00  0.00    +0.000 A 
ATOM      8  C   UNL     1      36.082  -1.014  15.534  0.00  0.00    +0.000 A 
ATOM      9  C   UNL     1      35.096  -1.495  16.365  0.00  0.00    +0.000 A 
ATOM     10  C   UNL     1      34.645  -0.660  17.364  0.00  0.00    +0.000 A 
ATOM     11  C   UNL     1      35.166   0.592  17.514  0.00  0.00    +0.000 A 
ATOM     12  C   UNL     1      36.166   1.070  16.665  0.00  0.00    +0.000 A 
ATOM     13  N   UNL     1      36.664   2.307  16.830  0.00  0.00    +0.000 NA
ATOM     14  C   UNL     1      37.643   2.770  15.997  0.00  0.00    +0.000 A 
ENDROOT
BRANCH   4  15
ATOM     15  C   UNL     1      39.839   2.193  13.177  0.00  0.00    +0.000 C 
ATOM     16  O   UNL     1      39.437   2.415  12.004  0.00  0.00    +0.000 OA
BRANCH  15  17
ATOM     17  O   UNL     1      41.032   1.503  13.313  0.00  0.00    +0.000 OA
BRANCH  17  18
ATOM     18  C   UNL     1      41.298   0.243  12.766  0.00  0.00    +0.000 C 
BRANCH  18  19
ATOM     19  C   UNL     1      40.464  -0.844  13.390  0.00  0.00    +0.000 A 
ATOM     20  C   UNL     1      40.669  -1.185  14.709  0.00  0.00    +0.000 A 
ATOM     21  C   UNL     1      39.923  -2.175  15.304  0.00  0.00    +0.000 A 
ATOM     22  C   UNL     1      38.958  -2.839  14.586  0.00  0.00    +0.000 A 
ATOM     23  C   UNL     1      38.771  -2.480  13.270  0.00  0.00    +0.000 A 
ATOM     24  C   UNL     1      39.504  -1.492  12.647  0.00  0.00    +0.000 A 
ENDBRANCH  18  19
ENDBRANCH  17  18
ENDBRANCH  15  17
ENDBRANCH   4  15
BRANCH   1  25
ATOM     25  C   UNL     1      38.050   5.036  16.869  0.00  0.00    +0.000 C 
BRANCH  25  26
ATOM     26  C   UNL     1      38.851   4.784  18.122  0.00  0.00    +0.000 C 
BRANCH  26  27
ATOM     27  C   UNL     1      39.905   5.814  18.365  0.00  0.00    +0.000 C 
BRANCH  27  28
ATOM     28  C   UNL     1      39.634   6.523  19.658  0.00  0.00    +0.000 C 
BRANCH  28  30
ATOM     29  C   UNL     1      38.477   8.478  20.681  0.00  0.00    +0.000 C 
ATOM     30  C   UNL     1      38.735   7.735  19.385  0.00  0.00    +0.000 C 
ENDBRANCH  28  30
ENDBRANCH  27  28
ENDBRANCH  26  27
ENDBRANCH  25  26
ENDBRANCH   1  25
TORSDOF 9
ENDMDL
MODEL 6
REMARK VINA RESULT:      -7.1      1.712      4.037
REMARK  Name = 
REMARK  9 active torsions:
REMARK  status: ('A' for Active; 'I' for Inactive)
REMARK    1  A    between atoms: C_2  and  C_3
REMARK    2  A    between atoms: C_3  and  C_4
REMARK    3  A    between atoms: C_4  and  C_5
REMARK    4  A    between atoms: C_5  and  C_6
REMARK    5  A    between atoms: C_6  and  N_7
REMARK    6  A    between atoms: C_10  and  C_11
REMARK    7  A    between atoms: C_11  and  O_13
REMARK    8  A    between atoms: O_13  and  C_14
REMARK    9  A    between atoms: C_14  and  C_15
REMARK                            x       y       z     vdW  Elec       q    Type
REMARK                         _______ _______ _______ _____ _____    ______ ____
ROOT
ATOM      1  N   UNL     1      37.443  -0.397  14.175  0.00  0.00    +0.000 N 
ATOM      2  C   UNL     1      36.944   0.825  14.417  0.00  0.00    +0.000 A 
ATOM      3  N   UNL     1      36.627   1.744  13.371  0.00  0.00    +0.000 NA
ATOM      4  C   UNL     1      36.800   1.023  15.769  0.00  0.00    +0.000 A 
ATOM      5  C   UNL     1      37.231  -0.128  16.372  0.00  0.00    +0.000 A 
ATOM      6  N   UNL     1      37.326  -0.522  17.669  0.00  0.00    +0.000 NA
ATOM      7  C   UNL     1      37.795  -1.737  18.000  0.00  0.00    +0.000 A 
ATOM      8  C   UNL     1      37.898  -2.151  19.310  0.00  0.00    +0.000 A 
ATOM      9  C   UNL     1      38.376  -3.391  19.665  0.00  0.00    +0.000 A 
ATOM     10  C   UNL     1      38.763  -4.237  18.648  0.00  0.00    +0.000 A 
ATOM     11  C   UNL     1      38.669  -3.847  17.344  0.00  0.00    +0.000 A 
ATOM     12  C   UNL     1      38.182  -2.585  16.995  0.00  0.00    +0.000 A 
ATOM     13  N   UNL     1      38.098  -2.222  15.705  0.00  0.00    +0.000 NA
ATOM     14  C   UNL     1      37.622  -0.986  15.369  0.00  0.00    +0.000 A 
ENDROOT
BRANCH   4  15
ATOM     15  C   UNL     1      36.294   2.213  16.422  0.00  0.00    +0.000 C 
ATOM     16  O   UNL     1      35.055   2.392  16.551  0.00  0.00    +0.000 OA
BRANCH  15  17
ATOM     17  O   UNL     1      37.129   3.197  16.928  0.00  0.00    +0.000 OA
BRANCH  17  18
ATOM     18  C   UNL     1      37.798   4.155  16.159  0.00  0.00    +0.000 C 
BRANCH  18  19
ATOM     19  C   UNL     1      38.831   4.912  16.952  0.00  0.00    +0.000 A 
ATOM     20  C   UNL     1      39.870   5.533  16.296  0.00  0.00    +0.000 A 
ATOM     21  C   UNL     1      40.828   6.230  16.994  0.00  0.00    +0.000 A 
ATOM     22  C   UNL     1      40.757   6.315  18.364  0.00  0.00    +0.000 A 
ATOM     23  C   UNL     1      39.709   5.687  18.997  0.00  0.00    +0.000 A 
ATOM     24  C   UNL     1      38.735   4.981  18.323  0.00  0.00    +0.000 A 
ENDBRANCH  18  19
ENDBRANCH  17  18
ENDBRANCH  15  17
ENDBRANCH   4  15
BRANCH   1  25
ATOM     25  C   UNL     1      37.753  -1.020  12.911  0.00  0.00    +0.000 C 
BRANCH  25  26
ATOM     26  C   UNL     1      39.230  -0.851  12.654  0.00  0.00    +0.000 C 
BRANCH  26  27
ATOM     27  C   UNL     1      39.906  -2.120  12.250  0.00  0.00    +0.000 C 
BRANCH  27  28
ATOM     28  C   UNL     1      40.641  -2.700  13.422  0.00  0.00    +0.000 C 
BRANCH  28  30
ATOM     29  C   UNL     1      42.524  -1.389  14.393  0.00  0.00    +0.000 C 
ATOM     30  C   UNL     1      42.130  -2.360  13.297  0.00  0.00    +0.000 C 
ENDBRANCH  28  30
ENDBRANCH  27  28
ENDBRANCH  26  27
ENDBRANCH  25  26
ENDBRANCH   1  25
TORSDOF 9
ENDMDL
MODEL 7
REMARK VINA RESULT:      -7.1      4.095      8.227
REMARK  Name = 
REMARK  9 active torsions:
REMARK  status: ('A' for Active; 'I' for Inactive)
REMARK    1  A    between atoms: C_2  and  C_3
REMARK    2  A    between atoms: C_3  and  C_4
REMARK    3  A    between atoms: C_4  and  C_5
REMARK    4  A    between atoms: C_5  and  C_6
REMARK    5  A    between atoms: C_6  and  N_7
REMARK    6  A    between atoms: C_10  and  C_11
REMARK    7  A    between atoms: C_11  and  O_13
REMARK    8  A    between atoms: O_13  and  C_14
REMARK    9  A    between atoms: C_14  and  C_15
REMARK                            x       y       z     vdW  Elec       q    Type
REMARK                         _______ _______ _______ _____ _____    ______ ____
ROOT
ATOM      1  N   UNL     1      39.532  -1.272  14.705  0.00  0.00    +0.000 N 
ATOM      2  C   UNL     1      39.595  -2.235  15.636  0.00  0.00    +0.000 A 
ATOM      3  N   UNL     1      40.589  -3.260  15.613  0.00  0.00    +0.000 NA
ATOM      4  C   UNL     1      38.593  -2.071  16.562  0.00  0.00    +0.000 A 
ATOM      5  C   UNL     1      37.893  -0.960  16.174  0.00  0.00    +0.000 A 
ATOM      6  N   UNL     1      36.812  -0.313  16.685  0.00  0.00    +0.000 NA
ATOM      7  C   UNL     1      36.309   0.784  16.096  0.00  0.00    +0.000 A 
ATOM      8  C   UNL     1      35.215   1.451  16.601  0.00  0.00    +0.000 A 
ATOM      9  C   UNL     1      34.688   2.576  16.009  0.00  0.00    +0.000 A 
ATOM     10  C   UNL     1      35.299   3.034  14.862  0.00  0.00    +0.000 A 
ATOM     11  C   UNL     1      36.385   2.390  14.345  0.00  0.00    +0.000 A 
ATOM     12  C   UNL     1      36.911   1.249  14.954  0.00  0.00    +0.000 A 
ATOM     13  N   UNL     1      37.981   0.629  14.428  0.00  0.00    +0.000 NA
ATOM     14  C   UNL     1      38.492  -0.488  15.028  0.00  0.00    +0.000 A 
ENDROOT
BRANCH   4  15
ATOM     15  C   UNL     1      38.332  -2.908  17.716  0.00  0.00    +0.000 C 
ATOM     16  O   UNL     1      38.886  -2.662  18.820  0.00  0.00    +0.000 OA
BRANCH  15  17
ATOM     17  O   UNL     1      37.479  -3.998  17.667  0.00  0.00    +0.000 OA
BRANCH  17  18
ATOM     18  C   UNL     1      37.280  -4.812  16.547  0.00  0.00    +0.000 C 
BRANCH  18  19
ATOM     19  C   UNL     1      35.864  -4.755  16.037  0.00  0.00    +0.000 A 
ATOM     20  C   UNL     1      35.242  -5.914  15.629  0.00  0.00    +0.000 A 
ATOM     21  C   UNL     1      33.951  -5.892  15.158  0.00  0.00    +0.000 A 
ATOM     22  C   UNL     1      33.261  -4.705  15.090  0.00  0.00    +0.000 A 
ATOM     23  C   UNL     1      33.903  -3.560  15.505  0.00  0.00    +0.000 A 
ATOM     24  C   UNL     1      35.197  -3.553  15.981  0.00  0.00    +0.000 A 
ENDBRANCH  18  19
ENDBRANCH  17  18
ENDBRANCH  15  17
ENDBRANCH   4  15
BRANCH   1  25
ATOM     25  C   UNL     1      40.380  -1.060  13.556  0.00  0.00    +0.000 C 
BRANCH  25  26
ATOM     26  C   UNL     1      41.576  -0.255  13.998  0.00  0.00    +0.000 C 
BRANCH  26  27
ATOM     27  C   UNL     1      42.875  -0.824  13.529  0.00  0.00    +0.000 C 
BRANCH  27  28
ATOM     28  C   UNL     1      43.634  -1.388  14.693  0.00  0.00    +0.000 C 
BRANCH  28  30
ATOM     29  C   UNL     1      45.650  -0.871  16.063  0.00  0.00    +0.000 C 
ATOM     30  C   UNL     1      44.459  -0.270  15.341  0.00  0.00    +0.000 C 
ENDBRANCH  28  30
ENDBRANCH  27  28
ENDBRANCH  26  27
ENDBRANCH  25  26
ENDBRANCH   1  25
TORSDOF 9
ENDMDL
MODEL 8
REMARK VINA RESULT:      -6.8      3.049      5.938
REMARK  Name = 
REMARK  9 active torsions:
REMARK  status: ('A' for Active; 'I' for Inactive)
REMARK    1  A    between atoms: C_2  and  C_3
REMARK    2  A    between atoms: C_3  and  C_4
REMARK    3  A    between atoms: C_4  and  C_5
REMARK    4  A    between atoms: C_5  and  C_6
REMARK    5  A    between atoms: C_6  and  N_7
REMARK    6  A    between atoms: C_10  and  C_11
REMARK    7  A    between atoms: C_11  and  O_13
REMARK    8  A    between atoms: O_13  and  C_14
REMARK    9  A    between atoms: C_14  and  C_15
REMARK                            x       y       z     vdW  Elec       q    Type
REMARK                         _______ _______ _______ _____ _____    ______ ____
ROOT
ATOM      1  N   UNL     1      36.909   3.601  14.501  0.00  0.00    +0.000 N 
ATOM      2  C   UNL     1      38.176   3.615  14.943  0.00  0.00    +0.000 A 
ATOM      3  N   UNL     1      38.951   2.424  15.084  0.00  0.00    +0.000 NA
ATOM      4  C   UNL     1      38.571   4.901  15.219  0.00  0.00    +0.000 A 
ATOM      5  C   UNL     1      37.498   5.701  14.932  0.00  0.00    +0.000 A 
ATOM      6  N   UNL     1      37.289   7.043  15.004  0.00  0.00    +0.000 NA
ATOM      7  C   UNL     1      36.112   7.588  14.653  0.00  0.00    +0.000 A 
ATOM      8  C   UNL     1      35.885   8.945  14.720  0.00  0.00    +0.000 A 
ATOM      9  C   UNL     1      34.686   9.519  14.365  0.00  0.00    +0.000 A 
ATOM     10  C   UNL     1      33.685   8.677  13.927  0.00  0.00    +0.000 A 
ATOM     11  C   UNL     1      33.890   7.331  13.852  0.00  0.00    +0.000 A 
ATOM     12  C   UNL     1      35.111   6.759  14.216  0.00  0.00    +0.000 A 
ATOM     13  N   UNL     1      35.291   5.431  14.135  0.00  0.00    +0.000 NA
ATOM     14  C   UNL     1      36.488   4.876  14.492  0.00  0.00    +0.000 A 
ENDROOT
BRANCH   4  15
ATOM     15  C   UNL     1      39.866   5.323  15.716  0.00  0.00    +0.000 C 
ATOM     16  O   UNL     1      40.801   5.588  14.916  0.00  0.00    +0.000 OA
BRANCH  15  17
ATOM     17  O   UNL     1      40.138   5.454  17.068  0.00  0.00    +0.000 OA
BRANCH  17  18
ATOM     18  C   UNL     1      39.219   5.226  18.098  0.00  0.00    +0.000 C 
BRANCH  18  19
ATOM     19  C   UNL     1      38.892   6.479  18.867  0.00  0.00    +0.000 A 
ATOM     20  C   UNL     1      37.854   7.282  18.448  0.00  0.00    +0.000 A 
ATOM     21  C   UNL     1      37.533   8.432  19.129  0.00  0.00    +0.000 A 
ATOM     22  C   UNL     1      38.251   8.796  20.244  0.00  0.00    +0.000 A 
ATOM     23  C   UNL     1      39.284   7.978  20.643  0.00  0.00    +0.000 A 
ATOM     24  C   UNL     1      39.627   6.819  19.979  0.00  0.00    +0.000 A 
ENDBRANCH  18  19
ENDBRANCH  17  18
ENDBRANCH  15  17
ENDBRANCH   4  15
BRANCH   1  25
ATOM     25  C   UNL     1      36.098   2.478  14.098  0.00  0.00    +0.000 C 
BRANCH  25  26
ATOM     26  C   UNL     1      35.244   2.070  15.272  0.00  0.00    +0.000 C 
BRANCH  26  27
ATOM     27  C   UNL     1      35.655   0.767  15.875  0.00  0.00    +0.000 C 
BRANCH  27  28
ATOM     28  C   UNL     1      34.797   0.465  17.067  0.00  0.00    +0.000 C 
BRANCH  28  30
ATOM     29  C   UNL     1      35.888  -0.284  19.179  0.00  0.00    +0.000 C 
ATOM     30  C   UNL     1      35.390  -0.733  17.819  0.00  0.00    +0.000 C 
ENDBRANCH  28  30
ENDBRANCH  27  28
ENDBRANCH  26  27
ENDBRANCH  25  26
ENDBRANCH   1  25
TORSDOF 9
ENDMDL
MODEL 9
REMARK VINA RESULT:      -6.6      3.833      6.389
REMARK  Name = 
REMARK  9 active torsions:
REMARK  status: ('A' for Active; 'I' for Inactive)
REMARK    1  A    between atoms: C_2  and  C_3
REMARK    2  A    between atoms: C_3  and  C_4
REMARK    3  A    between atoms: C_4  and  C_5
REMARK    4  A    between atoms: C_5  and  C_6
REMARK    5  A    between atoms: C_6  and  N_7
REMARK    6  A    between atoms: C_10  and  C_11
REMARK    7  A    between atoms: C_11  and  O_13
REMARK    8  A    between atoms: O_13  and  C_14
REMARK    9  A    between atoms: C_14  and  C_15
REMARK                            x       y       z     vdW  Elec       q    Type
REMARK                         _______ _______ _______ _____ _____    ______ ____
ROOT
ATOM      1  N   UNL     1      38.765  -2.068  16.380  0.00  0.00    +0.000 N 
ATOM      2  C   UNL     1      39.777  -2.166  15.505  0.00  0.00    +0.000 A 
ATOM      3  N   UNL     1      40.731  -3.227  15.553  0.00  0.00    +0.000 NA
ATOM      4  C   UNL     1      39.734  -1.127  14.608  0.00  0.00    +0.000 A 
ATOM      5  C   UNL     1      38.650  -0.367  14.954  0.00  0.00    +0.000 A 
ATOM      6  N   UNL     1      38.107   0.771  14.444  0.00  0.00    +0.000 NA
ATOM      7  C   UNL     1      37.011   1.328  14.985  0.00  0.00    +0.000 A 
ATOM      8  C   UNL     1      36.449   2.480  14.481  0.00  0.00    +0.000 A 
ATOM      9  C   UNL     1      35.327   3.062  15.023  0.00  0.00    +0.000 A 
ATOM     10  C   UNL     1      34.760   2.447  16.119  0.00  0.00    +0.000 A 
ATOM     11  C   UNL     1      35.300   1.305  16.635  0.00  0.00    +0.000 A 
ATOM     12  C   UNL     1      36.440   0.723  16.075  0.00  0.00    +0.000 A 
ATOM     13  N   UNL     1      36.955  -0.402  16.599  0.00  0.00    +0.000 NA
ATOM     14  C   UNL     1      38.070  -0.967  16.048  0.00  0.00    +0.000 A 
ENDROOT
BRANCH   4  15
ATOM     15  C   UNL     1      40.655  -0.887  13.514  0.00  0.00    +0.000 C 
ATOM     16  O   UNL     1      40.283  -1.042  12.321  0.00  0.00    +0.000 OA
BRANCH  15  17
ATOM     17  O   UNL     1      41.964  -0.483  13.719  0.00  0.00    +0.000 OA
BRANCH  17  18
ATOM     18  C   UNL     1      43.097  -1.211  13.340  0.00  0.00    +0.000 C 
BRANCH  18  19
ATOM     19  C   UNL     1      44.138  -1.266  14.427  0.00  0.00    +0.000 A 
ATOM     20  C   UNL     1      44.895  -2.406  14.585  0.00  0.00    +0.000 A 
ATOM     21  C   UNL     1      45.851  -2.485  15.569  0.00  0.00    +0.000 A 
ATOM     22  C   UNL     1      46.063  -1.421  16.412  0.00  0.00    +0.000 A 
ATOM     23  C   UNL     1      45.295  -0.293  16.234  0.00  0.00    +0.000 A 
ATOM     24  C   UNL     1      44.329  -0.186  15.256  0.00  0.00    +0.000 A 
ENDBRANCH  18  19
ENDBRANCH  17  18
ENDBRANCH  15  17
ENDBRANCH   4  15
BRANCH   1  25
ATOM     25  C   UNL     1      38.428  -2.935  17.484  0.00  0.00    +0.000 C 
BRANCH  25  26
ATOM     26  C   UNL     1      37.756  -4.165  16.926  0.00  0.00    +0.000 C 
BRANCH  26  27
ATOM     27  C   UNL     1      36.300  -3.968  16.654  0.00  0.00    +0.000 C 
BRANCH  27  28
ATOM     28  C   UNL     1      35.876  -4.834  15.505  0.00  0.00    +0.000 C 
BRANCH  28  30
ATOM     29  C   UNL     1      33.468  -4.469  14.981  0.00  0.00    +0.000 C 
ATOM     30  C   UNL     1      34.885  -4.056  14.632  0.00  0.00    +0.000 C 
ENDBRANCH  28  30
ENDBRANCH  27  28
ENDBRANCH  26  27
ENDBRANCH  25  26
ENDBRANCH   1  25
TORSDOF 9
ENDMDL
MODEL 10
REMARK VINA RESULT:      -6.6     24.729     27.707
REMARK  Name = 
REMARK  9 active torsions:
REMARK  status: ('A' for Active; 'I' for Inactive)
REMARK    1  A    between atoms: C_2  and  C_3
REMARK    2  A    between atoms: C_3  and  C_4
REMARK    3  A    between atoms: C_4  and  C_5
REMARK    4  A    between atoms: C_5  and  C_6
REMARK    5  A    between atoms: C_6  and  N_7
REMARK    6  A    between atoms: C_10  and  C_11
REMARK    7  A    between atoms: C_11  and  O_13
REMARK    8  A    between atoms: O_13  and  C_14
REMARK    9  A    between atoms: C_14  and  C_15
REMARK                            x       y       z     vdW  Elec       q    Type
REMARK                         _______ _______ _______ _____ _____    ______ ____
ROOT
ATOM      1  N   UNL     1      28.982  15.615  36.568  0.00  0.00    +0.000 N 
ATOM      2  C   UNL     1      28.668  15.503  35.269  0.00  0.00    +0.000 A 
ATOM      3  N   UNL     1      29.655  15.537  34.237  0.00  0.00    +0.000 NA
ATOM      4  C   UNL     1      27.311  15.359  35.116  0.00  0.00    +0.000 A 
ATOM      5  C   UNL     1      26.779  15.384  36.377  0.00  0.00    +0.000 A 
ATOM      6  N   UNL     1      25.511  15.288  36.857  0.00  0.00    +0.000 NA
ATOM      7  C   UNL     1      25.254  15.344  38.174  0.00  0.00    +0.000 A 
ATOM      8  C   UNL     1      23.975  15.248  38.676  0.00  0.00    +0.000 A 
ATOM      9  C   UNL     1      23.695  15.303  40.022  0.00  0.00    +0.000 A 
ATOM     10  C   UNL     1      24.758  15.464  40.884  0.00  0.00    +0.000 A 
ATOM     11  C   UNL     1      26.033  15.560  40.408  0.00  0.00    +0.000 A 
ATOM     12  C   UNL     1      26.305  15.502  39.040  0.00  0.00    +0.000 A 
ATOM     13  N   UNL     1      27.568  15.600  38.593  0.00  0.00    +0.000 NA
ATOM     14  C   UNL     1      27.829  15.543  37.253  0.00  0.00    +0.000 A 
ENDROOT
BRANCH   4  15
ATOM     15  C   UNL     1      26.589  15.210  33.868  0.00  0.00    +0.000 C 
ATOM     16  O   UNL     1      26.301  14.065  33.430  0.00  0.00    +0.000 OA
BRANCH  15  17
ATOM     17  O   UNL     1      26.188  16.295  33.106  0.00  0.00    +0.000 OA
BRANCH  17  18
ATOM     18  C   UNL     1      24.863  16.590  32.765  0.00  0.00    +0.000 C 
BRANCH  18  19
ATOM     19  C   UNL     1      24.460  17.982  33.174  0.00  0.00    +0.000 A 
ATOM     20  C   UNL     1      24.763  18.433  34.439  0.00  0.00    +0.000 A 
ATOM     21  C   UNL     1      24.406  19.698  34.841  0.00  0.00    +0.000 A 
ATOM     22  C   UNL     1      23.737  20.533  33.977  0.00  0.00    +0.000 A 
ATOM     23  C   UNL     1      23.446  20.060  32.718  0.00  0.00    +0.000 A 
ATOM     24  C   UNL     1      23.792  18.796  32.289  0.00  0.00    +0.000 A 
ENDBRANCH  18  19
ENDBRANCH  17  18
ENDBRANCH  15  17
ENDBRANCH   4  15
BRANCH   1  25
ATOM     25  C   UNL     1      30.278  15.782  37.181  0.00  0.00    +0.000 C 
BRANCH  25  26
ATOM     26  C   UNL     1      30.714  14.446  37.728  0.00  0.00    +0.000 C 
BRANCH  26  27
ATOM     27  C   UNL     1      31.688  13.737  36.844  0.00  0.00    +0.000 C 
BRANCH  27  28
ATOM     28  C   UNL     1      31.969  12.370  37.391  0.00  0.00    +0.000 C 
BRANCH  28  30
ATOM     29  C   UNL     1      31.448  11.447  39.646  0.00  0.00    +0.000 C 
ATOM     30  C   UNL     1      32.261  12.481  38.892  0.00  0.00    +0.000 C 
ENDBRANCH  28  30
ENDBRANCH  27  28
ENDBRANCH  26  27
ENDBRANCH  25  26
ENDBRANCH   1  25
TORSDOF 9
ENDMDL
