MODEL 1
REMARK VINA RESULT:      -6.8      0.000      0.000
REMARK  Name = 
REMARK  1 active torsions:
REMARK  status: ('A' for Active; 'I' for Inactive)
REMARK    1  A    between atoms: C_10  and  C_11
REMARK                            x       y       z     vdW  Elec       q    Type
REMARK                         _______ _______ _______ _____ _____    ______ ____
ROOT
ATOM      1  C   UNL     1      18.247 -10.651  28.746  0.00  0.00    +0.000 C 
ATOM      2  C   UNL     1      18.798  -9.533  27.908  0.00  0.00    +0.000 A 
ATOM      3  C   UNL     1      18.180  -8.304  27.903  0.00  0.00    +0.000 A 
ATOM      4  C   UNL     1      18.659  -7.236  27.136  0.00  0.00    +0.000 A 
ATOM      5  C   UNL     1      19.777  -7.397  26.360  0.00  0.00    +0.000 A 
ATOM      6  C   UNL     1      20.392  -8.644  26.373  0.00  0.00    +0.000 A 
ATOM      7  C   UNL     1      19.920  -9.698  27.129  0.00  0.00    +0.000 A 
ATOM      8  C   UNL     1      21.522  -8.796  25.584  0.00  0.00    +0.000 A 
ATOM      9  O   UNL     1      22.105  -9.914  25.571  0.00  0.00    +0.000 OA
ATOM     10  C   UNL     1      22.014  -7.781  24.829  0.00  0.00    +0.000 A 
ATOM     11  C   UNL     1      21.342  -6.574  24.873  0.00  0.00    +0.000 A 
ATOM     12  O   UNL     1      21.858  -5.532  24.090  0.00  0.00    +0.000 OA
ATOM     13  N   UNL     1      20.252  -6.387  25.619  0.00  0.00    +0.000 N 
ATOM     14  C   UNL     1      19.617  -5.067  25.613  0.00  0.00    +0.000 C 
ATOM     15  C   UNL     1      18.935  -4.822  26.952  0.00  0.00    +0.000 C 
ATOM     16  C   UNL     1      17.948  -5.940  27.157  0.00  0.00    +0.000 C 
ENDROOT
BRANCH  10  17
ATOM     17  C   UNL     1      23.203  -7.946  24.003  0.00  0.00    +0.000 A 
ATOM     18  C   UNL     1      23.117  -8.600  22.798  0.00  0.00    +0.000 A 
ATOM     19  C   UNL     1      24.199  -8.795  21.960  0.00  0.00    +0.000 A 
ATOM     20  C   UNL     1      25.434  -8.317  22.333  0.00  0.00    +0.000 A 
ATOM     21  C   UNL     1      25.545  -7.658  23.536  0.00  0.00    +0.000 A 
ATOM     22  C   UNL     1      24.438  -7.468  24.378  0.00  0.00    +0.000 A 
ENDBRANCH  10  17
TORSDOF 1
ENDMDL
MODEL 2
REMARK VINA RESULT:      -6.7     12.555     14.679
REMARK  Name = 
REMARK  1 active torsions:
REMARK  status: ('A' for Active; 'I' for Inactive)
REMARK    1  A    between atoms: C_10  and  C_11
REMARK                            x       y       z     vdW  Elec       q    Type
REMARK                         _______ _______ _______ _____ _____    ______ ____
ROOT
ATOM      1  C   UNL     1      19.759   1.813  17.724  0.00  0.00    +0.000 C 
ATOM      2  C   UNL     1      21.240   1.772  17.475  0.00  0.00    +0.000 A 
ATOM      3  C   UNL     1      21.826   0.632  16.977  0.00  0.00    +0.000 A 
ATOM      4  C   UNL     1      23.201   0.550  16.732  0.00  0.00    +0.000 A 
ATOM      5  C   UNL     1      24.008   1.628  16.989  0.00  0.00    +0.000 A 
ATOM      6  C   UNL     1      23.405   2.775  17.493  0.00  0.00    +0.000 A 
ATOM      7  C   UNL     1      22.048   2.856  17.735  0.00  0.00    +0.000 A 
ATOM      8  C   UNL     1      24.230   3.858  17.749  0.00  0.00    +0.000 A 
ATOM      9  O   UNL     1      23.716   4.916  18.207  0.00  0.00    +0.000 OA
ATOM     10  C   UNL     1      25.567   3.814  17.522  0.00  0.00    +0.000 A 
ATOM     11  C   UNL     1      26.086   2.635  17.020  0.00  0.00    +0.000 A 
ATOM     12  O   UNL     1      27.469   2.600  16.790  0.00  0.00    +0.000 OA
ATOM     13  N   UNL     1      25.326   1.571  16.760  0.00  0.00    +0.000 N 
ATOM     14  C   UNL     1      25.966   0.370  16.215  0.00  0.00    +0.000 C 
ATOM     15  C   UNL     1      24.972  -0.388  15.345  0.00  0.00    +0.000 C 
ATOM     16  C   UNL     1      23.781  -0.705  16.208  0.00  0.00    +0.000 C 
ENDROOT
BRANCH  10  17
ATOM     17  C   UNL     1      26.429   4.958  17.791  0.00  0.00    +0.000 A 
ATOM     18  C   UNL     1      26.654   5.894  16.811  0.00  0.00    +0.000 A 
ATOM     19  C   UNL     1      27.457   7.005  16.991  0.00  0.00    +0.000 A 
ATOM     20  C   UNL     1      28.071   7.202  18.205  0.00  0.00    +0.000 A 
ATOM     21  C   UNL     1      27.861   6.278  19.203  0.00  0.00    +0.000 A 
ATOM     22  C   UNL     1      27.043   5.153  19.006  0.00  0.00    +0.000 A 
ENDBRANCH  10  17
TORSDOF 1
ENDMDL
MODEL 3
REMARK VINA RESULT:      -6.6     30.919     32.697
REMARK  Name = 
REMARK  1 active torsions:
REMARK  status: ('A' for Active; 'I' for Inactive)
REMARK    1  A    between atoms: C_10  and  C_11
REMARK                            x       y       z     vdW  Elec       q    Type
REMARK                         _______ _______ _______ _____ _____    ______ ____
ROOT
ATOM      1  C   UNL     1      23.668  27.222  30.469  0.00  0.00    +0.000 C 
ATOM      2  C   UNL     1      24.527  26.184  29.805  0.00  0.00    +0.000 A 
ATOM      3  C   UNL     1      25.217  25.268  30.565  0.00  0.00    +0.000 A 
ATOM      4  C   UNL     1      26.029  24.286  29.987  0.00  0.00    +0.000 A 
ATOM      5  C   UNL     1      26.156  24.216  28.625  0.00  0.00    +0.000 A 
ATOM      6  C   UNL     1      25.454  25.148  27.867  0.00  0.00    +0.000 A 
ATOM      7  C   UNL     1      24.652  26.117  28.436  0.00  0.00    +0.000 A 
ATOM      8  C   UNL     1      25.588  25.067  26.490  0.00  0.00    +0.000 A 
ATOM      9  O   UNL     1      24.967  25.897  25.771  0.00  0.00    +0.000 OA
ATOM     10  C   UNL     1      26.367  24.127  25.896  0.00  0.00    +0.000 A 
ATOM     11  C   UNL     1      27.031  23.240  26.723  0.00  0.00    +0.000 A 
ATOM     12  O   UNL     1      27.832  22.273  26.100  0.00  0.00    +0.000 OA
ATOM     13  N   UNL     1      26.927  23.283  28.052  0.00  0.00    +0.000 N 
ATOM     14  C   UNL     1      27.657  22.290  28.844  0.00  0.00    +0.000 C 
ATOM     15  C   UNL     1      26.905  22.017  30.140  0.00  0.00    +0.000 C 
ATOM     16  C   UNL     1      26.759  23.335  30.852  0.00  0.00    +0.000 C 
ENDROOT
BRANCH  10  17
ATOM     17  C   UNL     1      26.503  24.047  24.448  0.00  0.00    +0.000 A 
ATOM     18  C   UNL     1      27.488  24.761  23.809  0.00  0.00    +0.000 A 
ATOM     19  C   UNL     1      27.680  24.735  22.441  0.00  0.00    +0.000 A 
ATOM     20  C   UNL     1      26.854  23.961  21.660  0.00  0.00    +0.000 A 
ATOM     21  C   UNL     1      25.860  23.236  22.276  0.00  0.00    +0.000 A 
ATOM     22  C   UNL     1      25.676  23.272  23.668  0.00  0.00    +0.000 A 
ENDBRANCH  10  17
TORSDOF 1
ENDMDL
MODEL 4
REMARK VINA RESULT:      -6.5     20.800     23.789
REMARK  Name = 
REMARK  1 active torsions:
REMARK  status: ('A' for Active; 'I' for Inactive)
REMARK    1  A    between atoms: C_10  and  C_11
REMARK                            x       y       z     vdW  Elec       q    Type
REMARK                         _______ _______ _______ _____ _____    ______ ____
ROOT
ATOM      1  C   UNL     1      24.846  14.748  39.727  0.00  0.00    +0.000 C 
ATOM      2  C   UNL     1      24.112  13.638  39.029  0.00  0.00    +0.000 A 
ATOM      3  C   UNL     1      24.807  12.688  38.319  0.00  0.00    +0.000 A 
ATOM      4  C   UNL     1      24.163  11.640  37.654  0.00  0.00    +0.000 A 
ATOM      5  C   UNL     1      22.797  11.537  37.697  0.00  0.00    +0.000 A 
ATOM      6  C   UNL     1      22.104  12.504  38.418  0.00  0.00    +0.000 A 
ATOM      7  C   UNL     1      22.740  13.539  39.075  0.00  0.00    +0.000 A 
ATOM      8  C   UNL     1      20.723  12.390  38.456  0.00  0.00    +0.000 A 
ATOM      9  O   UNL     1      20.063  13.251  39.100  0.00  0.00    +0.000 OA
ATOM     10  C   UNL     1      20.066  11.386  37.823  0.00  0.00    +0.000 A 
ATOM     11  C   UNL     1      20.830  10.467  37.129  0.00  0.00    +0.000 A 
ATOM     12  O   UNL     1      20.141   9.433  36.479  0.00  0.00    +0.000 OA
ATOM     13  N   UNL     1      22.161  10.540  37.069  0.00  0.00    +0.000 N 
ATOM     14  C   UNL     1      22.886   9.510  36.321  0.00  0.00    +0.000 C 
ATOM     15  C   UNL     1      24.269   9.316  36.928  0.00  0.00    +0.000 C 
ATOM     16  C   UNL     1      24.959  10.652  36.893  0.00  0.00    +0.000 C 
ENDROOT
BRANCH  10  17
ATOM     17  C   UNL     1      18.614  11.271  37.869  0.00  0.00    +0.000 A 
ATOM     18  C   UNL     1      18.022  10.390  38.742  0.00  0.00    +0.000 A 
ATOM     19  C   UNL     1      16.654  10.226  38.844  0.00  0.00    +0.000 A 
ATOM     20  C   UNL     1      15.824  10.972  38.041  0.00  0.00    +0.000 A 
ATOM     21  C   UNL     1      16.393  11.861  37.159  0.00  0.00    +0.000 A 
ATOM     22  C   UNL     1      17.786  12.018  37.064  0.00  0.00    +0.000 A 
ENDBRANCH  10  17
TORSDOF 1
ENDMDL
MODEL 5
REMARK VINA RESULT:      -6.5      3.663      6.022
REMARK  Name = 
REMARK  1 active torsions:
REMARK  status: ('A' for Active; 'I' for Inactive)
REMARK    1  A    between atoms: C_10  and  C_11
REMARK                            x       y       z     vdW  Elec       q    Type
REMARK                         _______ _______ _______ _____ _____    ______ ____
ROOT
ATOM      1  C   UNL     1      16.894 -12.672  31.911  0.00  0.00    +0.000 C 
ATOM      2  C   UNL     1      16.592 -11.979  30.612  0.00  0.00    +0.000 A 
ATOM      3  C   UNL     1      15.533 -12.393  29.839  0.00  0.00    +0.000 A 
ATOM      4  C   UNL     1      15.218 -11.777  28.623  0.00  0.00    +0.000 A 
ATOM      5  C   UNL     1      15.974 -10.728  28.169  0.00  0.00    +0.000 A 
ATOM      6  C   UNL     1      17.043 -10.319  28.960  0.00  0.00    +0.000 A 
ATOM      7  C   UNL     1      17.354 -10.927  30.160  0.00  0.00    +0.000 A 
ATOM      8  C   UNL     1      17.801  -9.258  28.492  0.00  0.00    +0.000 A 
ATOM      9  O   UNL     1      18.779  -8.861  29.183  0.00  0.00    +0.000 OA
ATOM     10  C   UNL     1      17.523  -8.637  27.317  0.00  0.00    +0.000 A 
ATOM     11  C   UNL     1      16.442  -9.106  26.593  0.00  0.00    +0.000 A 
ATOM     12  O   UNL     1      16.164  -8.457  25.381  0.00  0.00    +0.000 OA
ATOM     13  N   UNL     1      15.688 -10.124  27.008  0.00  0.00    +0.000 N 
ATOM     14  C   UNL     1      14.554 -10.540  26.179  0.00  0.00    +0.000 C 
ATOM     15  C   UNL     1      13.462 -11.126  27.063  0.00  0.00    +0.000 C 
ATOM     16  C   UNL     1      14.075 -12.270  27.824  0.00  0.00    +0.000 C 
ENDROOT
BRANCH  10  17
ATOM     17  C   UNL     1      18.322  -7.520  26.832  0.00  0.00    +0.000 A 
ATOM     18  C   UNL     1      17.955  -6.230  27.134  0.00  0.00    +0.000 A 
ATOM     19  C   UNL     1      18.662  -5.120  26.711  0.00  0.00    +0.000 A 
ATOM     20  C   UNL     1      19.794  -5.293  25.950  0.00  0.00    +0.000 A 
ATOM     21  C   UNL     1      20.182  -6.575  25.635  0.00  0.00    +0.000 A 
ATOM     22  C   UNL     1      19.454  -7.694  26.070  0.00  0.00    +0.000 A 
ENDBRANCH  10  17
TORSDOF 1
ENDMDL
MODEL 6
REMARK VINA RESULT:      -6.5     31.728     32.575
REMARK  Name = 
REMARK  1 active torsions:
REMARK  status: ('A' for Active; 'I' for Inactive)
REMARK    1  A    between atoms: C_10  and  C_11
REMARK                            x       y       z     vdW  Elec       q    Type
REMARK                         _______ _______ _______ _____ _____    ______ ____
ROOT
ATOM      1  C   UNL     1      24.252  25.337  27.259  0.00  0.00    +0.000 C 
ATOM      2  C   UNL     1      25.501  24.786  26.632  0.00  0.00    +0.000 A 
ATOM      3  C   UNL     1      25.529  24.496  25.288  0.00  0.00    +0.000 A 
ATOM      4  C   UNL     1      26.670  23.981  24.664  0.00  0.00    +0.000 A 
ATOM      5  C   UNL     1      27.806  23.751  25.394  0.00  0.00    +0.000 A 
ATOM      6  C   UNL     1      27.766  24.048  26.753  0.00  0.00    +0.000 A 
ATOM      7  C   UNL     1      26.640  24.556  27.369  0.00  0.00    +0.000 A 
ATOM      8  C   UNL     1      28.920  23.812  27.482  0.00  0.00    +0.000 A 
ATOM      9  O   UNL     1      28.919  24.069  28.718  0.00  0.00    +0.000 OA
ATOM     10  C   UNL     1      30.045  23.313  26.909  0.00  0.00    +0.000 A 
ATOM     11  C   UNL     1      30.000  23.045  25.554  0.00  0.00    +0.000 A 
ATOM     12  O   UNL     1      31.167  22.531  24.971  0.00  0.00    +0.000 OA
ATOM     13  N   UNL     1      28.910  23.259  24.816  0.00  0.00    +0.000 N 
ATOM     14  C   UNL     1      28.963  22.959  23.383  0.00  0.00    +0.000 C 
ATOM     15  C   UNL     1      28.012  23.880  22.632  0.00  0.00    +0.000 C 
ATOM     16  C   UNL     1      26.642  23.674  23.217  0.00  0.00    +0.000 C 
ENDROOT
BRANCH  10  17
ATOM     17  C   UNL     1      31.256  23.069  27.681  0.00  0.00    +0.000 A 
ATOM     18  C   UNL     1      31.426  21.871  28.332  0.00  0.00    +0.000 A 
ATOM     19  C   UNL     1      32.547  21.566  29.082  0.00  0.00    +0.000 A 
ATOM     20  C   UNL     1      33.554  22.495  29.195  0.00  0.00    +0.000 A 
ATOM     21  C   UNL     1      33.408  23.702  28.552  0.00  0.00    +0.000 A 
ATOM     22  C   UNL     1      32.263  24.000  27.794  0.00  0.00    +0.000 A 
ENDBRANCH  10  17
TORSDOF 1
ENDMDL
MODEL 7
REMARK VINA RESULT:      -6.3     18.410     19.865
REMARK  Name = 
REMARK  1 active torsions:
REMARK  status: ('A' for Active; 'I' for Inactive)
REMARK    1  A    between atoms: C_10  and  C_11
REMARK                            x       y       z     vdW  Elec       q    Type
REMARK                         _______ _______ _______ _____ _____    ______ ____
ROOT
ATOM      1  C   UNL     1      35.373   4.617  40.577  0.00  0.00    +0.000 C 
ATOM      2  C   UNL     1      34.971   4.278  39.170  0.00  0.00    +0.000 A 
ATOM      3  C   UNL     1      34.818   5.275  38.235  0.00  0.00    +0.000 A 
ATOM      4  C   UNL     1      34.444   5.003  36.915  0.00  0.00    +0.000 A 
ATOM      5  C   UNL     1      34.216   3.711  36.519  0.00  0.00    +0.000 A 
ATOM      6  C   UNL     1      34.372   2.711  37.473  0.00  0.00    +0.000 A 
ATOM      7  C   UNL     1      34.742   2.979  38.776  0.00  0.00    +0.000 A 
ATOM      8  C   UNL     1      34.140   1.408  37.062  0.00  0.00    +0.000 A 
ATOM      9  O   UNL     1      34.272   0.476  37.902  0.00  0.00    +0.000 OA
ATOM     10  C   UNL     1      33.776   1.109  35.790  0.00  0.00    +0.000 A 
ATOM     11  C   UNL     1      33.643   2.162  34.904  0.00  0.00    +0.000 A 
ATOM     12  O   UNL     1      33.267   1.842  33.592  0.00  0.00    +0.000 OA
ATOM     13  N   UNL     1      33.858   3.429  35.260  0.00  0.00    +0.000 N 
ATOM     14  C   UNL     1      33.707   4.476  34.246  0.00  0.00    +0.000 C 
ATOM     15  C   UNL     1      34.635   5.639  34.570  0.00  0.00    +0.000 C 
ATOM     16  C   UNL     1      34.282   6.115  35.953  0.00  0.00    +0.000 C 
ENDROOT
BRANCH  10  17
ATOM     17  C   UNL     1      33.536  -0.264  35.363  0.00  0.00    +0.000 A 
ATOM     18  C   UNL     1      32.285  -0.816  35.500  0.00  0.00    +0.000 A 
ATOM     19  C   UNL     1      31.980  -2.109  35.118  0.00  0.00    +0.000 A 
ATOM     20  C   UNL     1      32.963  -2.899  34.571  0.00  0.00    +0.000 A 
ATOM     21  C   UNL     1      34.223  -2.368  34.423  0.00  0.00    +0.000 A 
ATOM     22  C   UNL     1      34.520  -1.053  34.816  0.00  0.00    +0.000 A 
ENDBRANCH  10  17
TORSDOF 1
ENDMDL
MODEL 8
REMARK VINA RESULT:      -6.1     31.385     32.881
REMARK  Name = 
REMARK  1 active torsions:
REMARK  status: ('A' for Active; 'I' for Inactive)
REMARK    1  A    between atoms: C_10  and  C_11
REMARK                            x       y       z     vdW  Elec       q    Type
REMARK                         _______ _______ _______ _____ _____    ______ ____
ROOT
ATOM      1  C   UNL     1      25.315  23.056  23.513  0.00  0.00    +0.000 C 
ATOM      2  C   UNL     1      26.645  23.513  24.041  0.00  0.00    +0.000 A 
ATOM      3  C   UNL     1      27.345  24.503  23.391  0.00  0.00    +0.000 A 
ATOM      4  C   UNL     1      28.586  24.957  23.848  0.00  0.00    +0.000 A 
ATOM      5  C   UNL     1      29.143  24.412  24.976  0.00  0.00    +0.000 A 
ATOM      6  C   UNL     1      28.427  23.411  25.624  0.00  0.00    +0.000 A 
ATOM      7  C   UNL     1      27.201  22.963  25.173  0.00  0.00    +0.000 A 
ATOM      8  C   UNL     1      28.998  22.868  26.764  0.00  0.00    +0.000 A 
ATOM      9  O   UNL     1      28.377  21.957  27.377  0.00  0.00    +0.000 OA
ATOM     10  C   UNL     1      30.201  23.285  27.235  0.00  0.00    +0.000 A 
ATOM     11  C   UNL     1      30.846  24.284  26.530  0.00  0.00    +0.000 A 
ATOM     12  O   UNL     1      32.087  24.707  27.026  0.00  0.00    +0.000 OA
ATOM     13  N   UNL     1      30.330  24.833  25.430  0.00  0.00    +0.000 N 
ATOM     14  C   UNL     1      31.081  25.897  24.760  0.00  0.00    +0.000 C 
ATOM     15  C   UNL     1      30.115  26.843  24.060  0.00  0.00    +0.000 C 
ATOM     16  C   UNL     1      29.302  26.015  23.103  0.00  0.00    +0.000 C 
ENDROOT
BRANCH  10  17
ATOM     17  C   UNL     1      30.795  22.711  28.435  0.00  0.00    +0.000 A 
ATOM     18  C   UNL     1      31.804  21.785  28.327  0.00  0.00    +0.000 A 
ATOM     19  C   UNL     1      32.417  21.198  29.418  0.00  0.00    +0.000 A 
ATOM     20  C   UNL     1      32.012  21.544  30.685  0.00  0.00    +0.000 A 
ATOM     21  C   UNL     1      31.003  22.470  30.820  0.00  0.00    +0.000 A 
ATOM     22  C   UNL     1      30.388  23.058  29.703  0.00  0.00    +0.000 A 
ENDBRANCH  10  17
TORSDOF 1
ENDMDL
MODEL 9
REMARK VINA RESULT:      -6.1     31.470     32.559
REMARK  Name = 
REMARK  1 active torsions:
REMARK  status: ('A' for Active; 'I' for Inactive)
REMARK    1  A    between atoms: C_10  and  C_11
REMARK                            x       y       z     vdW  Elec       q    Type
REMARK                         _______ _______ _______ _____ _____    ______ ____
ROOT
ATOM      1  C   UNL     1      24.764  25.697  30.039  0.00  0.00    +0.000 C 
ATOM      2  C   UNL     1      25.741  25.012  29.125  0.00  0.00    +0.000 A 
ATOM      3  C   UNL     1      25.358  24.642  27.857  0.00  0.00    +0.000 A 
ATOM      4  C   UNL     1      26.235  24.002  26.975  0.00  0.00    +0.000 A 
ATOM      5  C   UNL     1      27.519  23.725  27.365  0.00  0.00    +0.000 A 
ATOM      6  C   UNL     1      27.895  24.104  28.650  0.00  0.00    +0.000 A 
ATOM      7  C   UNL     1      27.029  24.736  29.521  0.00  0.00    +0.000 A 
ATOM      8  C   UNL     1      29.195  23.820  29.033  0.00  0.00    +0.000 A 
ATOM      9  O   UNL     1      29.570  24.149  30.192  0.00  0.00    +0.000 OA
ATOM     10  C   UNL     1      30.072  23.201  28.203  0.00  0.00    +0.000 A 
ATOM     11  C   UNL     1      29.618  22.858  26.943  0.00  0.00    +0.000 A 
ATOM     12  O   UNL     1      30.532  22.219  26.093  0.00  0.00    +0.000 OA
ATOM     13  N   UNL     1      28.374  23.114  26.535  0.00  0.00    +0.000 N 
ATOM     14  C   UNL     1      27.990  22.727  25.176  0.00  0.00    +0.000 C 
ATOM     15  C   UNL     1      26.917  23.675  24.658  0.00  0.00    +0.000 C 
ATOM     16  C   UNL     1      25.767  23.614  25.627  0.00  0.00    +0.000 C 
ENDROOT
BRANCH  10  17
ATOM     17  C   UNL     1      31.440  22.907  28.612  0.00  0.00    +0.000 A 
ATOM     18  C   UNL     1      32.439  23.821  28.376  0.00  0.00    +0.000 A 
ATOM     19  C   UNL     1      33.757  23.615  28.735  0.00  0.00    +0.000 A 
ATOM     20  C   UNL     1      34.109  22.443  29.362  0.00  0.00    +0.000 A 
ATOM     21  C   UNL     1      33.126  21.512  29.610  0.00  0.00    +0.000 A 
ATOM     22  C   UNL     1      31.790  21.734  29.239  0.00  0.00    +0.000 A 
ENDBRANCH  10  17
TORSDOF 1
ENDMDL
MODEL 10
REMARK VINA RESULT:      -6.1     20.905     21.735
REMARK  Name = 
REMARK  1 active torsions:
REMARK  status: ('A' for Active; 'I' for Inactive)
REMARK    1  A    between atoms: C_10  and  C_11
REMARK                            x       y       z     vdW  Elec       q    Type
REMARK                         _______ _______ _______ _____ _____    ______ ____
ROOT
ATOM      1  C   UNL     1      20.416   5.515  43.219  0.00  0.00    +0.000 C 
ATOM      2  C   UNL     1      20.113   6.500  42.126  0.00  0.00    +0.000 A 
ATOM      3  C   UNL     1      18.814   6.872  41.871  0.00  0.00    +0.000 A 
ATOM      4  C   UNL     1      18.488   7.785  40.863  0.00  0.00    +0.000 A 
ATOM      5  C   UNL     1      19.477   8.338  40.092  0.00  0.00    +0.000 A 
ATOM      6  C   UNL     1      20.787   7.954  40.359  0.00  0.00    +0.000 A 
ATOM      7  C   UNL     1      21.109   7.053  41.354  0.00  0.00    +0.000 A 
ATOM      8  C   UNL     1      21.780   8.519  39.574  0.00  0.00    +0.000 A 
ATOM      9  O   UNL     1      22.979   8.193  39.788  0.00  0.00    +0.000 OA
ATOM     10  C   UNL     1      21.499   9.409  38.588  0.00  0.00    +0.000 A 
ATOM     11  C   UNL     1      20.171   9.736  38.389  0.00  0.00    +0.000 A 
ATOM     12  O   UNL     1      19.891  10.655  37.368  0.00  0.00    +0.000 OA
ATOM     13  N   UNL     1      19.186   9.215  39.123  0.00  0.00    +0.000 N 
ATOM     14  C   UNL     1      17.810   9.635  38.847  0.00  0.00    +0.000 C 
ATOM     15  C   UNL     1      16.987   9.558  40.126  0.00  0.00    +0.000 C 
ATOM     16  C   UNL     1      17.072   8.141  40.623  0.00  0.00    +0.000 C 
ENDROOT
BRANCH  10  17
ATOM     17  C   UNL     1      22.547  10.001  37.768  0.00  0.00    +0.000 A 
ATOM     18  C   UNL     1      22.899   9.417  36.575  0.00  0.00    +0.000 A 
ATOM     19  C   UNL     1      23.882   9.921  35.743  0.00  0.00    +0.000 A 
ATOM     20  C   UNL     1      24.553  11.063  36.110  0.00  0.00    +0.000 A 
ATOM     21  C   UNL     1      24.219  11.667  37.300  0.00  0.00    +0.000 A 
ATOM     22  C   UNL     1      23.219  11.144  38.136  0.00  0.00    +0.000 A 
ENDBRANCH  10  17
TORSDOF 1
ENDMDL
