MODEL 1
REMARK VINA RESULT:      -7.0      0.000      0.000
REMARK  Name = 
REMARK  4 active torsions:
REMARK  status: ('A' for Active; 'I' for Inactive)
REMARK    1  A    between atoms: O_2  and  C_3
REMARK    2  A    between atoms: C_7  and  C_8
REMARK    3  A    between atoms: C_8  and  N_9
REMARK    4  A    between atoms: N_9  and  C_10
REMARK                            x       y       z     vdW  Elec       q    Type
REMARK                         _______ _______ _______ _____ _____    ______ ____
ROOT
ATOM      1  N   UNL     1      16.018  12.948  36.191  0.00  0.00    +0.000 NA
ENDROOT
BRANCH   1   2
ATOM      2  C   UNL     1      16.865  12.142  37.076  0.00  0.00    +0.000 A 
ATOM      3  C   UNL     1      16.330  11.012  37.550  0.00  0.00    +0.000 A 
ATOM      4  C   UNL     1      17.072  10.109  38.275  0.00  0.00    +0.000 A 
ATOM      5  C   UNL     1      18.408  10.425  38.511  0.00  0.00    +0.000 A 
ATOM      6  C   UNL     1      18.977  11.569  38.052  0.00  0.00    +0.000 A 
ATOM      7  C   UNL     1      18.215  12.478  37.313  0.00  0.00    +0.000 A 
ATOM      8  N   UNL     1      20.269  11.536  38.502  0.00  0.00    +0.000 NA
ATOM      9  C   UNL     1      20.452  10.384  39.226  0.00  0.00    +0.000 A 
ATOM     10  N   UNL     1      19.326   9.715  39.228  0.00  0.00    +0.000 N 
ATOM     11  C   UNL     1      19.051   8.366  39.786  0.00  0.00    +0.000 C 
ENDBRANCH   1   2
BRANCH   1  12
ATOM     12  C   UNL     1      14.977  12.001  35.552  0.00  0.00    +0.000 C 
BRANCH  12  17
ATOM     13  C   UNL     1      14.494  13.358  32.123  0.00  0.00    +0.000 A 
ATOM     14  C   UNL     1      13.668  14.461  32.299  0.00  0.00    +0.000 A 
ATOM     15  C   UNL     1      13.233  14.771  33.554  0.00  0.00    +0.000 A 
ATOM     16  C   UNL     1      13.614  14.000  34.689  0.00  0.00    +0.000 A 
ATOM     17  C   UNL     1      14.428  12.922  34.494  0.00  0.00    +0.000 A 
ATOM     18  C   UNL     1      14.856  12.591  33.237  0.00  0.00    +0.000 A 
ATOM     19  O   UNL     1      15.663  11.465  33.053  0.00  0.00    +0.000 OA
BRANCH  13  21
ATOM     20  C   UNL     1      15.986  13.510  30.167  0.00  0.00    +0.000 C 
ATOM     21  O   UNL     1      15.004  12.965  30.942  0.00  0.00    +0.000 OA
ENDBRANCH  13  21
ENDBRANCH  12  17
ENDBRANCH   1  12
TORSDOF 4
ENDMDL
MODEL 2
REMARK VINA RESULT:      -6.9      2.535      3.890
REMARK  Name = 
REMARK  4 active torsions:
REMARK  status: ('A' for Active; 'I' for Inactive)
REMARK    1  A    between atoms: O_2  and  C_3
REMARK    2  A    between atoms: C_7  and  C_8
REMARK    3  A    between atoms: C_8  and  N_9
REMARK    4  A    between atoms: N_9  and  C_10
REMARK                            x       y       z     vdW  Elec       q    Type
REMARK                         _______ _______ _______ _____ _____    ______ ____
ROOT
ATOM      1  N   UNL     1      18.303  10.814  37.950  0.00  0.00    +0.000 NA
ENDROOT
BRANCH   1   2
ATOM      2  C   UNL     1      19.758  10.791  37.775  0.00  0.00    +0.000 A 
ATOM      3  C   UNL     1      20.247   9.866  36.943  0.00  0.00    +0.000 A 
ATOM      4  C   UNL     1      21.576   9.836  36.594  0.00  0.00    +0.000 A 
ATOM      5  C   UNL     1      22.405  10.804  37.157  0.00  0.00    +0.000 A 
ATOM      6  C   UNL     1      21.941  11.749  38.013  0.00  0.00    +0.000 A 
ATOM      7  C   UNL     1      20.588  11.774  38.357  0.00  0.00    +0.000 A 
ATOM      8  N   UNL     1      23.039  12.487  38.366  0.00  0.00    +0.000 NA
ATOM      9  C   UNL     1      24.138  11.971  37.726  0.00  0.00    +0.000 A 
ATOM     10  N   UNL     1      23.752  10.955  36.995  0.00  0.00    +0.000 N 
ATOM     11  C   UNL     1      24.551  10.140  36.046  0.00  0.00    +0.000 C 
ENDBRANCH   1   2
BRANCH   1  12
ATOM     12  C   UNL     1      17.702   9.753  36.998  0.00  0.00    +0.000 C 
BRANCH  12  17
ATOM     13  C   UNL     1      16.091  11.522  34.152  0.00  0.00    +0.000 A 
ATOM     14  C   UNL     1      15.005  12.177  34.719  0.00  0.00    +0.000 A 
ATOM     15  C   UNL     1      14.768  12.034  36.054  0.00  0.00    +0.000 A 
ATOM     16  C   UNL     1      15.610  11.239  36.883  0.00  0.00    +0.000 A 
ATOM     17  C   UNL     1      16.672  10.606  36.305  0.00  0.00    +0.000 A 
ATOM     18  C   UNL     1      16.910  10.728  34.963  0.00  0.00    +0.000 A 
ATOM     19  O   UNL     1      17.984  10.046  34.383  0.00  0.00    +0.000 OA
BRANCH  13  21
ATOM     20  C   UNL     1      15.867  11.064  31.740  0.00  0.00    +0.000 C 
ATOM     21  O   UNL     1      16.440  11.603  32.855  0.00  0.00    +0.000 OA
ENDBRANCH  13  21
ENDBRANCH  12  17
ENDBRANCH   1  12
TORSDOF 4
ENDMDL
MODEL 3
REMARK VINA RESULT:      -6.9      3.149      7.884
REMARK  Name = 
REMARK  4 active torsions:
REMARK  status: ('A' for Active; 'I' for Inactive)
REMARK    1  A    between atoms: O_2  and  C_3
REMARK    2  A    between atoms: C_7  and  C_8
REMARK    3  A    between atoms: C_8  and  N_9
REMARK    4  A    between atoms: N_9  and  C_10
REMARK                            x       y       z     vdW  Elec       q    Type
REMARK                         _______ _______ _______ _____ _____    ______ ____
ROOT
ATOM      1  N   UNL     1      17.606  10.119  35.723  0.00  0.00    +0.000 NA
ENDROOT
BRANCH   1   2
ATOM      2  C   UNL     1      16.725  10.699  34.706  0.00  0.00    +0.000 A 
ATOM      3  C   UNL     1      15.879  11.651  35.119  0.00  0.00    +0.000 A 
ATOM      4  C   UNL     1      15.104  12.362  34.235  0.00  0.00    +0.000 A 
ATOM      5  C   UNL     1      15.220  12.043  32.883  0.00  0.00    +0.000 A 
ATOM      6  C   UNL     1      16.060  11.076  32.435  0.00  0.00    +0.000 A 
ATOM      7  C   UNL     1      16.848  10.361  33.341  0.00  0.00    +0.000 A 
ATOM      8  N   UNL     1      15.876  11.038  31.079  0.00  0.00    +0.000 NA
ATOM      9  C   UNL     1      14.929  11.970  30.739  0.00  0.00    +0.000 A 
ATOM     10  N   UNL     1      14.535  12.577  31.831  0.00  0.00    +0.000 N 
ATOM     11  C   UNL     1      13.605  13.726  31.969  0.00  0.00    +0.000 C 
ENDBRANCH   1   2
BRANCH   1  12
ATOM     12  C   UNL     1      17.770  11.164  36.850  0.00  0.00    +0.000 C 
BRANCH  12  17
ATOM     13  C   UNL     1      17.173   9.284  40.003  0.00  0.00    +0.000 A 
ATOM     14  C   UNL     1      18.380   8.648  40.263  0.00  0.00    +0.000 A 
ATOM     15  C   UNL     1      19.417   8.811  39.391  0.00  0.00    +0.000 A 
ATOM     16  C   UNL     1      19.295   9.623  38.228  0.00  0.00    +0.000 A 
ATOM     17  C   UNL     1      18.100  10.239  37.992  0.00  0.00    +0.000 A 
ATOM     18  C   UNL     1      17.048  10.070  38.850  0.00  0.00    +0.000 A 
ATOM     19  O   UNL     1      15.822  10.683  38.576  0.00  0.00    +0.000 OA
BRANCH  13  21
ATOM     20  C   UNL     1      15.551   8.174  41.490  0.00  0.00    +0.000 C 
ATOM     21  O   UNL     1      16.088   9.219  40.796  0.00  0.00    +0.000 OA
ENDBRANCH  13  21
ENDBRANCH  12  17
ENDBRANCH   1  12
TORSDOF 4
ENDMDL
MODEL 4
REMARK VINA RESULT:      -6.7      3.751      8.347
REMARK  Name = 
REMARK  4 active torsions:
REMARK  status: ('A' for Active; 'I' for Inactive)
REMARK    1  A    between atoms: O_2  and  C_3
REMARK    2  A    between atoms: C_7  and  C_8
REMARK    3  A    between atoms: C_8  and  N_9
REMARK    4  A    between atoms: N_9  and  C_10
REMARK                            x       y       z     vdW  Elec       q    Type
REMARK                         _______ _______ _______ _____ _____    ______ ____
ROOT
ATOM      1  N   UNL     1      18.967   9.423  38.165  0.00  0.00    +0.000 NA
ENDROOT
BRANCH   1   2
ATOM      2  C   UNL     1      18.246   9.947  37.001  0.00  0.00    +0.000 A 
ATOM      3  C   UNL     1      18.630   9.490  35.804  0.00  0.00    +0.000 A 
ATOM      4  C   UNL     1      17.941   9.802  34.656  0.00  0.00    +0.000 A 
ATOM      5  C   UNL     1      16.829  10.631  34.784  0.00  0.00    +0.000 A 
ATOM      6  C   UNL     1      16.421  11.118  35.983  0.00  0.00    +0.000 A 
ATOM      7  C   UNL     1      17.125  10.792  37.145  0.00  0.00    +0.000 A 
ATOM      8  N   UNL     1      15.333  11.900  35.703  0.00  0.00    +0.000 NA
ATOM      9  C   UNL     1      15.111  11.875  34.350  0.00  0.00    +0.000 A 
ATOM     10  N   UNL     1      16.016  11.106  33.797  0.00  0.00    +0.000 N 
ATOM     11  C   UNL     1      16.133  10.685  32.378  0.00  0.00    +0.000 C 
ENDBRANCH   1   2
BRANCH   1  12
ATOM     12  C   UNL     1      18.184   9.847  39.429  0.00  0.00    +0.000 C 
BRANCH  12  17
ATOM     13  C   UNL     1      16.594   7.336  41.664  0.00  0.00    +0.000 A 
ATOM     14  C   UNL     1      17.287   6.158  41.413  0.00  0.00    +0.000 A 
ATOM     15  C   UNL     1      18.285   6.162  40.484  0.00  0.00    +0.000 A 
ATOM     16  C   UNL     1      18.641   7.343  39.772  0.00  0.00    +0.000 A 
ATOM     17  C   UNL     1      17.948   8.489  40.036  0.00  0.00    +0.000 A 
ATOM     18  C   UNL     1      16.933   8.494  40.953  0.00  0.00    +0.000 A 
ATOM     19  O   UNL     1      16.213   9.669  41.186  0.00  0.00    +0.000 OA
BRANCH  13  21
ATOM     20  C   UNL     1      15.603   7.265  43.920  0.00  0.00    +0.000 C 
ATOM     21  O   UNL     1      15.608   7.464  42.570  0.00  0.00    +0.000 OA
ENDBRANCH  13  21
ENDBRANCH  12  17
ENDBRANCH   1  12
TORSDOF 4
ENDMDL
MODEL 5
REMARK VINA RESULT:      -6.2     17.692     20.356
REMARK  Name = 
REMARK  4 active torsions:
REMARK  status: ('A' for Active; 'I' for Inactive)
REMARK    1  A    between atoms: O_2  and  C_3
REMARK    2  A    between atoms: C_7  and  C_8
REMARK    3  A    between atoms: C_8  and  N_9
REMARK    4  A    between atoms: N_9  and  C_10
REMARK                            x       y       z     vdW  Elec       q    Type
REMARK                         _______ _______ _______ _____ _____    ______ ____
ROOT
ATOM      1  N   UNL     1      31.062  22.031  27.374  0.00  0.00    +0.000 NA
ENDROOT
BRANCH   1   2
ATOM      2  C   UNL     1      30.079  22.318  26.324  0.00  0.00    +0.000 A 
ATOM      3  C   UNL     1      28.792  22.292  26.686  0.00  0.00    +0.000 A 
ATOM      4  C   UNL     1      27.791  22.677  25.827  0.00  0.00    +0.000 A 
ATOM      5  C   UNL     1      28.168  23.083  24.549  0.00  0.00    +0.000 A 
ATOM      6  C   UNL     1      29.464  23.110  24.148  0.00  0.00    +0.000 A 
ATOM      7  C   UNL     1      30.475  22.721  25.031  0.00  0.00    +0.000 A 
ATOM      8  N   UNL     1      29.432  23.530  22.846  0.00  0.00    +0.000 NA
ATOM      9  C   UNL     1      28.124  23.740  22.486  0.00  0.00    +0.000 A 
ATOM     10  N   UNL     1      27.363  23.470  23.517  0.00  0.00    +0.000 N 
ATOM     11  C   UNL     1      25.895  23.642  23.656  0.00  0.00    +0.000 C 
ENDBRANCH   1   2
BRANCH   1  12
ATOM     12  C   UNL     1      30.839  23.052  28.513  0.00  0.00    +0.000 C 
BRANCH  12  17
ATOM     13  C   UNL     1      31.281  21.525  31.875  0.00  0.00    +0.000 A 
ATOM     14  C   UNL     1      32.606  21.110  31.897  0.00  0.00    +0.000 A 
ATOM     15  C   UNL     1      33.382  21.308  30.793  0.00  0.00    +0.000 A 
ATOM     16  C   UNL     1      32.870  21.938  29.622  0.00  0.00    +0.000 A 
ATOM     17  C   UNL     1      31.566  22.339  29.623  0.00  0.00    +0.000 A 
ATOM     18  C   UNL     1      30.773  22.130  30.718  0.00  0.00    +0.000 A 
ATOM     19  O   UNL     1      29.431  22.518  30.689  0.00  0.00    +0.000 OA
BRANCH  13  21
ATOM     20  C   UNL     1      30.652  21.219  34.238  0.00  0.00    +0.000 C 
ATOM     21  O   UNL     1      30.425  21.405  32.906  0.00  0.00    +0.000 OA
ENDBRANCH  13  21
ENDBRANCH  12  17
ENDBRANCH   1  12
TORSDOF 4
ENDMDL
MODEL 6
REMARK VINA RESULT:      -6.2     17.764     20.181
REMARK  Name = 
REMARK  4 active torsions:
REMARK  status: ('A' for Active; 'I' for Inactive)
REMARK    1  A    between atoms: O_2  and  C_3
REMARK    2  A    between atoms: C_7  and  C_8
REMARK    3  A    between atoms: C_8  and  N_9
REMARK    4  A    between atoms: N_9  and  C_10
REMARK                            x       y       z     vdW  Elec       q    Type
REMARK                         _______ _______ _______ _____ _____    ______ ____
ROOT
ATOM      1  N   UNL     1      26.446  23.487  24.054  0.00  0.00    +0.000 NA
ENDROOT
BRANCH   1   2
ATOM      2  C   UNL     1      26.581  23.316  25.504  0.00  0.00    +0.000 A 
ATOM      3  C   UNL     1      27.595  22.552  25.925  0.00  0.00    +0.000 A 
ATOM      4  C   UNL     1      27.904  22.430  27.258  0.00  0.00    +0.000 A 
ATOM      5  C   UNL     1      27.106  23.125  28.164  0.00  0.00    +0.000 A 
ATOM      6  C   UNL     1      26.064  23.900  27.769  0.00  0.00    +0.000 A 
ATOM      7  C   UNL     1      25.761  24.020  26.411  0.00  0.00    +0.000 A 
ATOM      8  N   UNL     1      25.516  24.386  28.926  0.00  0.00    +0.000 NA
ATOM      9  C   UNL     1      26.229  23.893  29.989  0.00  0.00    +0.000 A 
ATOM     10  N   UNL     1      27.190  23.133  29.526  0.00  0.00    +0.000 N 
ATOM     11  C   UNL     1      28.282  22.461  30.275  0.00  0.00    +0.000 C 
ENDBRANCH   1   2
BRANCH   1  12
ATOM     12  C   UNL     1      27.870  23.503  23.452  0.00  0.00    +0.000 C 
BRANCH  12  17
ATOM     13  C   UNL     1      28.869  26.155  21.044  0.00  0.00    +0.000 A 
ATOM     14  C   UNL     1      28.108  27.259  21.407  0.00  0.00    +0.000 A 
ATOM     15  C   UNL     1      27.231  27.147  22.445  0.00  0.00    +0.000 A 
ATOM     16  C   UNL     1      27.083  25.932  23.173  0.00  0.00    +0.000 A 
ATOM     17  C   UNL     1      27.842  24.861  22.800  0.00  0.00    +0.000 A 
ATOM     18  C   UNL     1      28.712  24.955  21.749  0.00  0.00    +0.000 A 
ATOM     19  O   UNL     1      29.458  23.838  21.361  0.00  0.00    +0.000 OA
BRANCH  13  21
ATOM     20  C   UNL     1      30.084  27.085  19.111  0.00  0.00    +0.000 C 
ATOM     21  O   UNL     1      29.781  26.147  20.055  0.00  0.00    +0.000 OA
ENDBRANCH  13  21
ENDBRANCH  12  17
ENDBRANCH   1  12
TORSDOF 4
ENDMDL
MODEL 7
REMARK VINA RESULT:      -6.2     28.474     31.728
REMARK  Name = 
REMARK  4 active torsions:
REMARK  status: ('A' for Active; 'I' for Inactive)
REMARK    1  A    between atoms: O_2  and  C_3
REMARK    2  A    between atoms: C_7  and  C_8
REMARK    3  A    between atoms: C_8  and  N_9
REMARK    4  A    between atoms: N_9  and  C_10
REMARK                            x       y       z     vdW  Elec       q    Type
REMARK                         _______ _______ _______ _____ _____    ______ ____
ROOT
ATOM      1  N   UNL     1      32.804  20.484  11.257  0.00  0.00    +0.000 NA
ENDROOT
BRANCH   1   2
ATOM      2  C   UNL     1      31.504  21.141  11.428  0.00  0.00    +0.000 A 
ATOM      3  C   UNL     1      30.585  20.902  10.487  0.00  0.00    +0.000 A 
ATOM      4  C   UNL     1      29.291  21.350  10.610  0.00  0.00    +0.000 A 
ATOM      5  C   UNL     1      28.974  22.080  11.753  0.00  0.00    +0.000 A 
ATOM      6  C   UNL     1      29.888  22.348  12.720  0.00  0.00    +0.000 A 
ATOM      7  C   UNL     1      31.199  21.885  12.588  0.00  0.00    +0.000 A 
ATOM      8  N   UNL     1      29.220  23.098  13.651  0.00  0.00    +0.000 NA
ATOM      9  C   UNL     1      27.927  23.273  13.226  0.00  0.00    +0.000 A 
ATOM     10  N   UNL     1      27.781  22.656  12.080  0.00  0.00    +0.000 N 
ATOM     11  C   UNL     1      26.545  22.471  11.277  0.00  0.00    +0.000 C 
ENDBRANCH   1   2
BRANCH   1  12
ATOM     12  C   UNL     1      33.177  20.571   9.759  0.00  0.00    +0.000 C 
BRANCH  12  17
ATOM     13  C   UNL     1      34.318  23.919   8.612  0.00  0.00    +0.000 A 
ATOM     14  C   UNL     1      35.344  24.255   9.485  0.00  0.00    +0.000 A 
ATOM     15  C   UNL     1      35.671  23.390  10.488  0.00  0.00    +0.000 A 
ATOM     16  C   UNL     1      34.995  22.149  10.655  0.00  0.00    +0.000 A 
ATOM     17  C   UNL     1      33.991  21.838   9.785  0.00  0.00    +0.000 A 
ATOM     18  C   UNL     1      33.642  22.705   8.786  0.00  0.00    +0.000 A 
ATOM     19  O   UNL     1      32.589  22.384   7.924  0.00  0.00    +0.000 OA
BRANCH  13  21
ATOM     20  C   UNL     1      34.638  25.349   6.630  0.00  0.00    +0.000 C 
ATOM     21  O   UNL     1      33.919  24.676   7.574  0.00  0.00    +0.000 OA
ENDBRANCH  13  21
ENDBRANCH  12  17
ENDBRANCH   1  12
TORSDOF 4
ENDMDL
MODEL 8
REMARK VINA RESULT:      -6.2     19.271     22.599
REMARK  Name = 
REMARK  4 active torsions:
REMARK  status: ('A' for Active; 'I' for Inactive)
REMARK    1  A    between atoms: O_2  and  C_3
REMARK    2  A    between atoms: C_7  and  C_8
REMARK    3  A    between atoms: C_8  and  N_9
REMARK    4  A    between atoms: N_9  and  C_10
REMARK                            x       y       z     vdW  Elec       q    Type
REMARK                         _______ _______ _______ _____ _____    ______ ____
ROOT
ATOM      1  N   UNL     1      28.214  23.320  22.406  0.00  0.00    +0.000 NA
ENDROOT
BRANCH   1   2
ATOM      2  C   UNL     1      28.292  24.624  21.740  0.00  0.00    +0.000 A 
ATOM      3  C   UNL     1      27.364  25.526  22.079  0.00  0.00    +0.000 A 
ATOM      4  C   UNL     1      27.416  26.823  21.626  0.00  0.00    +0.000 A 
ATOM      5  C   UNL     1      28.470  27.161  20.781  0.00  0.00    +0.000 A 
ATOM      6  C   UNL     1      29.420  26.267  20.410  0.00  0.00    +0.000 A 
ATOM      7  C   UNL     1      29.361  24.952  20.879  0.00  0.00    +0.000 A 
ATOM      8  N   UNL     1      30.255  26.953  19.569  0.00  0.00    +0.000 NA
ATOM      9  C   UNL     1      29.791  28.238  19.444  0.00  0.00    +0.000 A 
ATOM     10  N   UNL     1      28.713  28.362  20.179  0.00  0.00    +0.000 N 
ATOM     11  C   UNL     1      27.912  29.582  20.451  0.00  0.00    +0.000 C 
ENDBRANCH   1   2
BRANCH   1  12
ATOM     12  C   UNL     1      27.378  23.503  23.693  0.00  0.00    +0.000 C 
BRANCH  12  17
ATOM     13  C   UNL     1      28.576  22.313  27.006  0.00  0.00    +0.000 A 
ATOM     14  C   UNL     1      29.941  22.119  26.834  0.00  0.00    +0.000 A 
ATOM     15  C   UNL     1      30.495  22.359  25.611  0.00  0.00    +0.000 A 
ATOM     16  C   UNL     1      29.713  22.812  24.511  0.00  0.00    +0.000 A 
ATOM     17  C   UNL     1      28.375  22.998  24.703  0.00  0.00    +0.000 A 
ATOM     18  C   UNL     1      27.804  22.744  25.921  0.00  0.00    +0.000 A 
ATOM     19  O   UNL     1      26.426  22.909  26.090  0.00  0.00    +0.000 OA
BRANCH  13  21
ATOM     20  C   UNL     1      28.063  22.742  29.379  0.00  0.00    +0.000 C 
ATOM     21  O   UNL     1      27.919  22.133  28.166  0.00  0.00    +0.000 OA
ENDBRANCH  13  21
ENDBRANCH  12  17
ENDBRANCH   1  12
TORSDOF 4
ENDMDL
MODEL 9
REMARK VINA RESULT:      -6.1     17.776     19.070
REMARK  Name = 
REMARK  4 active torsions:
REMARK  status: ('A' for Active; 'I' for Inactive)
REMARK    1  A    between atoms: O_2  and  C_3
REMARK    2  A    between atoms: C_7  and  C_8
REMARK    3  A    between atoms: C_8  and  N_9
REMARK    4  A    between atoms: N_9  and  C_10
REMARK                            x       y       z     vdW  Elec       q    Type
REMARK                         _______ _______ _______ _____ _____    ______ ____
ROOT
ATOM      1  N   UNL     1      29.809  23.567  27.108  0.00  0.00    +0.000 NA
ENDROOT
BRANCH   1   2
ATOM      2  C   UNL     1      30.420  22.885  28.253  0.00  0.00    +0.000 A 
ATOM      3  C   UNL     1      31.652  22.396  28.071  0.00  0.00    +0.000 A 
ATOM      4  C   UNL     1      32.377  21.859  29.108  0.00  0.00    +0.000 A 
ATOM      5  C   UNL     1      31.771  21.828  30.362  0.00  0.00    +0.000 A 
ATOM      6  C   UNL     1      30.519  22.306  30.576  0.00  0.00    +0.000 A 
ATOM      7  C   UNL     1      29.791  22.853  29.516  0.00  0.00    +0.000 A 
ATOM      8  N   UNL     1      30.267  22.078  31.902  0.00  0.00    +0.000 NA
ATOM      9  C   UNL     1      31.362  21.464  32.457  0.00  0.00    +0.000 A 
ATOM     10  N   UNL     1      32.269  21.316  31.524  0.00  0.00    +0.000 N 
ATOM     11  C   UNL     1      33.656  20.801  31.654  0.00  0.00    +0.000 C 
ENDBRANCH   1   2
BRANCH   1  12
ATOM     12  C   UNL     1      29.950  22.638  25.881  0.00  0.00    +0.000 C 
BRANCH  12  17
ATOM     13  C   UNL     1      27.441  23.502  23.275  0.00  0.00    +0.000 A 
ATOM     14  C   UNL     1      26.214  23.309  23.896  0.00  0.00    +0.000 A 
ATOM     15  C   UNL     1      26.185  22.869  25.186  0.00  0.00    +0.000 A 
ATOM     16  C   UNL     1      27.381  22.613  25.916  0.00  0.00    +0.000 A 
ATOM     17  C   UNL     1      28.576  22.811  25.287  0.00  0.00    +0.000 A 
ATOM     18  C   UNL     1      28.617  23.235  23.987  0.00  0.00    +0.000 A 
ATOM     19  O   UNL     1      29.850  23.402  23.349  0.00  0.00    +0.000 OA
BRANCH  13  21
ATOM     20  C   UNL     1      27.597  25.221  21.516  0.00  0.00    +0.000 C 
ATOM     21  O   UNL     1      27.599  23.952  22.017  0.00  0.00    +0.000 OA
ENDBRANCH  13  21
ENDBRANCH  12  17
ENDBRANCH   1  12
TORSDOF 4
ENDMDL
MODEL 10
REMARK VINA RESULT:      -6.0     17.009     19.259
REMARK  Name = 
REMARK  4 active torsions:
REMARK  status: ('A' for Active; 'I' for Inactive)
REMARK    1  A    between atoms: O_2  and  C_3
REMARK    2  A    between atoms: C_7  and  C_8
REMARK    3  A    between atoms: C_8  and  N_9
REMARK    4  A    between atoms: N_9  and  C_10
REMARK                            x       y       z     vdW  Elec       q    Type
REMARK                         _______ _______ _______ _____ _____    ______ ____
ROOT
ATOM      1  N   UNL     1      25.361  24.271  24.941  0.00  0.00    +0.000 NA
ENDROOT
BRANCH   1   2
ATOM      2  C   UNL     1      25.471  24.557  26.375  0.00  0.00    +0.000 A 
ATOM      3  C   UNL     1      24.737  25.574  26.840  0.00  0.00    +0.000 A 
ATOM      4  C   UNL     1      24.651  25.849  28.184  0.00  0.00    +0.000 A 
ATOM      5  C   UNL     1      25.375  25.032  29.050  0.00  0.00    +0.000 A 
ATOM      6  C   UNL     1      26.137  24.000  28.608  0.00  0.00    +0.000 A 
ATOM      7  C   UNL     1      26.214  23.726  27.240  0.00  0.00    +0.000 A 
ATOM      8  N   UNL     1      26.704  23.463  29.732  0.00  0.00    +0.000 NA
ATOM      9  C   UNL     1      26.283  24.182  30.822  0.00  0.00    +0.000 A 
ATOM     10  N   UNL     1      25.478  25.129  30.407  0.00  0.00    +0.000 N 
ATOM     11  C   UNL     1      24.691  26.096  31.213  0.00  0.00    +0.000 C 
ENDBRANCH   1   2
BRANCH   1  12
ATOM     12  C   UNL     1      26.153  22.972  24.663  0.00  0.00    +0.000 C 
BRANCH  12  17
ATOM     13  C   UNL     1      29.532  23.718  23.300  0.00  0.00    +0.000 A 
ATOM     14  C   UNL     1      29.287  24.424  22.129  0.00  0.00    +0.000 A 
ATOM     15  C   UNL     1      27.997  24.654  21.751  0.00  0.00    +0.000 A 
ATOM     16  C   UNL     1      26.896  24.198  22.531  0.00  0.00    +0.000 A 
ATOM     17  C   UNL     1      27.160  23.508  23.679  0.00  0.00    +0.000 A 
ATOM     18  C   UNL     1      28.450  23.256  24.059  0.00  0.00    +0.000 A 
ATOM     19  O   UNL     1      28.700  22.520  25.221  0.00  0.00    +0.000 OA
BRANCH  13  21
ATOM     20  C   UNL     1      31.620  24.219  24.510  0.00  0.00    +0.000 C 
ATOM     21  O   UNL     1      30.756  23.448  23.788  0.00  0.00    +0.000 OA
ENDBRANCH  13  21
ENDBRANCH  12  17
ENDBRANCH   1  12
TORSDOF 4
ENDMDL
