MODEL 1
REMARK VINA RESULT:      -8.9      0.000      0.000
REMARK  Name = 
REMARK  8 active torsions:
REMARK  status: ('A' for Active; 'I' for Inactive)
REMARK    1  A    between atoms: C_2  and  C_3
REMARK    2  A    between atoms: C_3  and  O_4
REMARK    3  A    between atoms: C_3  and  C_26
REMARK    4  A    between atoms: O_4  and  C_5
REMARK    5  A    between atoms: C_5  and  C_7
REMARK    6  A    between atoms: C_9  and  C_10
REMARK    7  A    between atoms: C_13  and  C_14
REMARK    8  A    between atoms: C_26  and  C_28
REMARK                            x       y       z     vdW  Elec       q    Type
REMARK                         _______ _______ _______ _____ _____    ______ ____
ROOT
ATOM      1  C   UNL     1      36.269   2.658  15.878  0.00  0.00    +0.000 A 
ATOM      2  C   UNL     1      37.055   3.602  16.594  0.00  0.00    +0.000 A 
ATOM      3  C   UNL     1      38.282   4.030  16.193  0.00  0.00    +0.000 A 
ATOM      4  N   UNL     1      38.789   3.517  15.027  0.00  0.00    +0.000 NA
ATOM      5  C   UNL     1      38.064   2.604  14.291  0.00  0.00    +0.000 A 
ATOM      6  C   UNL     1      38.621   2.144  13.094  0.00  0.00    +0.000 A 
ATOM      7  C   UNL     1      37.890   1.260  12.336  0.00  0.00    +0.000 A 
ATOM      8  C   UNL     1      36.668   0.869  12.778  0.00  0.00    +0.000 A 
ATOM      9  C   UNL     1      36.093   1.320  13.977  0.00  0.00    +0.000 A 
ATOM     10  C   UNL     1      36.879   2.234  14.730  0.00  0.00    +0.000 A 
ENDROOT
BRANCH   3  11
ATOM     11  C   UNL     1      39.088   4.984  16.950  0.00  0.00    +0.000 A 
ATOM     12  C   UNL     1      38.953   5.072  18.325  0.00  0.00    +0.000 A 
ATOM     13  C   UNL     1      39.868   5.756  19.098  0.00  0.00    +0.000 A 
ATOM     14  C   UNL     1      40.991   6.409  18.581  0.00  0.00    +0.000 A 
ATOM     15  C   UNL     1      41.115   6.318  17.215  0.00  0.00    +0.000 A 
ATOM     16  C   UNL     1      40.185   5.623  16.419  0.00  0.00    +0.000 A 
BRANCH  14  17
ATOM     17  C   UNL     1      41.952   7.135  19.471  0.00  0.00    +0.000 C 
ATOM     18  C   UNL     1      43.350   7.282  18.888  0.00  0.00    +0.000 C 
ATOM     19  C   UNL     1      42.162   6.230  20.677  0.00  0.00    +0.000 C 
ENDBRANCH  14  17
ENDBRANCH   3  11
BRANCH   1  20
ATOM     20  C   UNL     1      34.963   2.206  16.308  0.00  0.00    +0.000 C 
ATOM     21  O   UNL     1      33.944   2.840  16.000  0.00  0.00    +0.000 OA
BRANCH  20  22
ATOM     22  O   UNL     1      34.751   1.047  17.090  0.00  0.00    +0.000 OA
BRANCH  22  23
ATOM     23  C   UNL     1      35.917   0.223  17.450  0.00  0.00    +0.000 C 
BRANCH  23  25
ATOM     24  C   UNL     1      36.761  -1.001  19.422  0.00  0.00    +0.000 C 
ATOM     25  C   UNL     1      35.981   0.153  18.903  0.00  0.00    +0.000 C 
ENDBRANCH  23  25
BRANCH  23  26
ATOM     26  C   UNL     1      35.845  -0.995  16.591  0.00  0.00    +0.000 C 
ATOM     27  O   UNL     1      34.712  -1.583  16.672  0.00  0.00    +0.000 OA
BRANCH  26  28
ATOM     28  C   UNL     1      36.883  -1.467  15.746  0.00  0.00    +0.000 A 
ATOM     29  C   UNL     1      38.150  -1.112  15.847  0.00  0.00    +0.000 A 
ATOM     30  C   UNL     1      39.140  -1.552  14.966  0.00  0.00    +0.000 A 
ATOM     31  C   UNL     1      38.775  -2.413  13.917  0.00  0.00    +0.000 A 
ATOM     32  C   UNL     1      37.474  -2.743  13.858  0.00  0.00    +0.000 A 
ATOM     33  C   UNL     1      36.497  -2.325  14.705  0.00  0.00    +0.000 A 
ENDBRANCH  26  28
ENDBRANCH  23  26
ENDBRANCH  22  23
ENDBRANCH  20  22
ENDBRANCH   1  20
TORSDOF 8
ENDMDL
MODEL 2
REMARK VINA RESULT:      -8.3      1.490      2.179
REMARK  Name = 
REMARK  8 active torsions:
REMARK  status: ('A' for Active; 'I' for Inactive)
REMARK    1  A    between atoms: C_2  and  C_3
REMARK    2  A    between atoms: C_3  and  O_4
REMARK    3  A    between atoms: C_3  and  C_26
REMARK    4  A    between atoms: O_4  and  C_5
REMARK    5  A    between atoms: C_5  and  C_7
REMARK    6  A    between atoms: C_9  and  C_10
REMARK    7  A    between atoms: C_13  and  C_14
REMARK    8  A    between atoms: C_26  and  C_28
REMARK                            x       y       z     vdW  Elec       q    Type
REMARK                         _______ _______ _______ _____ _____    ______ ____
ROOT
ATOM      1  C   UNL     1      36.877   1.337  15.291  0.00  0.00    +0.000 A 
ATOM      2  C   UNL     1      37.384   2.389  16.100  0.00  0.00    +0.000 A 
ATOM      3  C   UNL     1      38.113   3.433  15.623  0.00  0.00    +0.000 A 
ATOM      4  N   UNL     1      38.373   3.469  14.277  0.00  0.00    +0.000 NA
ATOM      5  C   UNL     1      37.898   2.476  13.447  0.00  0.00    +0.000 A 
ATOM      6  C   UNL     1      38.169   2.587  12.079  0.00  0.00    +0.000 A 
ATOM      7  C   UNL     1      37.670   1.620  11.239  0.00  0.00    +0.000 A 
ATOM      8  C   UNL     1      36.943   0.603  11.765  0.00  0.00    +0.000 A 
ATOM      9  C   UNL     1      36.662   0.475  13.135  0.00  0.00    +0.000 A 
ATOM     10  C   UNL     1      37.194   1.495  13.970  0.00  0.00    +0.000 A 
ENDROOT
BRANCH   3  11
ATOM     11  C   UNL     1      38.646   4.496  16.470  0.00  0.00    +0.000 A 
ATOM     12  C   UNL     1      38.366   4.512  17.825  0.00  0.00    +0.000 A 
ATOM     13  C   UNL     1      39.056   5.330  18.696  0.00  0.00    +0.000 A 
ATOM     14  C   UNL     1      40.078   6.199  18.304  0.00  0.00    +0.000 A 
ATOM     15  C   UNL     1      40.347   6.179  16.956  0.00  0.00    +0.000 A 
ATOM     16  C   UNL     1      39.647   5.348  16.060  0.00  0.00    +0.000 A 
BRANCH  14  17
ATOM     17  C   UNL     1      40.793   7.064  19.295  0.00  0.00    +0.000 C 
ATOM     18  C   UNL     1      41.771   6.313  20.187  0.00  0.00    +0.000 C 
ATOM     19  C   UNL     1      39.724   7.548  20.266  0.00  0.00    +0.000 C 
ENDBRANCH  14  17
ENDBRANCH   3  11
BRANCH   1  20
ATOM     20  C   UNL     1      36.101   0.228  15.803  0.00  0.00    +0.000 C 
ATOM     21  O   UNL     1      34.947   0.405  16.219  0.00  0.00    +0.000 OA
BRANCH  20  22
ATOM     22  O   UNL     1      36.580  -1.100  15.873  0.00  0.00    +0.000 OA
BRANCH  22  23
ATOM     23  C   UNL     1      37.612  -1.421  16.873  0.00  0.00    +0.000 C 
BRANCH  23  25
ATOM     24  C   UNL     1      37.200  -1.361  19.308  0.00  0.00    +0.000 C 
ATOM     25  C   UNL     1      36.951  -2.044  18.011  0.00  0.00    +0.000 C 
ENDBRANCH  23  25
BRANCH  23  26
ATOM     26  C   UNL     1      38.720  -2.086  16.127  0.00  0.00    +0.000 C 
ATOM     27  O   UNL     1      39.210  -3.080  16.764  0.00  0.00    +0.000 OA
BRANCH  26  28
ATOM     28  C   UNL     1      39.189  -1.706  14.843  0.00  0.00    +0.000 A 
ATOM     29  C   UNL     1      38.954  -2.378  13.732  0.00  0.00    +0.000 A 
ATOM     30  C   UNL     1      39.475  -2.008  12.489  0.00  0.00    +0.000 A 
ATOM     31  C   UNL     1      40.292  -0.867  12.413  0.00  0.00    +0.000 A 
ATOM     32  C   UNL     1      40.500  -0.220  13.572  0.00  0.00    +0.000 A 
ATOM     33  C   UNL     1      40.003  -0.564  14.789  0.00  0.00    +0.000 A 
ENDBRANCH  26  28
ENDBRANCH  23  26
ENDBRANCH  22  23
ENDBRANCH  20  22
ENDBRANCH   1  20
TORSDOF 8
ENDMDL
MODEL 3
REMARK VINA RESULT:      -8.2      0.800      1.569
REMARK  Name = 
REMARK  8 active torsions:
REMARK  status: ('A' for Active; 'I' for Inactive)
REMARK    1  A    between atoms: C_2  and  C_3
REMARK    2  A    between atoms: C_3  and  O_4
REMARK    3  A    between atoms: C_3  and  C_26
REMARK    4  A    between atoms: O_4  and  C_5
REMARK    5  A    between atoms: C_5  and  C_7
REMARK    6  A    between atoms: C_9  and  C_10
REMARK    7  A    between atoms: C_13  and  C_14
REMARK    8  A    between atoms: C_26  and  C_28
REMARK                            x       y       z     vdW  Elec       q    Type
REMARK                         _______ _______ _______ _____ _____    ______ ____
ROOT
ATOM      1  C   UNL     1      36.316   2.519  15.716  0.00  0.00    +0.000 A 
ATOM      2  C   UNL     1      37.073   3.408  16.525  0.00  0.00    +0.000 A 
ATOM      3  C   UNL     1      38.317   3.856  16.207  0.00  0.00    +0.000 A 
ATOM      4  N   UNL     1      38.872   3.419  15.031  0.00  0.00    +0.000 NA
ATOM      5  C   UNL     1      38.176   2.561  14.206  0.00  0.00    +0.000 A 
ATOM      6  C   UNL     1      38.783   2.178  13.006  0.00  0.00    +0.000 A 
ATOM      7  C   UNL     1      38.082   1.350  12.161  0.00  0.00    +0.000 A 
ATOM      8  C   UNL     1      36.842   0.938  12.523  0.00  0.00    +0.000 A 
ATOM      9  C   UNL     1      36.217   1.311  13.724  0.00  0.00    +0.000 A 
ATOM     10  C   UNL     1      36.973   2.169  14.569  0.00  0.00    +0.000 A 
ENDROOT
BRANCH   3  11
ATOM     11  C   UNL     1      39.093   4.753  17.059  0.00  0.00    +0.000 A 
ATOM     12  C   UNL     1      39.959   5.673  16.493  0.00  0.00    +0.000 A 
ATOM     13  C   UNL     1      40.500   6.703  17.232  0.00  0.00    +0.000 A 
ATOM     14  C   UNL     1      40.235   6.913  18.589  0.00  0.00    +0.000 A 
ATOM     15  C   UNL     1      39.376   5.993  19.142  0.00  0.00    +0.000 A 
ATOM     16  C   UNL     1      38.820   4.938  18.395  0.00  0.00    +0.000 A 
BRANCH  14  17
ATOM     17  C   UNL     1      40.852   8.051  19.340  0.00  0.00    +0.000 C 
ATOM     18  C   UNL     1      39.877   8.818  20.221  0.00  0.00    +0.000 C 
ATOM     19  C   UNL     1      41.256   9.072  18.285  0.00  0.00    +0.000 C 
ENDBRANCH  14  17
ENDBRANCH   3  11
BRANCH   1  20
ATOM     20  C   UNL     1      34.991   2.047  16.059  0.00  0.00    +0.000 C 
ATOM     21  O   UNL     1      34.010   2.798  15.966  0.00  0.00    +0.000 OA
BRANCH  20  22
ATOM     22  O   UNL     1      34.718   0.737  16.515  0.00  0.00    +0.000 OA
BRANCH  22  23
ATOM     23  C   UNL     1      35.809  -0.026  17.145  0.00  0.00    +0.000 C 
BRANCH  23  25
ATOM     24  C   UNL     1      36.599  -0.775  19.362  0.00  0.00    +0.000 C 
ATOM     25  C   UNL     1      35.566  -0.045  18.581  0.00  0.00    +0.000 C 
ENDBRANCH  23  25
BRANCH  23  26
ATOM     26  C   UNL     1      35.960  -1.274  16.341  0.00  0.00    +0.000 C 
ATOM     27  O   UNL     1      35.001  -2.098  16.532  0.00  0.00    +0.000 OA
BRANCH  26  28
ATOM     28  C   UNL     1      37.019  -1.544  15.435  0.00  0.00    +0.000 A 
ATOM     29  C   UNL     1      36.900  -2.275  14.343  0.00  0.00    +0.000 A 
ATOM     30  C   UNL     1      37.974  -2.568  13.498  0.00  0.00    +0.000 A 
ATOM     31  C   UNL     1      39.245  -2.066  13.825  0.00  0.00    +0.000 A 
ATOM     32  C   UNL     1      39.312  -1.330  14.947  0.00  0.00    +0.000 A 
ATOM     33  C   UNL     1      38.280  -1.035  15.780  0.00  0.00    +0.000 A 
ENDBRANCH  26  28
ENDBRANCH  23  26
ENDBRANCH  22  23
ENDBRANCH  20  22
ENDBRANCH   1  20
TORSDOF 8
ENDMDL
MODEL 4
REMARK VINA RESULT:      -7.8      2.510      4.041
REMARK  Name = 
REMARK  8 active torsions:
REMARK  status: ('A' for Active; 'I' for Inactive)
REMARK    1  A    between atoms: C_2  and  C_3
REMARK    2  A    between atoms: C_3  and  O_4
REMARK    3  A    between atoms: C_3  and  C_26
REMARK    4  A    between atoms: O_4  and  C_5
REMARK    5  A    between atoms: C_5  and  C_7
REMARK    6  A    between atoms: C_9  and  C_10
REMARK    7  A    between atoms: C_13  and  C_14
REMARK    8  A    between atoms: C_26  and  C_28
REMARK                            x       y       z     vdW  Elec       q    Type
REMARK                         _______ _______ _______ _____ _____    ______ ____
ROOT
ATOM      1  C   UNL     1      37.734   2.029  14.725  0.00  0.00    +0.000 A 
ATOM      2  C   UNL     1      38.240   3.209  15.335  0.00  0.00    +0.000 A 
ATOM      3  C   UNL     1      37.877   3.642  16.571  0.00  0.00    +0.000 A 
ATOM      4  N   UNL     1      36.965   2.893  17.269  0.00  0.00    +0.000 NA
ATOM      5  C   UNL     1      36.447   1.737  16.726  0.00  0.00    +0.000 A 
ATOM      6  C   UNL     1      35.547   1.000  17.501  0.00  0.00    +0.000 A 
ATOM      7  C   UNL     1      35.052  -0.173  16.980  0.00  0.00    +0.000 A 
ATOM      8  C   UNL     1      35.452  -0.564  15.745  0.00  0.00    +0.000 A 
ATOM      9  C   UNL     1      36.355   0.163  14.952  0.00  0.00    +0.000 A 
ATOM     10  C   UNL     1      36.844   1.368  15.526  0.00  0.00    +0.000 A 
ENDROOT
BRANCH   3  11
ATOM     11  C   UNL     1      38.389   4.868  17.177  0.00  0.00    +0.000 A 
ATOM     12  C   UNL     1      38.059   6.100  16.640  0.00  0.00    +0.000 A 
ATOM     13  C   UNL     1      38.296   7.274  17.325  0.00  0.00    +0.000 A 
ATOM     14  C   UNL     1      38.876   7.331  18.595  0.00  0.00    +0.000 A 
ATOM     15  C   UNL     1      39.203   6.103  19.120  0.00  0.00    +0.000 A 
ATOM     16  C   UNL     1      38.966   4.901  18.427  0.00  0.00    +0.000 A 
BRANCH  14  17
ATOM     17  C   UNL     1      39.108   8.636  19.292  0.00  0.00    +0.000 C 
ATOM     18  C   UNL     1      40.395   8.689  20.103  0.00  0.00    +0.000 C 
ATOM     19  C   UNL     1      38.017   8.739  20.348  0.00  0.00    +0.000 C 
ENDBRANCH  14  17
ENDBRANCH   3  11
BRANCH   1  20
ATOM     20  C   UNL     1      38.124   1.571  13.409  0.00  0.00    +0.000 C 
ATOM     21  O   UNL     1      37.400   1.782  12.426  0.00  0.00    +0.000 OA
BRANCH  20  22
ATOM     22  O   UNL     1      39.321   0.866  13.146  0.00  0.00    +0.000 OA
BRANCH  22  23
ATOM     23  C   UNL     1      39.245  -0.590  12.936  0.00  0.00    +0.000 C 
BRANCH  23  25
ATOM     24  C   UNL     1      39.917  -2.331  11.319  0.00  0.00    +0.000 C 
ATOM     25  C   UNL     1      39.815  -0.881  11.629  0.00  0.00    +0.000 C 
ENDBRANCH  23  25
BRANCH  23  26
ATOM     26  C   UNL     1      39.754  -1.217  14.191  0.00  0.00    +0.000 C 
ATOM     27  O   UNL     1      40.995  -0.978  14.388  0.00  0.00    +0.000 OA
BRANCH  26  28
ATOM     28  C   UNL     1      38.977  -1.978  15.103  0.00  0.00    +0.000 A 
ATOM     29  C   UNL     1      39.030  -1.854  16.415  0.00  0.00    +0.000 A 
ATOM     30  C   UNL     1      38.291  -2.654  17.290  0.00  0.00    +0.000 A 
ATOM     31  C   UNL     1      37.453  -3.645  16.752  0.00  0.00    +0.000 A 
ATOM     32  C   UNL     1      37.437  -3.731  15.411  0.00  0.00    +0.000 A 
ATOM     33  C   UNL     1      38.147  -2.962  14.545  0.00  0.00    +0.000 A 
ENDBRANCH  26  28
ENDBRANCH  23  26
ENDBRANCH  22  23
ENDBRANCH  20  22
ENDBRANCH   1  20
TORSDOF 8
ENDMDL
MODEL 5
REMARK VINA RESULT:      -7.8      3.551      7.405
REMARK  Name = 
REMARK  8 active torsions:
REMARK  status: ('A' for Active; 'I' for Inactive)
REMARK    1  A    between atoms: C_2  and  C_3
REMARK    2  A    between atoms: C_3  and  O_4
REMARK    3  A    between atoms: C_3  and  C_26
REMARK    4  A    between atoms: O_4  and  C_5
REMARK    5  A    between atoms: C_5  and  C_7
REMARK    6  A    between atoms: C_9  and  C_10
REMARK    7  A    between atoms: C_13  and  C_14
REMARK    8  A    between atoms: C_26  and  C_28
REMARK                            x       y       z     vdW  Elec       q    Type
REMARK                         _______ _______ _______ _____ _____    ______ ____
ROOT
ATOM      1  C   UNL     1      37.238  -1.028  16.868  0.00  0.00    +0.000 A 
ATOM      2  C   UNL     1      37.942  -1.372  15.682  0.00  0.00    +0.000 A 
ATOM      3  C   UNL     1      38.910  -2.325  15.622  0.00  0.00    +0.000 A 
ATOM      4  N   UNL     1      39.225  -2.991  16.778  0.00  0.00    +0.000 NA
ATOM      5  C   UNL     1      38.567  -2.700  17.954  0.00  0.00    +0.000 A 
ATOM      6  C   UNL     1      38.910  -3.438  19.091  0.00  0.00    +0.000 A 
ATOM      7  C   UNL     1      38.234  -3.178  20.261  0.00  0.00    +0.000 A 
ATOM      8  C   UNL     1      37.272  -2.222  20.265  0.00  0.00    +0.000 A 
ATOM      9  C   UNL     1      36.915  -1.472  19.134  0.00  0.00    +0.000 A 
ATOM     10  C   UNL     1      37.634  -1.771  17.945  0.00  0.00    +0.000 A 
ENDROOT
BRANCH   3  11
ATOM     11  C   UNL     1      39.641  -2.653  14.401  0.00  0.00    +0.000 A 
ATOM     12  C   UNL     1      38.972  -2.741  13.192  0.00  0.00    +0.000 A 
ATOM     13  C   UNL     1      39.651  -2.783  11.993  0.00  0.00    +0.000 A 
ATOM     14  C   UNL     1      41.044  -2.742  11.883  0.00  0.00    +0.000 A 
ATOM     15  C   UNL     1      41.700  -2.658  13.088  0.00  0.00    +0.000 A 
ATOM     16  C   UNL     1      41.014  -2.615  14.318  0.00  0.00    +0.000 A 
BRANCH  14  17
ATOM     17  C   UNL     1      41.726  -2.790  10.552  0.00  0.00    +0.000 C 
ATOM     18  C   UNL     1      42.518  -1.536  10.212  0.00  0.00    +0.000 C 
ATOM     19  C   UNL     1      40.610  -2.797   9.516  0.00  0.00    +0.000 C 
ENDBRANCH  14  17
ENDBRANCH   3  11
BRANCH   1  20
ATOM     20  C   UNL     1      36.206  -0.014  16.927  0.00  0.00    +0.000 C 
ATOM     21  O   UNL     1      35.011  -0.334  16.987  0.00  0.00    +0.000 OA
BRANCH  20  22
ATOM     22  O   UNL     1      36.469   1.375  16.917  0.00  0.00    +0.000 OA
BRANCH  22  23
ATOM     23  C   UNL     1      36.464   2.080  15.624  0.00  0.00    +0.000 C 
BRANCH  23  25
ATOM     24  C   UNL     1      35.333   3.937  14.453  0.00  0.00    +0.000 C 
ATOM     25  C   UNL     1      35.438   3.111  15.685  0.00  0.00    +0.000 C 
ENDBRANCH  23  25
BRANCH  23  26
ATOM     26  C   UNL     1      37.890   2.385  15.312  0.00  0.00    +0.000 C 
ATOM     27  O   UNL     1      38.386   3.260  16.101  0.00  0.00    +0.000 OA
BRANCH  26  28
ATOM     28  C   UNL     1      38.654   1.776  14.282  0.00  0.00    +0.000 A 
ATOM     29  C   UNL     1      39.954   1.557  14.346  0.00  0.00    +0.000 A 
ATOM     30  C   UNL     1      40.688   1.004  13.294  0.00  0.00    +0.000 A 
ATOM     31  C   UNL     1      40.017   0.666  12.106  0.00  0.00    +0.000 A 
ATOM     32  C   UNL     1      38.695   0.911  12.094  0.00  0.00    +0.000 A 
ATOM     33  C   UNL     1      37.965   1.447  13.106  0.00  0.00    +0.000 A 
ENDBRANCH  26  28
ENDBRANCH  23  26
ENDBRANCH  22  23
ENDBRANCH  20  22
ENDBRANCH   1  20
TORSDOF 8
ENDMDL
MODEL 6
REMARK VINA RESULT:      -7.7      2.312      3.991
REMARK  Name = 
REMARK  8 active torsions:
REMARK  status: ('A' for Active; 'I' for Inactive)
REMARK    1  A    between atoms: C_2  and  C_3
REMARK    2  A    between atoms: C_3  and  O_4
REMARK    3  A    between atoms: C_3  and  C_26
REMARK    4  A    between atoms: O_4  and  C_5
REMARK    5  A    between atoms: C_5  and  C_7
REMARK    6  A    between atoms: C_9  and  C_10
REMARK    7  A    between atoms: C_13  and  C_14
REMARK    8  A    between atoms: C_26  and  C_28
REMARK                            x       y       z     vdW  Elec       q    Type
REMARK                         _______ _______ _______ _____ _____    ______ ____
ROOT
ATOM      1  C   UNL     1      37.525   3.929  14.493  0.00  0.00    +0.000 A 
ATOM      2  C   UNL     1      38.403   4.723  15.280  0.00  0.00    +0.000 A 
ATOM      3  C   UNL     1      38.523   4.614  16.630  0.00  0.00    +0.000 A 
ATOM      4  N   UNL     1      37.748   3.680  17.268  0.00  0.00    +0.000 NA
ATOM      5  C   UNL     1      36.885   2.880  16.550  0.00  0.00    +0.000 A 
ATOM      6  C   UNL     1      36.146   1.924  17.255  0.00  0.00    +0.000 A 
ATOM      7  C   UNL     1      35.308   1.098  16.542  0.00  0.00    +0.000 A 
ATOM      8  C   UNL     1      35.230   1.244  15.196  0.00  0.00    +0.000 A 
ATOM      9  C   UNL     1      35.963   2.198  14.472  0.00  0.00    +0.000 A 
ATOM     10  C   UNL     1      36.819   3.030  15.244  0.00  0.00    +0.000 A 
ENDROOT
BRANCH   3  11
ATOM     11  C   UNL     1      39.414   5.451  17.429  0.00  0.00    +0.000 A 
ATOM     12  C   UNL     1      39.215   5.573  18.794  0.00  0.00    +0.000 A 
ATOM     13  C   UNL     1      40.174   6.127  19.616  0.00  0.00    +0.000 A 
ATOM     14  C   UNL     1      41.406   6.607  19.164  0.00  0.00    +0.000 A 
ATOM     15  C   UNL     1      41.593   6.485  17.807  0.00  0.00    +0.000 A 
ATOM     16  C   UNL     1      40.619   5.921  16.960  0.00  0.00    +0.000 A 
BRANCH  14  17
ATOM     17  C   UNL     1      42.409   7.199  20.105  0.00  0.00    +0.000 C 
ATOM     18  C   UNL     1      43.725   7.589  19.447  0.00  0.00    +0.000 C 
ATOM     19  C   UNL     1      42.804   6.071  21.048  0.00  0.00    +0.000 C 
ENDBRANCH  14  17
ENDBRANCH   3  11
BRANCH   1  20
ATOM     20  C   UNL     1      37.402   4.048  13.056  0.00  0.00    +0.000 C 
ATOM     21  O   UNL     1      36.441   4.647  12.553  0.00  0.00    +0.000 OA
BRANCH  20  22
ATOM     22  O   UNL     1      38.333   3.505  12.140  0.00  0.00    +0.000 OA
BRANCH  22  23
ATOM     23  C   UNL     1      38.098   2.145  11.627  0.00  0.00    +0.000 C 
BRANCH  23  25
ATOM     24  C   UNL     1      36.841   1.677   9.553  0.00  0.00    +0.000 C 
ATOM     25  C   UNL     1      38.080   2.215  10.173  0.00  0.00    +0.000 C 
ENDBRANCH  23  25
BRANCH  23  26
ATOM     26  C   UNL     1      39.031   1.253  12.375  0.00  0.00    +0.000 C 
ATOM     27  O   UNL     1      40.254   1.444  12.052  0.00  0.00    +0.000 OA
BRANCH  26  28
ATOM     28  C   UNL     1      38.650   0.305  13.360  0.00  0.00    +0.000 A 
ATOM     29  C   UNL     1      39.162   0.241  14.575  0.00  0.00    +0.000 A 
ATOM     30  C   UNL     1      38.804  -0.737  15.505  0.00  0.00    +0.000 A 
ATOM     31  C   UNL     1      37.855  -1.705  15.135  0.00  0.00    +0.000 A 
ATOM     32  C   UNL     1      37.366  -1.596  13.888  0.00  0.00    +0.000 A 
ATOM     33  C   UNL     1      37.702  -0.653  12.970  0.00  0.00    +0.000 A 
ENDBRANCH  26  28
ENDBRANCH  23  26
ENDBRANCH  22  23
ENDBRANCH  20  22
ENDBRANCH   1  20
TORSDOF 8
ENDMDL
MODEL 7
REMARK VINA RESULT:      -7.6      2.910      7.589
REMARK  Name = 
REMARK  8 active torsions:
REMARK  status: ('A' for Active; 'I' for Inactive)
REMARK    1  A    between atoms: C_2  and  C_3
REMARK    2  A    between atoms: C_3  and  O_4
REMARK    3  A    between atoms: C_3  and  C_26
REMARK    4  A    between atoms: O_4  and  C_5
REMARK    5  A    between atoms: C_5  and  C_7
REMARK    6  A    between atoms: C_9  and  C_10
REMARK    7  A    between atoms: C_13  and  C_14
REMARK    8  A    between atoms: C_26  and  C_28
REMARK                            x       y       z     vdW  Elec       q    Type
REMARK                         _______ _______ _______ _____ _____    ______ ____
ROOT
ATOM      1  C   UNL     1      37.862   2.736  14.862  0.00  0.00    +0.000 A 
ATOM      2  C   UNL     1      38.999   1.983  14.464  0.00  0.00    +0.000 A 
ATOM      3  C   UNL     1      39.156   0.655  14.710  0.00  0.00    +0.000 A 
ATOM      4  N   UNL     1      38.154   0.006  15.384  0.00  0.00    +0.000 NA
ATOM      5  C   UNL     1      37.026   0.690  15.787  0.00  0.00    +0.000 A 
ATOM      6  C   UNL     1      36.025  -0.035  16.441  0.00  0.00    +0.000 A 
ATOM      7  C   UNL     1      34.881   0.631  16.815  0.00  0.00    +0.000 A 
ATOM      8  C   UNL     1      34.772   1.955  16.540  0.00  0.00    +0.000 A 
ATOM      9  C   UNL     1      35.767   2.699  15.885  0.00  0.00    +0.000 A 
ATOM     10  C   UNL     1      36.931   1.974  15.513  0.00  0.00    +0.000 A 
ENDROOT
BRANCH   3  11
ATOM     11  C   UNL     1      40.340  -0.103  14.314  0.00  0.00    +0.000 A 
ATOM     12  C   UNL     1      41.488   0.559  13.914  0.00  0.00    +0.000 A 
ATOM     13  C   UNL     1      42.694  -0.097  13.791  0.00  0.00    +0.000 A 
ATOM     14  C   UNL     1      42.871  -1.458  14.052  0.00  0.00    +0.000 A 
ATOM     15  C   UNL     1      41.726  -2.109  14.446  0.00  0.00    +0.000 A 
ATOM     16  C   UNL     1      40.490  -1.446  14.573  0.00  0.00    +0.000 A 
BRANCH  14  17
ATOM     17  C   UNL     1      44.207  -2.117  13.902  0.00  0.00    +0.000 C 
ATOM     18  C   UNL     1      45.286  -1.213  13.322  0.00  0.00    +0.000 C 
ATOM     19  C   UNL     1      44.023  -3.183  12.830  0.00  0.00    +0.000 C 
ENDBRANCH  14  17
ENDBRANCH   3  11
BRANCH   1  20
ATOM     20  C   UNL     1      37.699   4.150  14.597  0.00  0.00    +0.000 C 
ATOM     21  O   UNL     1      37.246   4.540  13.511  0.00  0.00    +0.000 OA
BRANCH  20  22
ATOM     22  O   UNL     1      38.034   5.166  15.521  0.00  0.00    +0.000 OA
BRANCH  22  23
ATOM     23  C   UNL     1      39.242   4.991  16.345  0.00  0.00    +0.000 C 
BRANCH  23  25
ATOM     24  C   UNL     1      39.737   7.127  15.208  0.00  0.00    +0.000 C 
ATOM     25  C   UNL     1      40.269   5.883  15.824  0.00  0.00    +0.000 C 
ENDBRANCH  23  25
BRANCH  23  26
ATOM     26  C   UNL     1      38.786   5.038  17.765  0.00  0.00    +0.000 C 
ATOM     27  O   UNL     1      38.288   3.927  18.155  0.00  0.00    +0.000 OA
BRANCH  26  28
ATOM     28  C   UNL     1      38.897   6.161  18.627  0.00  0.00    +0.000 A 
ATOM     29  C   UNL     1      38.095   7.208  18.598  0.00  0.00    +0.000 A 
ATOM     30  C   UNL     1      38.262   8.322  19.424  0.00  0.00    +0.000 A 
ATOM     31  C   UNL     1      39.336   8.336  20.329  0.00  0.00    +0.000 A 
ATOM     32  C   UNL     1      40.123   7.246  20.318  0.00  0.00    +0.000 A 
ATOM     33  C   UNL     1      39.976   6.154  19.523  0.00  0.00    +0.000 A 
ENDBRANCH  26  28
ENDBRANCH  23  26
ENDBRANCH  22  23
ENDBRANCH  20  22
ENDBRANCH   1  20
TORSDOF 8
ENDMDL
MODEL 8
REMARK VINA RESULT:      -7.5      3.739      6.370
REMARK  Name = 
REMARK  8 active torsions:
REMARK  status: ('A' for Active; 'I' for Inactive)
REMARK    1  A    between atoms: C_2  and  C_3
REMARK    2  A    between atoms: C_3  and  O_4
REMARK    3  A    between atoms: C_3  and  C_26
REMARK    4  A    between atoms: O_4  and  C_5
REMARK    5  A    between atoms: C_5  and  C_7
REMARK    6  A    between atoms: C_9  and  C_10
REMARK    7  A    between atoms: C_13  and  C_14
REMARK    8  A    between atoms: C_26  and  C_28
REMARK                            x       y       z     vdW  Elec       q    Type
REMARK                         _______ _______ _______ _____ _____    ______ ____
ROOT
ATOM      1  C   UNL     1      37.347  -2.038  15.159  0.00  0.00    +0.000 A 
ATOM      2  C   UNL     1      36.934  -0.700  14.917  0.00  0.00    +0.000 A 
ATOM      3  C   UNL     1      36.850   0.257  15.879  0.00  0.00    +0.000 A 
ATOM      4  N   UNL     1      37.185  -0.095  17.162  0.00  0.00    +0.000 NA
ATOM      5  C   UNL     1      37.599  -1.378  17.449  0.00  0.00    +0.000 A 
ATOM      6  C   UNL     1      37.958  -1.665  18.770  0.00  0.00    +0.000 A 
ATOM      7  C   UNL     1      38.406  -2.933  19.059  0.00  0.00    +0.000 A 
ATOM      8  C   UNL     1      38.476  -3.849  18.060  0.00  0.00    +0.000 A 
ATOM      9  C   UNL     1      38.119  -3.579  16.730  0.00  0.00    +0.000 A 
ATOM     10  C   UNL     1      37.665  -2.257  16.472  0.00  0.00    +0.000 A 
ENDROOT
BRANCH   3  11
ATOM     11  C   UNL     1      36.403   1.623  15.620  0.00  0.00    +0.000 A 
ATOM     12  C   UNL     1      37.211   2.695  15.959  0.00  0.00    +0.000 A 
ATOM     13  C   UNL     1      36.952   3.968  15.496  0.00  0.00    +0.000 A 
ATOM     14  C   UNL     1      35.878   4.291  14.662  0.00  0.00    +0.000 A 
ATOM     15  C   UNL     1      35.080   3.221  14.334  0.00  0.00    +0.000 A 
ATOM     16  C   UNL     1      35.336   1.918  14.802  0.00  0.00    +0.000 A 
BRANCH  14  17
ATOM     17  C   UNL     1      35.647   5.693  14.191  0.00  0.00    +0.000 C 
ATOM     18  C   UNL     1      34.188   6.127  14.219  0.00  0.00    +0.000 C 
ATOM     19  C   UNL     1      35.989   5.691  12.707  0.00  0.00    +0.000 C 
ENDBRANCH  14  17
ENDBRANCH   3  11
BRANCH   1  20
ATOM     20  C   UNL     1      37.436  -3.053  14.131  0.00  0.00    +0.000 C 
ATOM     21  O   UNL     1      36.520  -3.871  13.972  0.00  0.00    +0.000 OA
BRANCH  20  22
ATOM     22  O   UNL     1      38.539  -3.190  13.257  0.00  0.00    +0.000 OA
BRANCH  22  23
ATOM     23  C   UNL     1      39.619  -2.192  13.330  0.00  0.00    +0.000 C 
BRANCH  23  25
ATOM     24  C   UNL     1      41.847  -2.119  14.395  0.00  0.00    +0.000 C 
ATOM     25  C   UNL     1      40.861  -2.902  13.603  0.00  0.00    +0.000 C 
ENDBRANCH  23  25
BRANCH  23  26
ATOM     26  C   UNL     1      39.447  -1.306  12.143  0.00  0.00    +0.000 C 
ATOM     27  O   UNL     1      39.784  -1.881  11.051  0.00  0.00    +0.000 OA
BRANCH  26  28
ATOM     28  C   UNL     1      38.944   0.021  12.174  0.00  0.00    +0.000 A 
ATOM     29  C   UNL     1      37.873   0.430  11.519  0.00  0.00    +0.000 A 
ATOM     30  C   UNL     1      37.433   1.755  11.527  0.00  0.00    +0.000 A 
ATOM     31  C   UNL     1      38.162   2.705  12.263  0.00  0.00    +0.000 A 
ATOM     32  C   UNL     1      39.244   2.236  12.909  0.00  0.00    +0.000 A 
ATOM     33  C   UNL     1      39.687   0.952  12.914  0.00  0.00    +0.000 A 
ENDBRANCH  26  28
ENDBRANCH  23  26
ENDBRANCH  22  23
ENDBRANCH  20  22
ENDBRANCH   1  20
TORSDOF 8
ENDMDL
MODEL 9
REMARK VINA RESULT:      -7.5      1.887      3.239
REMARK  Name = 
REMARK  8 active torsions:
REMARK  status: ('A' for Active; 'I' for Inactive)
REMARK    1  A    between atoms: C_2  and  C_3
REMARK    2  A    between atoms: C_3  and  O_4
REMARK    3  A    between atoms: C_3  and  C_26
REMARK    4  A    between atoms: O_4  and  C_5
REMARK    5  A    between atoms: C_5  and  C_7
REMARK    6  A    between atoms: C_9  and  C_10
REMARK    7  A    between atoms: C_13  and  C_14
REMARK    8  A    between atoms: C_26  and  C_28
REMARK                            x       y       z     vdW  Elec       q    Type
REMARK                         _______ _______ _______ _____ _____    ______ ____
ROOT
ATOM      1  C   UNL     1      37.363   3.930  16.165  0.00  0.00    +0.000 A 
ATOM      2  C   UNL     1      38.378   4.441  17.018  0.00  0.00    +0.000 A 
ATOM      3  C   UNL     1      38.975   5.651  16.850  0.00  0.00    +0.000 A 
ATOM      4  N   UNL     1      38.569   6.423  15.792  0.00  0.00    +0.000 NA
ATOM      5  C   UNL     1      37.583   5.976  14.938  0.00  0.00    +0.000 A 
ATOM      6  C   UNL     1      37.191   6.823  13.897  0.00  0.00    +0.000 A 
ATOM      7  C   UNL     1      36.183   6.400  13.062  0.00  0.00    +0.000 A 
ATOM      8  C   UNL     1      35.617   5.187  13.277  0.00  0.00    +0.000 A 
ATOM      9  C   UNL     1      35.998   4.323  14.316  0.00  0.00    +0.000 A 
ATOM     10  C   UNL     1      37.041   4.797  15.158  0.00  0.00    +0.000 A 
ENDROOT
BRANCH   3  11
ATOM     11  C   UNL     1      40.032   6.156  17.722  0.00  0.00    +0.000 A 
ATOM     12  C   UNL     1      39.876   6.121  19.097  0.00  0.00    +0.000 A 
ATOM     13  C   UNL     1      40.938   6.333  19.950  0.00  0.00    +0.000 A 
ATOM     14  C   UNL     1      42.242   6.598  19.520  0.00  0.00    +0.000 A 
ATOM     15  C   UNL     1      42.387   6.634  18.154  0.00  0.00    +0.000 A 
ATOM     16  C   UNL     1      41.308   6.419  17.276  0.00  0.00    +0.000 A 
BRANCH  14  17
ATOM     17  C   UNL     1      43.357   6.820  20.494  0.00  0.00    +0.000 C 
ATOM     18  C   UNL     1      44.748   6.668  19.894  0.00  0.00    +0.000 C 
ATOM     19  C   UNL     1      43.272   5.670  21.489  0.00  0.00    +0.000 C 
ENDBRANCH  14  17
ENDBRANCH   3  11
BRANCH   1  20
ATOM     20  C   UNL     1      36.730   2.641  16.349  0.00  0.00    +0.000 C 
ATOM     21  O   UNL     1      35.620   2.555  16.893  0.00  0.00    +0.000 OA
BRANCH  20  22
ATOM     22  O   UNL     1      37.308   1.417  15.941  0.00  0.00    +0.000 OA
BRANCH  22  23
ATOM     23  C   UNL     1      36.583   0.593  14.959  0.00  0.00    +0.000 C 
BRANCH  23  25
ATOM     24  C   UNL     1      38.607   1.055  13.621  0.00  0.00    +0.000 C 
ATOM     25  C   UNL     1      37.130   0.887  13.642  0.00  0.00    +0.000 C 
ENDBRANCH  23  25
BRANCH  23  26
ATOM     26  C   UNL     1      36.547  -0.788  15.522  0.00  0.00    +0.000 C 
ATOM     27  O   UNL     1      36.297  -1.672  14.633  0.00  0.00    +0.000 OA
BRANCH  26  28
ATOM     28  C   UNL     1      36.784  -1.128  16.880  0.00  0.00    +0.000 A 
ATOM     29  C   UNL     1      35.995  -0.793  17.883  0.00  0.00    +0.000 A 
ATOM     30  C   UNL     1      36.283  -1.096  19.216  0.00  0.00    +0.000 A 
ATOM     31  C   UNL     1      37.470  -1.788  19.510  0.00  0.00    +0.000 A 
ATOM     32  C   UNL     1      38.238  -2.104  18.453  0.00  0.00    +0.000 A 
ATOM     33  C   UNL     1      37.975  -1.818  17.151  0.00  0.00    +0.000 A 
ENDBRANCH  26  28
ENDBRANCH  23  26
ENDBRANCH  22  23
ENDBRANCH  20  22
ENDBRANCH   1  20
TORSDOF 8
ENDMDL
MODEL 10
REMARK VINA RESULT:      -7.5      2.253      3.808
REMARK  Name = 
REMARK  8 active torsions:
REMARK  status: ('A' for Active; 'I' for Inactive)
REMARK    1  A    between atoms: C_2  and  C_3
REMARK    2  A    between atoms: C_3  and  O_4
REMARK    3  A    between atoms: C_3  and  C_26
REMARK    4  A    between atoms: O_4  and  C_5
REMARK    5  A    between atoms: C_5  and  C_7
REMARK    6  A    between atoms: C_9  and  C_10
REMARK    7  A    between atoms: C_13  and  C_14
REMARK    8  A    between atoms: C_26  and  C_28
REMARK                            x       y       z     vdW  Elec       q    Type
REMARK                         _______ _______ _______ _____ _____    ______ ____
ROOT
ATOM      1  C   UNL     1      36.773   3.931  15.686  0.00  0.00    +0.000 A 
ATOM      2  C   UNL     1      37.792   4.205  16.638  0.00  0.00    +0.000 A 
ATOM      3  C   UNL     1      38.529   5.347  16.656  0.00  0.00    +0.000 A 
ATOM      4  N   UNL     1      38.272   6.290  15.695  0.00  0.00    +0.000 NA
ATOM      5  C   UNL     1      37.289   6.077  14.752  0.00  0.00    +0.000 A 
ATOM      6  C   UNL     1      37.052   7.091  13.818  0.00  0.00    +0.000 A 
ATOM      7  C   UNL     1      36.050   6.901  12.896  0.00  0.00    +0.000 A 
ATOM      8  C   UNL     1      35.340   5.746  12.925  0.00  0.00    +0.000 A 
ATOM      9  C   UNL     1      35.564   4.717  13.853  0.00  0.00    +0.000 A 
ATOM     10  C   UNL     1      36.606   4.952  14.791  0.00  0.00    +0.000 A 
ENDROOT
BRANCH   3  11
ATOM     11  C   UNL     1      39.588   5.606  17.628  0.00  0.00    +0.000 A 
ATOM     12  C   UNL     1      40.842   6.008  17.200  0.00  0.00    +0.000 A 
ATOM     13  C   UNL     1      41.777   6.514  18.078  0.00  0.00    +0.000 A 
ATOM     14  C   UNL     1      41.555   6.668  19.450  0.00  0.00    +0.000 A 
ATOM     15  C   UNL     1      40.309   6.263  19.866  0.00  0.00    +0.000 A 
ATOM     16  C   UNL     1      39.349   5.744  18.976  0.00  0.00    +0.000 A 
BRANCH  14  17
ATOM     17  C   UNL     1      42.609   7.225  20.356  0.00  0.00    +0.000 C 
ATOM     18  C   UNL     1      43.876   7.667  19.639  0.00  0.00    +0.000 C 
ATOM     19  C   UNL     1      43.075   6.056  21.213  0.00  0.00    +0.000 C 
ENDBRANCH  14  17
ENDBRANCH   3  11
BRANCH   1  20
ATOM     20  C   UNL     1      35.990   2.714  15.671  0.00  0.00    +0.000 C 
ATOM     21  O   UNL     1      35.072   2.544  16.486  0.00  0.00    +0.000 OA
BRANCH  20  22
ATOM     22  O   UNL     1      36.204   1.654  14.760  0.00  0.00    +0.000 OA
BRANCH  22  23
ATOM     23  C   UNL     1      37.404   0.817  14.929  0.00  0.00    +0.000 C 
BRANCH  23  25
ATOM     24  C   UNL     1      36.706  -0.622  16.811  0.00  0.00    +0.000 C 
ATOM     25  C   UNL     1      36.967  -0.506  15.352  0.00  0.00    +0.000 C 
ENDBRANCH  23  25
BRANCH  23  26
ATOM     26  C   UNL     1      38.235   1.034  13.709  0.00  0.00    +0.000 C 
ATOM     27  O   UNL     1      38.351  -0.025  13.001  0.00  0.00    +0.000 OA
BRANCH  26  28
ATOM     28  C   UNL     1      38.828   2.266  13.328  0.00  0.00    +0.000 A 
ATOM     29  C   UNL     1      39.823   2.848  13.970  0.00  0.00    +0.000 A 
ATOM     30  C   UNL     1      40.350   4.088  13.601  0.00  0.00    +0.000 A 
ATOM     31  C   UNL     1      39.795   4.755  12.495  0.00  0.00    +0.000 A 
ATOM     32  C   UNL     1      38.784   4.120  11.878  0.00  0.00    +0.000 A 
ATOM     33  C   UNL     1      38.259   2.915  12.222  0.00  0.00    +0.000 A 
ENDBRANCH  26  28
ENDBRANCH  23  26
ENDBRANCH  22  23
ENDBRANCH  20  22
ENDBRANCH   1  20
TORSDOF 8
ENDMDL
