MODEL 1
REMARK VINA RESULT:      -6.2      0.000      0.000
REMARK  Name = 
REMARK  3 active torsions:
REMARK  status: ('A' for Active; 'I' for Inactive)
REMARK    1  A    between atoms: C_2  and  C_3
REMARK    2  A    between atoms: C_3  and  N_5
REMARK    3  A    between atoms: C_8  and  C_9
REMARK                            x       y       z     vdW  Elec       q    Type
REMARK                         _______ _______ _______ _____ _____    ______ ____
ROOT
ATOM      1  N   UNL     1      32.709  20.870   9.768  0.00  0.00    +0.000 N 
ATOM      2  C   UNL     1      32.450  20.313   8.643  0.00  0.00    +0.000 A 
ATOM      3  N   UNL     1      33.401  19.716   7.751  0.00  0.00    +0.000 NA
ATOM      4  C   UNL     1      31.072  20.399   8.455  0.00  0.00    +0.000 A 
ATOM      5  C   UNL     1      30.565  21.051   9.566  0.00  0.00    +0.000 A 
ATOM      6  N   UNL     1      29.344  21.414   9.943  0.00  0.00    +0.000 NA
ATOM      7  C   UNL     1      29.117  22.065  11.124  0.00  0.00    +0.000 A 
ATOM      8  C   UNL     1      27.816  22.422  11.469  0.00  0.00    +0.000 A 
ATOM      9  C   UNL     1      27.608  23.078  12.664  0.00  0.00    +0.000 A 
ATOM     10  C   UNL     1      28.672  23.374  13.500  0.00  0.00    +0.000 A 
ATOM     11  C   UNL     1      29.962  23.028  13.171  0.00  0.00    +0.000 A 
ATOM     12  C   UNL     1      30.157  22.371  11.973  0.00  0.00    +0.000 A 
ATOM     13  N   UNL     1      31.398  21.996  11.576  0.00  0.00    +0.000 NA
ATOM     14  C   UNL     1      31.617  21.354  10.410  0.00  0.00    +0.000 A 
ENDROOT
BRANCH   1  15
ATOM     15  C   UNL     1      34.116  21.044  10.453  0.00  0.00    +0.000 C 
ATOM     16  C   UNL     1      33.613  20.686  11.996  0.00  0.00    +0.000 C 
BRANCH  15  18
ATOM     17  C   UNL     1      34.717  23.214   9.485  0.00  0.00    +0.000 C 
ATOM     18  C   UNL     1      33.925  22.677  10.670  0.00  0.00    +0.000 C 
ENDBRANCH  15  18
ENDBRANCH   1  15
BRANCH   4  19
ATOM     19  C   UNL     1      30.342  19.900   7.319  0.00  0.00    +0.000 C 
ATOM     20  N   UNL     1      29.758  19.516   6.393  0.00  0.00    +0.000 NA
ENDBRANCH   4  19
TORSDOF 3
ENDMDL
MODEL 2
REMARK VINA RESULT:      -6.1     34.404     35.351
REMARK  Name = 
REMARK  3 active torsions:
REMARK  status: ('A' for Active; 'I' for Inactive)
REMARK    1  A    between atoms: C_2  and  C_3
REMARK    2  A    between atoms: C_3  and  N_5
REMARK    3  A    between atoms: C_8  and  C_9
REMARK                            x       y       z     vdW  Elec       q    Type
REMARK                         _______ _______ _______ _____ _____    ______ ____
ROOT
ATOM      1  N   UNL     1      19.803  -8.871  26.583  0.00  0.00    +0.000 N 
ATOM      2  C   UNL     1      18.991  -7.906  26.814  0.00  0.00    +0.000 A 
ATOM      3  N   UNL     1      17.730  -7.999  27.490  0.00  0.00    +0.000 NA
ATOM      4  C   UNL     1      19.569  -6.754  26.284  0.00  0.00    +0.000 A 
ATOM      5  C   UNL     1      20.778  -7.141  25.731  0.00  0.00    +0.000 A 
ATOM      6  N   UNL     1      21.749  -6.494  25.096  0.00  0.00    +0.000 NA
ATOM      7  C   UNL     1      22.867  -7.137  24.642  0.00  0.00    +0.000 A 
ATOM      8  C   UNL     1      23.854  -6.408  23.982  0.00  0.00    +0.000 A 
ATOM      9  C   UNL     1      24.974  -7.075  23.532  0.00  0.00    +0.000 A 
ATOM     10  C   UNL     1      25.111  -8.439  23.732  0.00  0.00    +0.000 A 
ATOM     11  C   UNL     1      24.143  -9.169  24.381  0.00  0.00    +0.000 A 
ATOM     12  C   UNL     1      23.028  -8.492  24.828  0.00  0.00    +0.000 A 
ATOM     13  N   UNL     1      22.029  -9.140  25.476  0.00  0.00    +0.000 NA
ATOM     14  C   UNL     1      20.928  -8.501  25.923  0.00  0.00    +0.000 A 
ENDROOT
BRANCH   1  15
ATOM     15  C   UNL     1      19.629 -10.387  26.972  0.00  0.00    +0.000 C 
ATOM     16  C   UNL     1      18.081 -10.548  26.389  0.00  0.00    +0.000 C 
BRANCH  15  18
ATOM     17  C   UNL     1      20.418 -10.189  29.284  0.00  0.00    +0.000 C 
ATOM     18  C   UNL     1      19.114 -10.042  28.510  0.00  0.00    +0.000 C 
ENDBRANCH  15  18
ENDBRANCH   1  15
BRANCH   4  19
ATOM     19  C   UNL     1      19.000  -5.432  26.318  0.00  0.00    +0.000 C 
ATOM     20  N   UNL     1      18.554  -4.362  26.361  0.00  0.00    +0.000 NA
ENDBRANCH   4  19
TORSDOF 3
ENDMDL
MODEL 3
REMARK VINA RESULT:      -6.1      1.451      3.525
REMARK  Name = 
REMARK  3 active torsions:
REMARK  status: ('A' for Active; 'I' for Inactive)
REMARK    1  A    between atoms: C_2  and  C_3
REMARK    2  A    between atoms: C_3  and  N_5
REMARK    3  A    between atoms: C_8  and  C_9
REMARK                            x       y       z     vdW  Elec       q    Type
REMARK                         _______ _______ _______ _____ _____    ______ ____
ROOT
ATOM      1  N   UNL     1      31.472  20.661   9.271  0.00  0.00    +0.000 N 
ATOM      2  C   UNL     1      32.644  20.286   9.630  0.00  0.00    +0.000 A 
ATOM      3  N   UNL     1      33.598  19.587   8.818  0.00  0.00    +0.000 NA
ATOM      4  C   UNL     1      32.811  20.685  10.954  0.00  0.00    +0.000 A 
ATOM      5  C   UNL     1      31.637  21.321  11.322  0.00  0.00    +0.000 A 
ATOM      6  N   UNL     1      31.216  21.900  12.441  0.00  0.00    +0.000 NA
ATOM      7  C   UNL     1      29.976  22.468  12.536  0.00  0.00    +0.000 A 
ATOM      8  C   UNL     1      29.587  23.061  13.735  0.00  0.00    +0.000 A 
ATOM      9  C   UNL     1      28.332  23.628  13.811  0.00  0.00    +0.000 A 
ATOM     10  C   UNL     1      27.480  23.606  12.718  0.00  0.00    +0.000 A 
ATOM     11  C   UNL     1      27.853  23.022  11.530  0.00  0.00    +0.000 A 
ATOM     12  C   UNL     1      29.110  22.459  11.466  0.00  0.00    +0.000 A 
ATOM     13  N   UNL     1      29.552  21.864  10.331  0.00  0.00    +0.000 NA
ATOM     14  C   UNL     1      30.777  21.305  10.241  0.00  0.00    +0.000 A 
ENDROOT
BRANCH   1  15
ATOM     15  C   UNL     1      30.783  20.456   7.870  0.00  0.00    +0.000 C 
ATOM     16  C   UNL     1      32.047  19.640   7.163  0.00  0.00    +0.000 C 
BRANCH  15  18
ATOM     17  C   UNL     1      30.881  21.805   5.826  0.00  0.00    +0.000 C 
ATOM     18  C   UNL     1      31.285  21.926   7.290  0.00  0.00    +0.000 C 
ENDBRANCH  15  18
ENDBRANCH   1  15
BRANCH   4  19
ATOM     19  C   UNL     1      33.984  20.467  11.760  0.00  0.00    +0.000 C 
ATOM     20  N   UNL     1      34.930  20.272  12.401  0.00  0.00    +0.000 NA
ENDBRANCH   4  19
TORSDOF 3
ENDMDL
MODEL 4
REMARK VINA RESULT:      -6.0     30.874     33.340
REMARK  Name = 
REMARK  3 active torsions:
REMARK  status: ('A' for Active; 'I' for Inactive)
REMARK    1  A    between atoms: C_2  and  C_3
REMARK    2  A    between atoms: C_3  and  N_5
REMARK    3  A    between atoms: C_8  and  C_9
REMARK                            x       y       z     vdW  Elec       q    Type
REMARK                         _______ _______ _______ _____ _____    ______ ____
ROOT
ATOM      1  N   UNL     1      15.991  11.662  36.131  0.00  0.00    +0.000 N 
ATOM      2  C   UNL     1      14.806  12.046  35.827  0.00  0.00    +0.000 A 
ATOM      3  N   UNL     1      14.411  12.705  34.616  0.00  0.00    +0.000 NA
ATOM      4  C   UNL     1      13.981  11.700  36.895  0.00  0.00    +0.000 A 
ATOM      5  C   UNL     1      14.792  11.087  37.835  0.00  0.00    +0.000 A 
ATOM      6  N   UNL     1      14.574  10.557  39.033  0.00  0.00    +0.000 NA
ATOM      7  C   UNL     1      15.583  10.000  39.770  0.00  0.00    +0.000 A 
ATOM      8  C   UNL     1      15.297   9.459  41.021  0.00  0.00    +0.000 A 
ATOM      9  C   UNL     1      16.329   8.903  41.748  0.00  0.00    +0.000 A 
ATOM     10  C   UNL     1      17.619   8.885  41.243  0.00  0.00    +0.000 A 
ATOM     11  C   UNL     1      17.913   9.417  40.010  0.00  0.00    +0.000 A 
ATOM     12  C   UNL     1      16.874   9.970  39.291  0.00  0.00    +0.000 A 
ATOM     13  N   UNL     1      17.082  10.515  38.067  0.00  0.00    +0.000 NA
ATOM     14  C   UNL     1      16.084  11.062  37.344  0.00  0.00    +0.000 A 
ENDROOT
BRANCH   1  15
ATOM     15  C   UNL     1      17.301  11.813  35.271  0.00  0.00    +0.000 C 
ATOM     16  C   UNL     1      16.609  11.415  33.813  0.00  0.00    +0.000 C 
BRANCH  15  18
ATOM     17  C   UNL     1      17.456   9.596  34.237  0.00  0.00    +0.000 C 
ATOM     18  C   UNL     1      17.800  10.259  35.565  0.00  0.00    +0.000 C 
ENDBRANCH  15  18
ENDBRANCH   1  15
BRANCH   4  19
ATOM     19  C   UNL     1      12.564  11.944  36.981  0.00  0.00    +0.000 C 
ATOM     20  N   UNL     1      11.427  12.161  37.043  0.00  0.00    +0.000 NA
ENDBRANCH   4  19
TORSDOF 3
ENDMDL
MODEL 5
REMARK VINA RESULT:      -5.8     31.084     33.550
REMARK  Name = 
REMARK  3 active torsions:
REMARK  status: ('A' for Active; 'I' for Inactive)
REMARK    1  A    between atoms: C_2  and  C_3
REMARK    2  A    between atoms: C_3  and  N_5
REMARK    3  A    between atoms: C_8  and  C_9
REMARK                            x       y       z     vdW  Elec       q    Type
REMARK                         _______ _______ _______ _____ _____    ______ ____
ROOT
ATOM      1  N   UNL     1      17.582   9.442  39.570  0.00  0.00    +0.000 N 
ATOM      2  C   UNL     1      18.792   9.216  39.212  0.00  0.00    +0.000 A 
ATOM      3  N   UNL     1      19.775   8.481  39.955  0.00  0.00    +0.000 NA
ATOM      4  C   UNL     1      18.968   9.818  37.968  0.00  0.00    +0.000 A 
ATOM      5  C   UNL     1      17.757  10.408  37.643  0.00  0.00    +0.000 A 
ATOM      6  N   UNL     1      17.326  11.111  36.603  0.00  0.00    +0.000 NA
ATOM      7  C   UNL     1      16.046  11.587  36.536  0.00  0.00    +0.000 A 
ATOM      8  C   UNL     1      15.647  12.320  35.420  0.00  0.00    +0.000 A 
ATOM      9  C   UNL     1      14.352  12.792  35.371  0.00  0.00    +0.000 A 
ATOM     10  C   UNL     1      13.470  12.541  36.410  0.00  0.00    +0.000 A 
ATOM     11  C   UNL     1      13.852  11.820  37.517  0.00  0.00    +0.000 A 
ATOM     12  C   UNL     1      15.149  11.353  37.554  0.00  0.00    +0.000 A 
ATOM     13  N   UNL     1      15.603  10.634  38.611  0.00  0.00    +0.000 NA
ATOM     14  C   UNL     1      16.867  10.167  38.673  0.00  0.00    +0.000 A 
ENDROOT
BRANCH   1  15
ATOM     15  C   UNL     1      16.870   8.984  40.897  0.00  0.00    +0.000 C 
ATOM     16  C   UNL     1      18.106   9.408  41.923  0.00  0.00    +0.000 C 
BRANCH  15  18
ATOM     17  C   UNL     1      17.114   6.902  42.167  0.00  0.00    +0.000 C 
ATOM     18  C   UNL     1      17.395   7.416  40.761  0.00  0.00    +0.000 C 
ENDBRANCH  15  18
ENDBRANCH   1  15
BRANCH   4  19
ATOM     19  C   UNL     1      20.180   9.814  37.191  0.00  0.00    +0.000 C 
ATOM     20  N   UNL     1      21.148   9.798  36.553  0.00  0.00    +0.000 NA
ENDBRANCH   4  19
TORSDOF 3
ENDMDL
MODEL 6
REMARK VINA RESULT:      -5.8     12.554     15.724
REMARK  Name = 
REMARK  3 active torsions:
REMARK  status: ('A' for Active; 'I' for Inactive)
REMARK    1  A    between atoms: C_2  and  C_3
REMARK    2  A    between atoms: C_3  and  N_5
REMARK    3  A    between atoms: C_8  and  C_9
REMARK                            x       y       z     vdW  Elec       q    Type
REMARK                         _______ _______ _______ _____ _____    ______ ____
ROOT
ATOM      1  N   UNL     1      28.250  23.181  24.847  0.00  0.00    +0.000 N 
ATOM      2  C   UNL     1      28.027  23.440  23.612  0.00  0.00    +0.000 A 
ATOM      3  N   UNL     1      26.795  23.227  22.908  0.00  0.00    +0.000 NA
ATOM      4  C   UNL     1      29.205  23.967  23.086  0.00  0.00    +0.000 A 
ATOM      5  C   UNL     1      30.121  23.987  24.124  0.00  0.00    +0.000 A 
ATOM      6  N   UNL     1      31.388  24.373  24.226  0.00  0.00    +0.000 NA
ATOM      7  C   UNL     1      32.077  24.283  25.404  0.00  0.00    +0.000 A 
ATOM      8  C   UNL     1      33.404  24.702  25.453  0.00  0.00    +0.000 A 
ATOM      9  C   UNL     1      34.082  24.603  26.650  0.00  0.00    +0.000 A 
ATOM     10  C   UNL     1      33.454  24.095  27.776  0.00  0.00    +0.000 A 
ATOM     11  C   UNL     1      32.144  23.677  27.740  0.00  0.00    +0.000 A 
ATOM     12  C   UNL     1      31.477  23.782  26.538  0.00  0.00    +0.000 A 
ATOM     13  N   UNL     1      30.184  23.391  26.419  0.00  0.00    +0.000 NA
ATOM     14  C   UNL     1      29.508  23.482  25.256  0.00  0.00    +0.000 A 
ENDROOT
BRANCH   1  15
ATOM     15  C   UNL     1      27.250  22.570  25.898  0.00  0.00    +0.000 C 
ATOM     16  C   UNL     1      25.860  22.962  25.076  0.00  0.00    +0.000 C 
BRANCH  15  18
ATOM     17  C   UNL     1      25.712  24.069  27.078  0.00  0.00    +0.000 C 
ATOM     18  C   UNL     1      27.208  23.949  26.818  0.00  0.00    +0.000 C 
ENDBRANCH  15  18
ENDBRANCH   1  15
BRANCH   4  19
ATOM     19  C   UNL     1      29.406  24.397  21.727  0.00  0.00    +0.000 C 
ATOM     20  N   UNL     1      29.587  24.748  20.637  0.00  0.00    +0.000 NA
ENDBRANCH   4  19
TORSDOF 3
ENDMDL
MODEL 7
REMARK VINA RESULT:      -5.8     14.730     17.715
REMARK  Name = 
REMARK  3 active torsions:
REMARK  status: ('A' for Active; 'I' for Inactive)
REMARK    1  A    between atoms: C_2  and  C_3
REMARK    2  A    between atoms: C_3  and  N_5
REMARK    3  A    between atoms: C_8  and  C_9
REMARK                            x       y       z     vdW  Elec       q    Type
REMARK                         _______ _______ _______ _____ _____    ______ ____
ROOT
ATOM      1  N   UNL     1      29.780  23.059  28.389  0.00  0.00    +0.000 N 
ATOM      2  C   UNL     1      29.172  22.712  29.463  0.00  0.00    +0.000 A 
ATOM      3  N   UNL     1      29.762  22.558  30.762  0.00  0.00    +0.000 NA
ATOM      4  C   UNL     1      27.834  22.515  29.128  0.00  0.00    +0.000 A 
ATOM      5  C   UNL     1      27.727  22.779  27.773  0.00  0.00    +0.000 A 
ATOM      6  N   UNL     1      26.720  22.758  26.908  0.00  0.00    +0.000 NA
ATOM      7  C   UNL     1      26.895  23.071  25.589  0.00  0.00    +0.000 A 
ATOM      8  C   UNL     1      25.801  23.033  24.726  0.00  0.00    +0.000 A 
ATOM      9  C   UNL     1      26.000  23.351  23.399  0.00  0.00    +0.000 A 
ATOM     10  C   UNL     1      27.258  23.700  22.937  0.00  0.00    +0.000 A 
ATOM     11  C   UNL     1      28.345  23.741  23.779  0.00  0.00    +0.000 A 
ATOM     12  C   UNL     1      28.135  23.421  25.104  0.00  0.00    +0.000 A 
ATOM     13  N   UNL     1      29.155  23.437  25.997  0.00  0.00    +0.000 NA
ATOM     14  C   UNL     1      28.977  23.128  27.298  0.00  0.00    +0.000 A 
ENDROOT
BRANCH   1  15
ATOM     15  C   UNL     1      31.307  23.399  28.216  0.00  0.00    +0.000 C 
ATOM     16  C   UNL     1      31.380  23.082  26.586  0.00  0.00    +0.000 C 
BRANCH  15  18
ATOM     17  C   UNL     1      33.104  22.182  29.355  0.00  0.00    +0.000 C 
ATOM     18  C   UNL     1      31.802  21.871  28.630  0.00  0.00    +0.000 C 
ENDBRANCH  15  18
ENDBRANCH   1  15
BRANCH   4  19
ATOM     19  C   UNL     1      26.787  22.116  30.032  0.00  0.00    +0.000 C 
ATOM     20  N   UNL     1      25.957  21.780  30.769  0.00  0.00    +0.000 NA
ENDBRANCH   4  19
TORSDOF 3
ENDMDL
MODEL 8
REMARK VINA RESULT:      -5.6     15.828     18.709
REMARK  Name = 
REMARK  3 active torsions:
REMARK  status: ('A' for Active; 'I' for Inactive)
REMARK    1  A    between atoms: C_2  and  C_3
REMARK    2  A    between atoms: C_3  and  N_5
REMARK    3  A    between atoms: C_8  and  C_9
REMARK                            x       y       z     vdW  Elec       q    Type
REMARK                         _______ _______ _______ _____ _____    ______ ____
ROOT
ATOM      1  N   UNL     1      30.603  22.570  29.802  0.00  0.00    +0.000 N 
ATOM      2  C   UNL     1      29.614  22.490  30.613  0.00  0.00    +0.000 A 
ATOM      3  N   UNL     1      29.692  22.341  32.038  0.00  0.00    +0.000 NA
ATOM      4  C   UNL     1      28.452  22.576  29.848  0.00  0.00    +0.000 A 
ATOM      5  C   UNL     1      28.860  22.712  28.531  0.00  0.00    +0.000 A 
ATOM      6  N   UNL     1      28.216  22.835  27.377  0.00  0.00    +0.000 NA
ATOM      7  C   UNL     1      28.883  22.957  26.189  0.00  0.00    +0.000 A 
ATOM      8  C   UNL     1      28.155  23.083  25.007  0.00  0.00    +0.000 A 
ATOM      9  C   UNL     1      28.846  23.204  23.820  0.00  0.00    +0.000 A 
ATOM     10  C   UNL     1      30.232  23.199  23.806  0.00  0.00    +0.000 A 
ATOM     11  C   UNL     1      30.960  23.075  24.965  0.00  0.00    +0.000 A 
ATOM     12  C   UNL     1      30.259  22.955  26.147  0.00  0.00    +0.000 A 
ATOM     13  N   UNL     1      30.904  22.827  27.332  0.00  0.00    +0.000 NA
ATOM     14  C   UNL     1      30.242  22.708  28.502  0.00  0.00    +0.000 A 
ENDROOT
BRANCH   1  15
ATOM     15  C   UNL     1      32.138  22.524  30.150  0.00  0.00    +0.000 C 
ATOM     16  C   UNL     1      32.551  21.394  29.004  0.00  0.00    +0.000 C 
BRANCH  15  18
ATOM     17  C   UNL     1      33.388  20.970  31.575  0.00  0.00    +0.000 C 
ATOM     18  C   UNL     1      31.941  21.383  31.338  0.00  0.00    +0.000 C 
ENDBRANCH  15  18
ENDBRANCH   1  15
BRANCH   4  19
ATOM     19  C   UNL     1      27.104  22.529  30.351  0.00  0.00    +0.000 C 
ATOM     20  N   UNL     1      26.012  22.482  30.738  0.00  0.00    +0.000 NA
ENDBRANCH   4  19
TORSDOF 3
ENDMDL
MODEL 9
REMARK VINA RESULT:      -5.6     14.615     17.977
REMARK  Name = 
REMARK  3 active torsions:
REMARK  status: ('A' for Active; 'I' for Inactive)
REMARK    1  A    between atoms: C_2  and  C_3
REMARK    2  A    between atoms: C_3  and  N_5
REMARK    3  A    between atoms: C_8  and  C_9
REMARK                            x       y       z     vdW  Elec       q    Type
REMARK                         _______ _______ _______ _____ _____    ______ ____
ROOT
ATOM      1  N   UNL     1      27.019  23.300  28.305  0.00  0.00    +0.000 N 
ATOM      2  C   UNL     1      26.088  23.987  28.856  0.00  0.00    +0.000 A 
ATOM      3  N   UNL     1      25.702  23.944  30.237  0.00  0.00    +0.000 NA
ATOM      4  C   UNL     1      25.525  24.782  27.859  0.00  0.00    +0.000 A 
ATOM      5  C   UNL     1      26.212  24.491  26.692  0.00  0.00    +0.000 A 
ATOM      6  N   UNL     1      26.125  24.926  25.440  0.00  0.00    +0.000 NA
ATOM      7  C   UNL     1      26.951  24.458  24.455  0.00  0.00    +0.000 A 
ATOM      8  C   UNL     1      26.814  24.950  23.159  0.00  0.00    +0.000 A 
ATOM      9  C   UNL     1      27.656  24.466  22.180  0.00  0.00    +0.000 A 
ATOM     10  C   UNL     1      28.614  23.512  22.483  0.00  0.00    +0.000 A 
ATOM     11  C   UNL     1      28.758  23.018  23.758  0.00  0.00    +0.000 A 
ATOM     12  C   UNL     1      27.911  23.510  24.729  0.00  0.00    +0.000 A 
ATOM     13  N   UNL     1      27.988  23.075  26.010  0.00  0.00    +0.000 NA
ATOM     14  C   UNL     1      27.172  23.538  26.979  0.00  0.00    +0.000 A 
ENDROOT
BRANCH   1  15
ATOM     15  C   UNL     1      27.966  22.243  28.987  0.00  0.00    +0.000 C 
ATOM     16  C   UNL     1      26.887  21.757  30.154  0.00  0.00    +0.000 C 
BRANCH  15  18
ATOM     17  C   UNL     1      29.248  22.461  31.065  0.00  0.00    +0.000 C 
ATOM     18  C   UNL     1      28.677  23.365  29.980  0.00  0.00    +0.000 C 
ENDBRANCH  15  18
ENDBRANCH   1  15
BRANCH   4  19
ATOM     19  C   UNL     1      24.442  25.714  28.033  0.00  0.00    +0.000 C 
ATOM     20  N   UNL     1      23.583  26.480  28.175  0.00  0.00    +0.000 NA
ENDBRANCH   4  19
TORSDOF 3
ENDMDL
MODEL 10
REMARK VINA RESULT:      -5.6     13.002     15.878
REMARK  Name = 
REMARK  3 active torsions:
REMARK  status: ('A' for Active; 'I' for Inactive)
REMARK    1  A    between atoms: C_2  and  C_3
REMARK    2  A    between atoms: C_3  and  N_5
REMARK    3  A    between atoms: C_8  and  C_9
REMARK                            x       y       z     vdW  Elec       q    Type
REMARK                         _______ _______ _______ _____ _____    ______ ____
ROOT
ATOM      1  N   UNL     1      29.072  22.909  25.695  0.00  0.00    +0.000 N 
ATOM      2  C   UNL     1      29.690  22.965  24.573  0.00  0.00    +0.000 A 
ATOM      3  N   UNL     1      30.918  22.299  24.245  0.00  0.00    +0.000 NA
ATOM      4  C   UNL     1      28.943  23.793  23.738  0.00  0.00    +0.000 A 
ATOM      5  C   UNL     1      27.846  24.205  24.475  0.00  0.00    +0.000 A 
ATOM      6  N   UNL     1      26.806  24.989  24.217  0.00  0.00    +0.000 NA
ATOM      7  C   UNL     1      25.839  25.236  25.151  0.00  0.00    +0.000 A 
ATOM      8  C   UNL     1      24.769  26.067  24.825  0.00  0.00    +0.000 A 
ATOM      9  C   UNL     1      23.804  26.303  25.782  0.00  0.00    +0.000 A 
ATOM     10  C   UNL     1      23.900  25.726  27.038  0.00  0.00    +0.000 A 
ATOM     11  C   UNL     1      24.951  24.905  27.372  0.00  0.00    +0.000 A 
ATOM     12  C   UNL     1      25.910  24.676  26.407  0.00  0.00    +0.000 A 
ATOM     13  N   UNL     1      26.977  23.878  26.658  0.00  0.00    +0.000 NA
ATOM     14  C   UNL     1      27.929  23.638  25.733  0.00  0.00    +0.000 A 
ENDROOT
BRANCH   1  15
ATOM     15  C   UNL     1      29.492  22.111  26.985  0.00  0.00    +0.000 C 
ATOM     16  C   UNL     1      28.972  23.247  28.080  0.00  0.00    +0.000 C 
BRANCH  15  18
ATOM     17  C   UNL     1      31.579  22.111  28.271  0.00  0.00    +0.000 C 
ATOM     18  C   UNL     1      31.043  22.697  26.971  0.00  0.00    +0.000 C 
ENDBRANCH  15  18
ENDBRANCH   1  15
BRANCH   4  19
ATOM     19  C   UNL     1      29.270  24.137  22.378  0.00  0.00    +0.000 C 
ATOM     20  N   UNL     1      29.517  24.428  21.284  0.00  0.00    +0.000 NA
ENDBRANCH   4  19
TORSDOF 3
ENDMDL
