MODEL 1
REMARK VINA RESULT:      -7.0      0.000      0.000
REMARK  Name = 
REMARK  2 active torsions:
REMARK  status: ('A' for Active; 'I' for Inactive)
REMARK    1  A    between atoms: C_7  and  C_8
REMARK    2  A    between atoms: N_10  and  N_11
REMARK                            x       y       z     vdW  Elec       q    Type
REMARK                         _______ _______ _______ _____ _____    ______ ____
ROOT
ATOM      1  N   UNL     1      33.842  -5.170  32.616  0.00  0.00    +0.000 NA
ATOM      2  C   UNL     1      33.701  -5.929  31.594  0.00  0.00    +0.000 C 
ATOM      3  C   UNL     1      33.160  -5.347  30.346  0.00  0.00    +0.000 C 
ATOM      4  C   UNL     1      31.895  -6.150  30.040  0.00  0.00    +0.000 C 
ATOM      5  C   UNL     1      32.255  -7.590  29.875  0.00  0.00    +0.000 C 
ATOM      6  C   UNL     1      33.286  -7.811  28.790  0.00  0.00    +0.000 C 
ATOM      7  C   UNL     1      34.543  -7.054  29.192  0.00  0.00    +0.000 C 
ATOM      8  C   UNL     1      34.207  -5.595  29.269  0.00  0.00    +0.000 C 
ATOM      9  C   UNL     1      35.099  -7.542  30.497  0.00  0.00    +0.000 C 
ATOM     10  C   UNL     1      34.050  -7.366  31.586  0.00  0.00    +0.000 C 
ATOM     11  C   UNL     1      32.798  -8.149  31.165  0.00  0.00    +0.000 C 
ENDROOT
BRANCH   1  14
ATOM     12  C   UNL     1      33.912  -2.988  33.720  0.00  0.00    +0.000 C 
ATOM     13  O   UNL     1      34.564  -3.516  34.656  0.00  0.00    +0.000 OA
ATOM     14  N   UNL     1      33.523  -3.827  32.645  0.00  0.00    +0.000 NA
BRANCH  12  21
ATOM     15  N   UNL     1      31.852  -2.021  35.368  0.00  0.00    +0.000 NA
ATOM     16  C   UNL     1      32.571  -1.093  34.567  0.00  0.00    +0.000 A 
ATOM     17  C   UNL     1      32.243   0.242  34.620  0.00  0.00    +0.000 A 
ATOM     18  C   UNL     1      32.928   1.156  33.852  0.00  0.00    +0.000 A 
ATOM     19  C   UNL     1      33.941   0.700  33.038  0.00  0.00    +0.000 A 
ATOM     20  C   UNL     1      34.265  -0.652  32.993  0.00  0.00    +0.000 A 
ATOM     21  C   UNL     1      33.580  -1.570  33.761  0.00  0.00    +0.000 A 
ENDBRANCH  12  21
ENDBRANCH   1  14
TORSDOF 2
ENDMDL
MODEL 2
REMARK VINA RESULT:      -6.7      1.972      7.072
REMARK  Name = 
REMARK  2 active torsions:
REMARK  status: ('A' for Active; 'I' for Inactive)
REMARK    1  A    between atoms: C_7  and  C_8
REMARK    2  A    between atoms: N_10  and  N_11
REMARK                            x       y       z     vdW  Elec       q    Type
REMARK                         _______ _______ _______ _____ _____    ______ ____
ROOT
ATOM      1  N   UNL     1      34.675  -4.784  33.998  0.00  0.00    +0.000 NA
ATOM      2  C   UNL     1      34.270  -3.693  34.534  0.00  0.00    +0.000 C 
ATOM      3  C   UNL     1      33.288  -2.863  33.801  0.00  0.00    +0.000 C 
ATOM      4  C   UNL     1      33.968  -1.507  33.610  0.00  0.00    +0.000 C 
ATOM      5  C   UNL     1      34.300  -0.931  34.947  0.00  0.00    +0.000 C 
ATOM      6  C   UNL     1      33.083  -0.782  35.834  0.00  0.00    +0.000 C 
ATOM      7  C   UNL     1      32.502  -2.171  36.050  0.00  0.00    +0.000 C 
ATOM      8  C   UNL     1      32.082  -2.717  34.719  0.00  0.00    +0.000 C 
ATOM      9  C   UNL     1      33.480  -3.091  36.719  0.00  0.00    +0.000 C 
ATOM     10  C   UNL     1      34.727  -3.209  35.854  0.00  0.00    +0.000 C 
ATOM     11  C   UNL     1      35.303  -1.799  35.661  0.00  0.00    +0.000 C 
ENDROOT
BRANCH   1  14
ATOM     12  C   UNL     1      35.170  -5.822  31.839  0.00  0.00    +0.000 C 
ATOM     13  O   UNL     1      36.378  -5.884  32.179  0.00  0.00    +0.000 OA
ATOM     14  N   UNL     1      34.261  -5.253  32.767  0.00  0.00    +0.000 NA
BRANCH  12  21
ATOM     15  N   UNL     1      35.604  -8.495  31.090  0.00  0.00    +0.000 NA
ATOM     16  C   UNL     1      34.955  -7.630  30.168  0.00  0.00    +0.000 A 
ATOM     17  C   UNL     1      34.560  -8.120  28.945  0.00  0.00    +0.000 A 
ATOM     18  C   UNL     1      33.929  -7.298  28.039  0.00  0.00    +0.000 A 
ATOM     19  C   UNL     1      33.708  -5.985  28.388  0.00  0.00    +0.000 A 
ATOM     20  C   UNL     1      34.111  -5.500  29.628  0.00  0.00    +0.000 A 
ATOM     21  C   UNL     1      34.744  -6.321  30.537  0.00  0.00    +0.000 A 
ENDBRANCH  12  21
ENDBRANCH   1  14
TORSDOF 2
ENDMDL
MODEL 3
REMARK VINA RESULT:      -6.7     28.928     31.485
REMARK  Name = 
REMARK  2 active torsions:
REMARK  status: ('A' for Active; 'I' for Inactive)
REMARK    1  A    between atoms: C_7  and  C_8
REMARK    2  A    between atoms: N_10  and  N_11
REMARK                            x       y       z     vdW  Elec       q    Type
REMARK                         _______ _______ _______ _____ _____    ______ ____
ROOT
ATOM      1  N   UNL     1      34.207  20.592  11.657  0.00  0.00    +0.000 NA
ATOM      2  C   UNL     1      32.994  20.926  11.420  0.00  0.00    +0.000 C 
ATOM      3  C   UNL     1      31.974  20.683  12.465  0.00  0.00    +0.000 C 
ATOM      4  C   UNL     1      30.940  19.763  11.815  0.00  0.00    +0.000 C 
ATOM      5  C   UNL     1      30.362  20.441  10.616  0.00  0.00    +0.000 C 
ATOM      6  C   UNL     1      29.733  21.776  10.951  0.00  0.00    +0.000 C 
ATOM      7  C   UNL     1      30.826  22.669  11.518  0.00  0.00    +0.000 C 
ATOM      8  C   UNL     1      31.346  22.036  12.772  0.00  0.00    +0.000 C 
ATOM      9  C   UNL     1      31.937  22.889  10.532  0.00  0.00    +0.000 C 
ATOM     10  C   UNL     1      32.545  21.546  10.156  0.00  0.00    +0.000 C 
ATOM     11  C   UNL     1      31.427  20.669   9.575  0.00  0.00    +0.000 C 
ENDROOT
BRANCH   1  14
ATOM     12  C   UNL     1      35.769  19.145  12.863  0.00  0.00    +0.000 C 
ATOM     13  O   UNL     1      36.354  18.920  11.774  0.00  0.00    +0.000 OA
ATOM     14  N   UNL     1      34.646  20.012  12.831  0.00  0.00    +0.000 NA
BRANCH  12  21
ATOM     15  N   UNL     1      37.708  20.394  14.467  0.00  0.00    +0.000 NA
ATOM     16  C   UNL     1      37.191  19.138  14.884  0.00  0.00    +0.000 A 
ATOM     17  C   UNL     1      37.649  18.572  16.051  0.00  0.00    +0.000 A 
ATOM     18  C   UNL     1      37.159  17.357  16.472  0.00  0.00    +0.000 A 
ATOM     19  C   UNL     1      36.208  16.730  15.699  0.00  0.00    +0.000 A 
ATOM     20  C   UNL     1      35.751  17.311  14.520  0.00  0.00    +0.000 A 
ATOM     21  C   UNL     1      36.240  18.528  14.096  0.00  0.00    +0.000 A 
ENDBRANCH  12  21
ENDBRANCH   1  14
TORSDOF 2
ENDMDL
MODEL 4
REMARK VINA RESULT:      -6.5     17.795     20.688
REMARK  Name = 
REMARK  2 active torsions:
REMARK  status: ('A' for Active; 'I' for Inactive)
REMARK    1  A    between atoms: C_7  and  C_8
REMARK    2  A    between atoms: N_10  and  N_11
REMARK                            x       y       z     vdW  Elec       q    Type
REMARK                         _______ _______ _______ _____ _____    ______ ____
ROOT
ATOM      1  N   UNL     1      21.084   9.676  38.007  0.00  0.00    +0.000 NA
ATOM      2  C   UNL     1      22.329   9.976  37.994  0.00  0.00    +0.000 C 
ATOM      3  C   UNL     1      22.789  11.059  37.096  0.00  0.00    +0.000 C 
ATOM      4  C   UNL     1      23.820  10.408  36.173  0.00  0.00    +0.000 C 
ATOM      5  C   UNL     1      24.936   9.853  36.997  0.00  0.00    +0.000 C 
ATOM      6  C   UNL     1      25.599  10.904  37.860  0.00  0.00    +0.000 C 
ATOM      7  C   UNL     1      24.543  11.454  38.806  0.00  0.00    +0.000 C 
ATOM      8  C   UNL     1      23.465  12.093  37.985  0.00  0.00    +0.000 C 
ATOM      9  C   UNL     1      23.974  10.386  39.693  0.00  0.00    +0.000 C 
ATOM     10  C   UNL     1      23.345   9.301  38.830  0.00  0.00    +0.000 C 
ATOM     11  C   UNL     1      24.432   8.754  37.894  0.00  0.00    +0.000 C 
ENDROOT
BRANCH   1  14
ATOM     12  C   UNL     1      18.739  10.017  37.401  0.00  0.00    +0.000 C 
ATOM     13  O   UNL     1      18.420   9.182  38.284  0.00  0.00    +0.000 OA
ATOM     14  N   UNL     1      20.121  10.293  37.235  0.00  0.00    +0.000 NA
BRANCH  12  21
ATOM     15  N   UNL     1      17.807   8.844  35.025  0.00  0.00    +0.000 NA
ATOM     16  C   UNL     1      17.255  10.090  35.427  0.00  0.00    +0.000 A 
ATOM     17  C   UNL     1      16.288  10.683  34.649  0.00  0.00    +0.000 A 
ATOM     18  C   UNL     1      15.741  11.890  35.022  0.00  0.00    +0.000 A 
ATOM     19  C   UNL     1      16.185  12.480  36.184  0.00  0.00    +0.000 A 
ATOM     20  C   UNL     1      17.164  11.872  36.963  0.00  0.00    +0.000 A 
ATOM     21  C   UNL     1      17.714  10.663  36.592  0.00  0.00    +0.000 A 
ENDBRANCH  12  21
ENDBRANCH   1  14
TORSDOF 2
ENDMDL
MODEL 5
REMARK VINA RESULT:      -6.5     30.868     33.876
REMARK  Name = 
REMARK  2 active torsions:
REMARK  status: ('A' for Active; 'I' for Inactive)
REMARK    1  A    between atoms: C_7  and  C_8
REMARK    2  A    between atoms: N_10  and  N_11
REMARK                            x       y       z     vdW  Elec       q    Type
REMARK                         _______ _______ _______ _____ _____    ______ ____
ROOT
ATOM      1  N   UNL     1      30.050  26.336  19.425  0.00  0.00    +0.000 NA
ATOM      2  C   UNL     1      30.195  27.331  18.632  0.00  0.00    +0.000 C 
ATOM      3  C   UNL     1      29.526  28.609  18.965  0.00  0.00    +0.000 C 
ATOM      4  C   UNL     1      28.606  28.904  17.781  0.00  0.00    +0.000 C 
ATOM      5  C   UNL     1      29.425  29.011  16.536  0.00  0.00    +0.000 C 
ATOM      6  C   UNL     1      30.501  30.071  16.638  0.00  0.00    +0.000 C 
ATOM      7  C   UNL     1      31.425  29.677  17.779  0.00  0.00    +0.000 C 
ATOM      8  C   UNL     1      30.625  29.659  19.046  0.00  0.00    +0.000 C 
ATOM      9  C   UNL     1      32.076  28.347  17.541  0.00  0.00    +0.000 C 
ATOM     10  C   UNL     1      30.999  27.282  17.392  0.00  0.00    +0.000 C 
ATOM     11  C   UNL     1      30.087  27.694  16.227  0.00  0.00    +0.000 C 
ENDROOT
BRANCH   1  14
ATOM     12  C   UNL     1      29.154  25.212  21.404  0.00  0.00    +0.000 C 
ATOM     13  O   UNL     1      29.728  24.159  21.029  0.00  0.00    +0.000 OA
ATOM     14  N   UNL     1      29.304  26.362  20.586  0.00  0.00    +0.000 NA
BRANCH  12  21
ATOM     15  N   UNL     1      26.764  23.751  21.624  0.00  0.00    +0.000 NA
ATOM     16  C   UNL     1      27.198  24.513  22.743  0.00  0.00    +0.000 A 
ATOM     17  C   UNL     1      26.443  24.514  23.893  0.00  0.00    +0.000 A 
ATOM     18  C   UNL     1      26.847  25.245  24.987  0.00  0.00    +0.000 A 
ATOM     19  C   UNL     1      28.015  25.968  24.897  0.00  0.00    +0.000 A 
ATOM     20  C   UNL     1      28.771  25.959  23.730  0.00  0.00    +0.000 A 
ATOM     21  C   UNL     1      28.369  25.228  22.632  0.00  0.00    +0.000 A 
ENDBRANCH  12  21
ENDBRANCH   1  14
TORSDOF 2
ENDMDL
MODEL 6
REMARK VINA RESULT:      -6.4     35.585     37.622
REMARK  Name = 
REMARK  2 active torsions:
REMARK  status: ('A' for Active; 'I' for Inactive)
REMARK    1  A    between atoms: C_7  and  C_8
REMARK    2  A    between atoms: N_10  and  N_11
REMARK                            x       y       z     vdW  Elec       q    Type
REMARK                         _______ _______ _______ _____ _____    ______ ____
ROOT
ATOM      1  N   UNL     1       8.784  22.789  22.251  0.00  0.00    +0.000 NA
ATOM      2  C   UNL     1       9.241  21.850  21.510  0.00  0.00    +0.000 C 
ATOM      3  C   UNL     1       9.082  20.449  21.960  0.00  0.00    +0.000 C 
ATOM      4  C   UNL     1      10.503  19.892  22.056  0.00  0.00    +0.000 C 
ATOM      5  C   UNL     1      11.157  19.977  20.716  0.00  0.00    +0.000 C 
ATOM      6  C   UNL     1      10.381  19.244  19.644  0.00  0.00    +0.000 C 
ATOM      7  C   UNL     1       9.011  19.895  19.543  0.00  0.00    +0.000 C 
ATOM      8  C   UNL     1       8.314  19.730  20.859  0.00  0.00    +0.000 C 
ATOM      9  C   UNL     1       9.105  21.345  19.167  0.00  0.00    +0.000 C 
ATOM     10  C   UNL     1       9.923  22.082  20.219  0.00  0.00    +0.000 C 
ATOM     11  C   UNL     1      11.304  21.415  20.293  0.00  0.00    +0.000 C 
ENDROOT
BRANCH   1  14
ATOM     12  C   UNL     1       7.565  23.669  24.181  0.00  0.00    +0.000 C 
ATOM     13  O   UNL     1       7.657  24.816  23.678  0.00  0.00    +0.000 OA
ATOM     14  N   UNL     1       8.145  22.594  23.459  0.00  0.00    +0.000 NA
BRANCH  12  21
ATOM     15  N   UNL     1       4.828  23.046  24.297  0.00  0.00    +0.000 NA
ATOM     16  C   UNL     1       5.547  23.169  25.517  0.00  0.00    +0.000 A 
ATOM     17  C   UNL     1       4.890  22.980  26.710  0.00  0.00    +0.000 A 
ATOM     18  C   UNL     1       5.570  23.094  27.902  0.00  0.00    +0.000 A 
ATOM     19  C   UNL     1       6.912  23.399  27.865  0.00  0.00    +0.000 A 
ATOM     20  C   UNL     1       7.567  23.586  26.652  0.00  0.00    +0.000 A 
ATOM     21  C   UNL     1       6.889  23.474  25.457  0.00  0.00    +0.000 A 
ENDBRANCH  12  21
ENDBRANCH   1  14
TORSDOF 2
ENDMDL
MODEL 7
REMARK VINA RESULT:      -6.4     17.803     19.680
REMARK  Name = 
REMARK  2 active torsions:
REMARK  status: ('A' for Active; 'I' for Inactive)
REMARK    1  A    between atoms: C_7  and  C_8
REMARK    2  A    between atoms: N_10  and  N_11
REMARK                            x       y       z     vdW  Elec       q    Type
REMARK                         _______ _______ _______ _____ _____    ______ ____
ROOT
ATOM      1  N   UNL     1      15.530 -10.014  26.900  0.00  0.00    +0.000 NA
ATOM      2  C   UNL     1      14.295 -10.009  26.561  0.00  0.00    +0.000 C 
ATOM      3  C   UNL     1      13.845  -9.041  25.535  0.00  0.00    +0.000 C 
ATOM      4  C   UNL     1      12.770  -8.197  26.219  0.00  0.00    +0.000 C 
ATOM      5  C   UNL     1      11.659  -9.088  26.673  0.00  0.00    +0.000 C 
ATOM      6  C   UNL     1      11.053  -9.884  25.538  0.00  0.00    +0.000 C 
ATOM      7  C   UNL     1      12.151 -10.759  24.954  0.00  0.00    +0.000 C 
ATOM      8  C   UNL     1      13.225  -9.865  24.414  0.00  0.00    +0.000 C 
ATOM      9  C   UNL     1      12.710 -11.711  25.970  0.00  0.00    +0.000 C 
ATOM     10  C   UNL     1      13.282 -10.918  27.137  0.00  0.00    +0.000 C 
ATOM     11  C   UNL     1      12.153 -10.055  27.717  0.00  0.00    +0.000 C 
ENDROOT
BRANCH   1  14
ATOM     12  C   UNL     1      17.528  -8.630  27.177  0.00  0.00    +0.000 C 
ATOM     13  O   UNL     1      17.540  -8.943  28.394  0.00  0.00    +0.000 OA
ATOM     14  N   UNL     1      16.491  -9.174  26.375  0.00  0.00    +0.000 NA
BRANCH  12  21
ATOM     15  N   UNL     1      17.183  -5.842  27.182  0.00  0.00    +0.000 NA
ATOM     16  C   UNL     1      18.381  -6.375  26.635  0.00  0.00    +0.000 A 
ATOM     17  C   UNL     1      19.331  -5.520  26.127  0.00  0.00    +0.000 A 
ATOM     18  C   UNL     1      20.498  -6.017  25.593  0.00  0.00    +0.000 A 
ATOM     19  C   UNL     1      20.685  -7.381  25.581  0.00  0.00    +0.000 A 
ATOM     20  C   UNL     1      19.717  -8.237  26.098  0.00  0.00    +0.000 A 
ATOM     21  C   UNL     1      18.547  -7.742  26.633  0.00  0.00    +0.000 A 
ENDBRANCH  12  21
ENDBRANCH   1  14
TORSDOF 2
ENDMDL
MODEL 8
REMARK VINA RESULT:      -6.4     18.769     20.288
REMARK  Name = 
REMARK  2 active torsions:
REMARK  status: ('A' for Active; 'I' for Inactive)
REMARK    1  A    between atoms: C_7  and  C_8
REMARK    2  A    between atoms: N_10  and  N_11
REMARK                            x       y       z     vdW  Elec       q    Type
REMARK                         _______ _______ _______ _____ _____    ______ ____
ROOT
ATOM      1  N   UNL     1      25.499   4.007  15.431  0.00  0.00    +0.000 NA
ATOM      2  C   UNL     1      26.208   4.773  16.174  0.00  0.00    +0.000 C 
ATOM      3  C   UNL     1      25.579   5.386  17.366  0.00  0.00    +0.000 C 
ATOM      4  C   UNL     1      25.713   6.895  17.163  0.00  0.00    +0.000 C 
ATOM      5  C   UNL     1      27.160   7.250  17.050  0.00  0.00    +0.000 C 
ATOM      6  C   UNL     1      27.961   6.813  18.257  0.00  0.00    +0.000 C 
ATOM      7  C   UNL     1      27.852   5.299  18.357  0.00  0.00    +0.000 C 
ATOM      8  C   UNL     1      26.411   4.945  18.562  0.00  0.00    +0.000 C 
ATOM      9  C   UNL     1      28.400   4.616  17.138  0.00  0.00    +0.000 C 
ATOM     10  C   UNL     1      27.629   5.085  15.912  0.00  0.00    +0.000 C 
ATOM     11  C   UNL     1      27.764   6.612  15.826  0.00  0.00    +0.000 C 
ENDROOT
BRANCH   1  14
ATOM     12  C   UNL     1      23.775   2.479  16.254  0.00  0.00    +0.000 C 
ATOM     13  O   UNL     1      24.685   1.671  16.570  0.00  0.00    +0.000 OA
ATOM     14  N   UNL     1      24.172   3.704  15.658  0.00  0.00    +0.000 NA
BRANCH  12  21
ATOM     15  N   UNL     1      22.403   3.507  18.479  0.00  0.00    +0.000 NA
ATOM     16  C   UNL     1      21.703   2.651  17.588  0.00  0.00    +0.000 A 
ATOM     17  C   UNL     1      20.383   2.352  17.835  0.00  0.00    +0.000 A 
ATOM     18  C   UNL     1      19.687   1.526  16.983  0.00  0.00    +0.000 A 
ATOM     19  C   UNL     1      20.343   1.012  15.887  0.00  0.00    +0.000 A 
ATOM     20  C   UNL     1      21.678   1.321  15.645  0.00  0.00    +0.000 A 
ATOM     21  C   UNL     1      22.377   2.148  16.498  0.00  0.00    +0.000 A 
ENDBRANCH  12  21
ENDBRANCH   1  14
TORSDOF 2
ENDMDL
MODEL 9
REMARK VINA RESULT:      -6.3     18.707     20.218
REMARK  Name = 
REMARK  2 active torsions:
REMARK  status: ('A' for Active; 'I' for Inactive)
REMARK    1  A    between atoms: C_7  and  C_8
REMARK    2  A    between atoms: N_10  and  N_11
REMARK                            x       y       z     vdW  Elec       q    Type
REMARK                         _______ _______ _______ _____ _____    ______ ____
ROOT
ATOM      1  N   UNL     1      25.116   4.194  18.584  0.00  0.00    +0.000 NA
ATOM      2  C   UNL     1      26.020   4.874  17.982  0.00  0.00    +0.000 C 
ATOM      3  C   UNL     1      25.699   5.474  16.668  0.00  0.00    +0.000 C 
ATOM      4  C   UNL     1      26.716   4.880  15.693  0.00  0.00    +0.000 C 
ATOM      5  C   UNL     1      28.095   5.231  16.146  0.00  0.00    +0.000 C 
ATOM      6  C   UNL     1      28.303   6.725  16.269  0.00  0.00    +0.000 C 
ATOM      7  C   UNL     1      27.319   7.240  17.308  0.00  0.00    +0.000 C 
ATOM      8  C   UNL     1      25.931   6.972  16.814  0.00  0.00    +0.000 C 
ATOM      9  C   UNL     1      27.538   6.608  18.651  0.00  0.00    +0.000 C 
ATOM     10  C   UNL     1      27.375   5.099  18.526  0.00  0.00    +0.000 C 
ATOM     11  C   UNL     1      28.386   4.601  17.483  0.00  0.00    +0.000 C 
ENDROOT
BRANCH   1  14
ATOM     12  C   UNL     1      23.413   2.681  17.694  0.00  0.00    +0.000 C 
ATOM     13  O   UNL     1      24.237   1.738  17.802  0.00  0.00    +0.000 OA
ATOM     14  N   UNL     1      23.845   3.971  18.094  0.00  0.00    +0.000 NA
BRANCH  12  21
ATOM     15  N   UNL     1      22.847   2.915  14.952  0.00  0.00    +0.000 NA
ATOM     16  C   UNL     1      21.794   2.549  15.832  0.00  0.00    +0.000 A 
ATOM     17  C   UNL     1      20.536   2.321  15.323  0.00  0.00    +0.000 A 
ATOM     18  C   UNL     1      19.503   1.964  16.159  0.00  0.00    +0.000 A 
ATOM     19  C   UNL     1      19.761   1.845  17.506  0.00  0.00    +0.000 A 
ATOM     20  C   UNL     1      21.036   2.077  18.011  0.00  0.00    +0.000 A 
ATOM     21  C   UNL     1      22.073   2.435  17.175  0.00  0.00    +0.000 A 
ENDBRANCH  12  21
ENDBRANCH   1  14
TORSDOF 2
ENDMDL
MODEL 10
REMARK VINA RESULT:      -6.2     26.727     29.385
REMARK  Name = 
REMARK  2 active torsions:
REMARK  status: ('A' for Active; 'I' for Inactive)
REMARK    1  A    between atoms: C_7  and  C_8
REMARK    2  A    between atoms: N_10  and  N_11
REMARK                            x       y       z     vdW  Elec       q    Type
REMARK                         _______ _______ _______ _____ _____    ______ ____
ROOT
ATOM      1  N   UNL     1      27.853  24.652  25.991  0.00  0.00    +0.000 NA
ATOM      2  C   UNL     1      28.062  24.788  24.734  0.00  0.00    +0.000 C 
ATOM      3  C   UNL     1      29.432  24.577  24.216  0.00  0.00    +0.000 C 
ATOM      4  C   UNL     1      29.819  25.895  23.546  0.00  0.00    +0.000 C 
ATOM      5  C   UNL     1      28.847  26.195  22.452  0.00  0.00    +0.000 C 
ATOM      6  C   UNL     1      28.774  25.090  21.421  0.00  0.00    +0.000 C 
ATOM      7  C   UNL     1      28.309  23.829  22.134  0.00  0.00    +0.000 C 
ATOM      8  C   UNL     1      29.328  23.473  23.172  0.00  0.00    +0.000 C 
ATOM      9  C   UNL     1      26.954  24.004  22.755  0.00  0.00    +0.000 C 
ATOM     10  C   UNL     1      27.008  25.145  23.761  0.00  0.00    +0.000 C 
ATOM     11  C   UNL     1      27.467  26.407  23.017  0.00  0.00    +0.000 C 
ENDROOT
BRANCH   1  14
ATOM     12  C   UNL     1      28.945  23.004  27.430  0.00  0.00    +0.000 C 
ATOM     13  O   UNL     1      28.132  22.143  27.011  0.00  0.00    +0.000 OA
ATOM     14  N   UNL     1      28.822  24.320  26.916  0.00  0.00    +0.000 NA
BRANCH  12  21
ATOM     15  N   UNL     1      28.486  23.286  30.188  0.00  0.00    +0.000 NA
ATOM     16  C   UNL     1      29.742  22.780  29.758  0.00  0.00    +0.000 A 
ATOM     17  C   UNL     1      30.691  22.444  30.696  0.00  0.00    +0.000 A 
ATOM     18  C   UNL     1      31.914  21.951  30.300  0.00  0.00    +0.000 A 
ATOM     19  C   UNL     1      32.157  21.806  28.953  0.00  0.00    +0.000 A 
ATOM     20  C   UNL     1      31.190  22.148  28.013  0.00  0.00    +0.000 A 
ATOM     21  C   UNL     1      29.965  22.642  28.407  0.00  0.00    +0.000 A 
ENDBRANCH  12  21
ENDBRANCH   1  14
TORSDOF 2
ENDMDL
