MODEL 1
REMARK VINA RESULT:      -7.3      0.000      0.000
REMARK  Name = 
REMARK  4 active torsions:
REMARK  status: ('A' for Active; 'I' for Inactive)
REMARK    1  A    between atoms: C_2  and  C_3
REMARK    2  A    between atoms: C_3  and  C_4
REMARK    3  A    between atoms: N_6  and  C_7
REMARK    4  A    between atoms: C_10  and  N_11
REMARK                            x       y       z     vdW  Elec       q    Type
REMARK                         _______ _______ _______ _____ _____    ______ ____
ROOT
ATOM      1  C   UNL     1      15.203  12.032  32.314  0.00  0.00    +0.000 A 
ATOM      2  N   UNL     1      15.995  11.258  33.036  0.00  0.00    +0.000 NA
ATOM      3  N   UNL     1      15.939  11.559  34.343  0.00  0.00    +0.000 N 
ATOM      4  C   UNL     1      15.072  12.574  34.470  0.00  0.00    +0.000 A 
ATOM      5  C   UNL     1      14.592  12.894  33.201  0.00  0.00    +0.000 A 
ATOM      6  C   UNL     1      13.633  14.008  33.264  0.00  0.00    +0.000 C 
ATOM      7  C   UNL     1      13.319  14.071  34.764  0.00  0.00    +0.000 C 
ATOM      8  N   UNL     1      14.451  13.455  35.394  0.00  0.00    +0.000 NA
ENDROOT
BRANCH   3   9
ATOM      9  C   UNL     1      16.665  10.921  35.392  0.00  0.00    +0.000 A 
ATOM     10  C   UNL     1      16.289  11.015  36.732  0.00  0.00    +0.000 A 
ATOM     11  C   UNL     1      17.022  10.378  37.721  0.00  0.00    +0.000 A 
ATOM     12  C   UNL     1      18.130   9.641  37.432  0.00  0.00    +0.000 A 
ATOM     13  C   UNL     1      18.522   9.535  36.104  0.00  0.00    +0.000 A 
ATOM     14  C   UNL     1      17.785  10.174  35.122  0.00  0.00    +0.000 A 
BRANCH  12  15
ATOM     15  N   UNL     1      18.864   8.996  38.469  0.00  0.00    +0.000 N 
ATOM     16  O   UNL     1      20.078   9.278  38.565  0.00  0.00    +0.000 OA
ATOM     17  O   UNL     1      18.278   8.101  39.331  0.00  0.00    +0.000 OA
ENDBRANCH  12  15
ENDBRANCH   3   9
BRANCH   1  18
ATOM     18  C   UNL     1      15.063  11.919  30.830  0.00  0.00    +0.000 C 
BRANCH  18  20
ATOM     19  C   UNL     1      16.694  13.637  30.182  0.00  0.00    +0.000 C 
ATOM     20  C   UNL     1      15.217  13.234  30.141  0.00  0.00    +0.000 C 
ENDBRANCH  18  20
ENDBRANCH   1  18
TORSDOF 4
ENDMDL
MODEL 2
REMARK VINA RESULT:      -6.9      2.024      3.001
REMARK  Name = 
REMARK  4 active torsions:
REMARK  status: ('A' for Active; 'I' for Inactive)
REMARK    1  A    between atoms: C_2  and  C_3
REMARK    2  A    between atoms: C_3  and  C_4
REMARK    3  A    between atoms: N_6  and  C_7
REMARK    4  A    between atoms: C_10  and  N_11
REMARK                            x       y       z     vdW  Elec       q    Type
REMARK                         _______ _______ _______ _____ _____    ______ ____
ROOT
ATOM      1  C   UNL     1      14.157  13.082  35.284  0.00  0.00    +0.000 A 
ATOM      2  N   UNL     1      15.433  12.747  35.345  0.00  0.00    +0.000 NA
ATOM      3  N   UNL     1      15.684  11.898  36.354  0.00  0.00    +0.000 N 
ATOM      4  C   UNL     1      14.515  11.676  36.973  0.00  0.00    +0.000 A 
ATOM      5  C   UNL     1      13.531  12.414  36.316  0.00  0.00    +0.000 A 
ATOM      6  C   UNL     1      12.217  12.221  36.947  0.00  0.00    +0.000 C 
ATOM      7  C   UNL     1      12.466  10.991  37.830  0.00  0.00    +0.000 C 
ATOM      8  N   UNL     1      13.886  10.982  38.039  0.00  0.00    +0.000 NA
ENDROOT
BRANCH   3   9
ATOM      9  C   UNL     1      16.951  11.342  36.700  0.00  0.00    +0.000 A 
ATOM     10  C   UNL     1      17.358  10.077  36.278  0.00  0.00    +0.000 A 
ATOM     11  C   UNL     1      18.599   9.574  36.636  0.00  0.00    +0.000 A 
ATOM     12  C   UNL     1      19.468  10.285  37.406  0.00  0.00    +0.000 A 
ATOM     13  C   UNL     1      19.082  11.548  37.837  0.00  0.00    +0.000 A 
ATOM     14  C   UNL     1      17.841  12.043  37.476  0.00  0.00    +0.000 A 
BRANCH  12  15
ATOM     15  N   UNL     1      20.738   9.745  37.758  0.00  0.00    +0.000 N 
ATOM     16  O   UNL     1      21.601   9.690  36.857  0.00  0.00    +0.000 OA
ATOM     17  O   UNL     1      21.016   9.300  39.028  0.00  0.00    +0.000 OA
ENDBRANCH  12  15
ENDBRANCH   3   9
BRANCH   1  18
ATOM     18  C   UNL     1      13.592  14.012  34.257  0.00  0.00    +0.000 C 
BRANCH  18  20
ATOM     19  C   UNL     1      13.736  14.797  31.934  0.00  0.00    +0.000 C 
ATOM     20  C   UNL     1      13.933  13.597  32.864  0.00  0.00    +0.000 C 
ENDBRANCH  18  20
ENDBRANCH   1  18
TORSDOF 4
ENDMDL
MODEL 3
REMARK VINA RESULT:      -6.6      3.978      6.905
REMARK  Name = 
REMARK  4 active torsions:
REMARK  status: ('A' for Active; 'I' for Inactive)
REMARK    1  A    between atoms: C_2  and  C_3
REMARK    2  A    between atoms: C_3  and  C_4
REMARK    3  A    between atoms: N_6  and  C_7
REMARK    4  A    between atoms: C_10  and  N_11
REMARK                            x       y       z     vdW  Elec       q    Type
REMARK                         _______ _______ _______ _____ _____    ______ ____
ROOT
ATOM      1  C   UNL     1      16.805  10.732  37.931  0.00  0.00    +0.000 A 
ATOM      2  N   UNL     1      16.839  11.186  36.690  0.00  0.00    +0.000 NA
ATOM      3  N   UNL     1      15.610  11.436  36.211  0.00  0.00    +0.000 N 
ATOM      4  C   UNL     1      14.744  11.128  37.188  0.00  0.00    +0.000 A 
ATOM      5  C   UNL     1      15.474  10.680  38.288  0.00  0.00    +0.000 A 
ATOM      6  C   UNL     1      14.583  10.320  39.402  0.00  0.00    +0.000 C 
ATOM      7  C   UNL     1      13.257  10.956  38.966  0.00  0.00    +0.000 C 
ATOM      8  N   UNL     1      13.370  11.080  37.541  0.00  0.00    +0.000 NA
ENDROOT
BRANCH   3   9
ATOM      9  C   UNL     1      15.290  11.931  34.912  0.00  0.00    +0.000 A 
ATOM     10  C   UNL     1      14.432  13.011  34.709  0.00  0.00    +0.000 A 
ATOM     11  C   UNL     1      14.149  13.462  33.430  0.00  0.00    +0.000 A 
ATOM     12  C   UNL     1      14.689  12.876  32.326  0.00  0.00    +0.000 A 
ATOM     13  C   UNL     1      15.547  11.799  32.506  0.00  0.00    +0.000 A 
ATOM     14  C   UNL     1      15.825  11.354  33.787  0.00  0.00    +0.000 A 
BRANCH  12  15
ATOM     15  N   UNL     1      14.382  13.361  31.022  0.00  0.00    +0.000 N 
ATOM     16  O   UNL     1      13.200  13.704  30.807  0.00  0.00    +0.000 OA
ATOM     17  O   UNL     1      15.332  13.452  30.034  0.00  0.00    +0.000 OA
ENDBRANCH  12  15
ENDBRANCH   3   9
BRANCH   1  18
ATOM     18  C   UNL     1      18.027  10.374  38.716  0.00  0.00    +0.000 C 
BRANCH  18  20
ATOM     19  C   UNL     1      18.636   8.121  39.481  0.00  0.00    +0.000 C 
ATOM     20  C   UNL     1      18.622   9.075  38.283  0.00  0.00    +0.000 C 
ENDBRANCH  18  20
ENDBRANCH   1  18
TORSDOF 4
ENDMDL
MODEL 4
REMARK VINA RESULT:      -6.3      1.665      2.379
REMARK  Name = 
REMARK  4 active torsions:
REMARK  status: ('A' for Active; 'I' for Inactive)
REMARK    1  A    between atoms: C_2  and  C_3
REMARK    2  A    between atoms: C_3  and  C_4
REMARK    3  A    between atoms: N_6  and  C_7
REMARK    4  A    between atoms: C_10  and  N_11
REMARK                            x       y       z     vdW  Elec       q    Type
REMARK                         _______ _______ _______ _____ _____    ______ ____
ROOT
ATOM      1  C   UNL     1      16.339  10.951  33.610  0.00  0.00    +0.000 A 
ATOM      2  N   UNL     1      17.149  10.344  34.460  0.00  0.00    +0.000 NA
ATOM      3  N   UNL     1      16.952  10.755  35.723  0.00  0.00    +0.000 N 
ATOM      4  C   UNL     1      15.970  11.668  35.685  0.00  0.00    +0.000 A 
ATOM      5  C   UNL     1      15.565  11.812  34.359  0.00  0.00    +0.000 A 
ATOM      6  C   UNL     1      14.488  12.807  34.241  0.00  0.00    +0.000 C 
ATOM      7  C   UNL     1      14.045  12.969  35.701  0.00  0.00    +0.000 C 
ATOM      8  N   UNL     1      15.182  12.550  36.470  0.00  0.00    +0.000 NA
ENDROOT
BRANCH   3   9
ATOM      9  C   UNL     1      17.654  10.305  36.880  0.00  0.00    +0.000 A 
ATOM     10  C   UNL     1      18.992   9.913  36.843  0.00  0.00    +0.000 A 
ATOM     11  C   UNL     1      19.638   9.483  37.992  0.00  0.00    +0.000 A 
ATOM     12  C   UNL     1      19.003   9.426  39.195  0.00  0.00    +0.000 A 
ATOM     13  C   UNL     1      17.671   9.813  39.253  0.00  0.00    +0.000 A 
ATOM     14  C   UNL     1      17.032  10.240  38.103  0.00  0.00    +0.000 A 
BRANCH  12  15
ATOM     15  N   UNL     1      19.692   8.982  40.360  0.00  0.00    +0.000 N 
ATOM     16  O   UNL     1      20.367   7.936  40.256  0.00  0.00    +0.000 OA
ATOM     17  O   UNL     1      19.624   9.663  41.552  0.00  0.00    +0.000 OA
ENDBRANCH  12  15
ENDBRANCH   3   9
BRANCH   1  18
ATOM     18  C   UNL     1      16.335  10.686  32.138  0.00  0.00    +0.000 C 
BRANCH  18  20
ATOM     19  C   UNL     1      14.545  11.555  30.697  0.00  0.00    +0.000 C 
ATOM     20  C   UNL     1      14.966  10.403  31.614  0.00  0.00    +0.000 C 
ENDBRANCH  18  20
ENDBRANCH   1  18
TORSDOF 4
ENDMDL
MODEL 5
REMARK VINA RESULT:      -6.3      1.792      3.208
REMARK  Name = 
REMARK  4 active torsions:
REMARK  status: ('A' for Active; 'I' for Inactive)
REMARK    1  A    between atoms: C_2  and  C_3
REMARK    2  A    between atoms: C_3  and  C_4
REMARK    3  A    between atoms: N_6  and  C_7
REMARK    4  A    between atoms: C_10  and  N_11
REMARK                            x       y       z     vdW  Elec       q    Type
REMARK                         _______ _______ _______ _____ _____    ______ ____
ROOT
ATOM      1  C   UNL     1      14.783  12.327  35.414  0.00  0.00    +0.000 A 
ATOM      2  N   UNL     1      15.458  11.975  36.494  0.00  0.00    +0.000 NA
ATOM      3  N   UNL     1      16.428  11.090  36.216  0.00  0.00    +0.000 N 
ATOM      4  C   UNL     1      16.375  10.860  34.895  0.00  0.00    +0.000 A 
ATOM      5  C   UNL     1      15.342  11.630  34.363  0.00  0.00    +0.000 A 
ATOM      6  C   UNL     1      15.224  11.425  32.912  0.00  0.00    +0.000 C 
ATOM      7  C   UNL     1      16.547  10.723  32.582  0.00  0.00    +0.000 C 
ATOM      8  N   UNL     1      16.962  10.136  33.824  0.00  0.00    +0.000 NA
ENDROOT
BRANCH   3   9
ATOM      9  C   UNL     1      17.337  10.506  37.147  0.00  0.00    +0.000 A 
ATOM     10  C   UNL     1      16.984  10.224  38.467  0.00  0.00    +0.000 A 
ATOM     11  C   UNL     1      17.897   9.655  39.340  0.00  0.00    +0.000 A 
ATOM     12  C   UNL     1      19.166   9.349  38.953  0.00  0.00    +0.000 A 
ATOM     13  C   UNL     1      19.538   9.622  37.643  0.00  0.00    +0.000 A 
ATOM     14  C   UNL     1      18.621  10.190  36.777  0.00  0.00    +0.000 A 
BRANCH  12  15
ATOM     15  N   UNL     1      20.085   8.763  39.871  0.00  0.00    +0.000 N 
ATOM     16  O   UNL     1      21.028   9.481  40.267  0.00  0.00    +0.000 OA
ATOM     17  O   UNL     1      19.953   7.468  40.310  0.00  0.00    +0.000 OA
ENDBRANCH  12  15
ENDBRANCH   3   9
BRANCH   1  18
ATOM     18  C   UNL     1      13.648  13.301  35.428  0.00  0.00    +0.000 C 
BRANCH  18  20
ATOM     19  C   UNL     1      12.784  15.398  34.483  0.00  0.00    +0.000 C 
ATOM     20  C   UNL     1      13.598  14.134  34.190  0.00  0.00    +0.000 C 
ENDBRANCH  18  20
ENDBRANCH   1  18
TORSDOF 4
ENDMDL
MODEL 6
REMARK VINA RESULT:      -6.3     18.847     20.788
REMARK  Name = 
REMARK  4 active torsions:
REMARK  status: ('A' for Active; 'I' for Inactive)
REMARK    1  A    between atoms: C_2  and  C_3
REMARK    2  A    between atoms: C_3  and  C_4
REMARK    3  A    between atoms: N_6  and  C_7
REMARK    4  A    between atoms: C_10  and  N_11
REMARK                            x       y       z     vdW  Elec       q    Type
REMARK                         _______ _______ _______ _____ _____    ______ ____
ROOT
ATOM      1  C   UNL     1      33.792   3.035  34.663  0.00  0.00    +0.000 A 
ATOM      2  N   UNL     1      33.479   1.880  34.103  0.00  0.00    +0.000 NA
ATOM      3  N   UNL     1      33.510   0.868  34.985  0.00  0.00    +0.000 N 
ATOM      4  C   UNL     1      33.860   1.395  36.168  0.00  0.00    +0.000 A 
ATOM      5  C   UNL     1      34.045   2.766  35.992  0.00  0.00    +0.000 A 
ATOM      6  C   UNL     1      34.435   3.412  37.254  0.00  0.00    +0.000 C 
ATOM      7  C   UNL     1      34.102   2.325  38.284  0.00  0.00    +0.000 C 
ATOM      8  N   UNL     1      34.117   1.102  37.533  0.00  0.00    +0.000 NA
ENDROOT
BRANCH   3   9
ATOM      9  C   UNL     1      33.228  -0.503  34.713  0.00  0.00    +0.000 A 
ATOM     10  C   UNL     1      33.890  -1.225  33.719  0.00  0.00    +0.000 A 
ATOM     11  C   UNL     1      33.585  -2.557  33.488  0.00  0.00    +0.000 A 
ATOM     12  C   UNL     1      32.638  -3.214  34.212  0.00  0.00    +0.000 A 
ATOM     13  C   UNL     1      31.967  -2.514  35.206  0.00  0.00    +0.000 A 
ATOM     14  C   UNL     1      32.276  -1.184  35.431  0.00  0.00    +0.000 A 
BRANCH  12  15
ATOM     15  N   UNL     1      32.346  -4.584  33.954  0.00  0.00    +0.000 N 
ATOM     16  O   UNL     1      32.803  -5.074  32.899  0.00  0.00    +0.000 OA
ATOM     17  O   UNL     1      31.596  -5.346  34.817  0.00  0.00    +0.000 OA
ENDBRANCH  12  15
ENDBRANCH   3   9
BRANCH   1  18
ATOM     18  C   UNL     1      33.834   4.332  33.919  0.00  0.00    +0.000 C 
BRANCH  18  20
ATOM     19  C   UNL     1      33.800   6.406  35.235  0.00  0.00    +0.000 C 
ATOM     20  C   UNL     1      32.936   5.363  34.520  0.00  0.00    +0.000 C 
ENDBRANCH  18  20
ENDBRANCH   1  18
TORSDOF 4
ENDMDL
MODEL 7
REMARK VINA RESULT:      -6.2      1.227      2.740
REMARK  Name = 
REMARK  4 active torsions:
REMARK  status: ('A' for Active; 'I' for Inactive)
REMARK    1  A    between atoms: C_2  and  C_3
REMARK    2  A    between atoms: C_3  and  C_4
REMARK    3  A    between atoms: N_6  and  C_7
REMARK    4  A    between atoms: C_10  and  N_11
REMARK                            x       y       z     vdW  Elec       q    Type
REMARK                         _______ _______ _______ _____ _____    ______ ____
ROOT
ATOM      1  C   UNL     1      14.652  12.746  33.850  0.00  0.00    +0.000 A 
ATOM      2  N   UNL     1      15.159  12.443  35.032  0.00  0.00    +0.000 NA
ATOM      3  N   UNL     1      15.979  11.382  34.973  0.00  0.00    +0.000 N 
ATOM      4  C   UNL     1      16.002  10.982  33.693  0.00  0.00    +0.000 A 
ATOM      5  C   UNL     1      15.170  11.827  32.960  0.00  0.00    +0.000 A 
ATOM      6  C   UNL     1      15.144  11.442  31.541  0.00  0.00    +0.000 C 
ATOM      7  C   UNL     1      16.347  10.495  31.447  0.00  0.00    +0.000 C 
ATOM      8  N   UNL     1      16.543  10.029  32.790  0.00  0.00    +0.000 NA
ENDROOT
BRANCH   3   9
ATOM      9  C   UNL     1      16.687  10.795  36.063  0.00  0.00    +0.000 A 
ATOM     10  C   UNL     1      17.888  10.106  35.896  0.00  0.00    +0.000 A 
ATOM     11  C   UNL     1      18.545   9.551  36.983  0.00  0.00    +0.000 A 
ATOM     12  C   UNL     1      18.054   9.654  38.249  0.00  0.00    +0.000 A 
ATOM     13  C   UNL     1      16.859  10.336  38.437  0.00  0.00    +0.000 A 
ATOM     14  C   UNL     1      16.208  10.887  37.347  0.00  0.00    +0.000 A 
BRANCH  12  15
ATOM     15  N   UNL     1      18.750   9.075  39.349  0.00  0.00    +0.000 N 
ATOM     16  O   UNL     1      18.756   7.828  39.425  0.00  0.00    +0.000 OA
ATOM     17  O   UNL     1      19.392   9.841  40.291  0.00  0.00    +0.000 OA
ENDBRANCH  12  15
ENDBRANCH   3   9
BRANCH   1  18
ATOM     18  C   UNL     1      13.710  13.884  33.619  0.00  0.00    +0.000 C 
BRANCH  18  20
ATOM     19  C   UNL     1      14.311  15.008  31.519  0.00  0.00    +0.000 C 
ATOM     20  C   UNL     1      13.336  14.030  32.181  0.00  0.00    +0.000 C 
ENDBRANCH  18  20
ENDBRANCH   1  18
TORSDOF 4
ENDMDL
MODEL 8
REMARK VINA RESULT:      -6.2      3.617      7.095
REMARK  Name = 
REMARK  4 active torsions:
REMARK  status: ('A' for Active; 'I' for Inactive)
REMARK    1  A    between atoms: C_2  and  C_3
REMARK    2  A    between atoms: C_3  and  C_4
REMARK    3  A    between atoms: N_6  and  C_7
REMARK    4  A    between atoms: C_10  and  N_11
REMARK                            x       y       z     vdW  Elec       q    Type
REMARK                         _______ _______ _______ _____ _____    ______ ____
ROOT
ATOM      1  C   UNL     1      20.540   9.799  38.131  0.00  0.00    +0.000 A 
ATOM      2  N   UNL     1      19.978  10.127  36.981  0.00  0.00    +0.000 NA
ATOM      3  N   UNL     1      18.637  10.130  37.058  0.00  0.00    +0.000 N 
ATOM      4  C   UNL     1      18.321   9.786  38.316  0.00  0.00    +0.000 A 
ATOM      5  C   UNL     1      19.507   9.570  39.016  0.00  0.00    +0.000 A 
ATOM      6  C   UNL     1      19.234   9.184  40.409  0.00  0.00    +0.000 C 
ATOM      7  C   UNL     1      17.753   9.555  40.557  0.00  0.00    +0.000 C 
ATOM      8  N   UNL     1      17.247   9.554  39.215  0.00  0.00    +0.000 NA
ENDROOT
BRANCH   3   9
ATOM      9  C   UNL     1      17.728  10.437  36.003  0.00  0.00    +0.000 A 
ATOM     10  C   UNL     1      16.606  11.244  36.189  0.00  0.00    +0.000 A 
ATOM     11  C   UNL     1      15.747  11.519  35.136  0.00  0.00    +0.000 A 
ATOM     12  C   UNL     1      15.958  11.020  33.888  0.00  0.00    +0.000 A 
ATOM     13  C   UNL     1      17.070  10.213  33.681  0.00  0.00    +0.000 A 
ATOM     14  C   UNL     1      17.923   9.943  34.737  0.00  0.00    +0.000 A 
BRANCH  12  15
ATOM     15  N   UNL     1      15.060  11.319  32.823  0.00  0.00    +0.000 N 
ATOM     16  O   UNL     1      14.759  12.520  32.655  0.00  0.00    +0.000 OA
ATOM     17  O   UNL     1      14.541  10.342  32.009  0.00  0.00    +0.000 OA
ENDBRANCH  12  15
ENDBRANCH   3   9
BRANCH   1  18
ATOM     18  C   UNL     1      22.019   9.719  38.337  0.00  0.00    +0.000 C 
BRANCH  18  20
ATOM     19  C   UNL     1      23.499   8.991  36.517  0.00  0.00    +0.000 C 
ATOM     20  C   UNL     1      22.786  10.191  37.147  0.00  0.00    +0.000 C 
ENDBRANCH  18  20
ENDBRANCH   1  18
TORSDOF 4
ENDMDL
MODEL 9
REMARK VINA RESULT:      -6.1      2.299      3.633
REMARK  Name = 
REMARK  4 active torsions:
REMARK  status: ('A' for Active; 'I' for Inactive)
REMARK    1  A    between atoms: C_2  and  C_3
REMARK    2  A    between atoms: C_3  and  C_4
REMARK    3  A    between atoms: N_6  and  C_7
REMARK    4  A    between atoms: C_10  and  N_11
REMARK                            x       y       z     vdW  Elec       q    Type
REMARK                         _______ _______ _______ _____ _____    ______ ____
ROOT
ATOM      1  C   UNL     1      14.769  12.604  34.728  0.00  0.00    +0.000 A 
ATOM      2  N   UNL     1      14.758  12.353  36.025  0.00  0.00    +0.000 NA
ATOM      3  N   UNL     1      15.563  11.327  36.347  0.00  0.00    +0.000 N 
ATOM      4  C   UNL     1      16.117  10.897  35.204  0.00  0.00    +0.000 A 
ATOM      5  C   UNL     1      15.632  11.688  34.163  0.00  0.00    +0.000 A 
ATOM      6  C   UNL     1      16.198  11.268  32.873  0.00  0.00    +0.000 C 
ATOM      7  C   UNL     1      17.363  10.372  33.313  0.00  0.00    +0.000 C 
ATOM      8  N   UNL     1      17.008   9.948  34.638  0.00  0.00    +0.000 NA
ENDROOT
BRANCH   3   9
ATOM      9  C   UNL     1      15.781  10.798  37.653  0.00  0.00    +0.000 A 
ATOM     10  C   UNL     1      17.026  10.332  38.077  0.00  0.00    +0.000 A 
ATOM     11  C   UNL     1      17.196   9.826  39.357  0.00  0.00    +0.000 A 
ATOM     12  C   UNL     1      16.168   9.763  40.247  0.00  0.00    +0.000 A 
ATOM     13  C   UNL     1      14.920  10.222  39.844  0.00  0.00    +0.000 A 
ATOM     14  C   UNL     1      14.758  10.725  38.565  0.00  0.00    +0.000 A 
BRANCH  12  15
ATOM     15  N   UNL     1      16.371   9.239  41.556  0.00  0.00    +0.000 N 
ATOM     16  O   UNL     1      16.425   7.996  41.669  0.00  0.00    +0.000 OA
ATOM     17  O   UNL     1      16.502  10.053  42.655  0.00  0.00    +0.000 OA
ENDBRANCH  12  15
ENDBRANCH   3   9
BRANCH   1  18
ATOM     18  C   UNL     1      13.969  13.694  34.088  0.00  0.00    +0.000 C 
BRANCH  18  20
ATOM     19  C   UNL     1      13.636  14.993  32.030  0.00  0.00    +0.000 C 
ATOM     20  C   UNL     1      13.988  13.615  32.598  0.00  0.00    +0.000 C 
ENDBRANCH  18  20
ENDBRANCH   1  18
TORSDOF 4
ENDMDL
MODEL 10
REMARK VINA RESULT:      -6.1     27.615     30.462
REMARK  Name = 
REMARK  4 active torsions:
REMARK  status: ('A' for Active; 'I' for Inactive)
REMARK    1  A    between atoms: C_2  and  C_3
REMARK    2  A    between atoms: C_3  and  C_4
REMARK    3  A    between atoms: N_6  and  C_7
REMARK    4  A    between atoms: C_10  and  N_11
REMARK                            x       y       z     vdW  Elec       q    Type
REMARK                         _______ _______ _______ _____ _____    ______ ____
ROOT
ATOM      1  C   UNL     1      33.627  20.588  10.169  0.00  0.00    +0.000 A 
ATOM      2  N   UNL     1      32.728  20.885  11.091  0.00  0.00    +0.000 NA
ATOM      3  N   UNL     1      31.684  21.557  10.579  0.00  0.00    +0.000 N 
ATOM      4  C   UNL     1      31.922  21.700   9.267  0.00  0.00    +0.000 A 
ATOM      5  C   UNL     1      33.146  21.097   8.981  0.00  0.00    +0.000 A 
ATOM      6  C   UNL     1      33.474  21.220   7.552  0.00  0.00    +0.000 C 
ATOM      7  C   UNL     1      32.127  21.645   6.952  0.00  0.00    +0.000 C 
ATOM      8  N   UNL     1      31.414  22.230   8.052  0.00  0.00    +0.000 NA
ENDROOT
BRANCH   3   9
ATOM      9  C   UNL     1      30.544  22.028  11.296  0.00  0.00    +0.000 A 
ATOM     10  C   UNL     1      30.646  22.693  12.517  0.00  0.00    +0.000 A 
ATOM     11  C   UNL     1      29.513  23.136  13.181  0.00  0.00    +0.000 A 
ATOM     12  C   UNL     1      28.263  22.944  12.676  0.00  0.00    +0.000 A 
ATOM     13  C   UNL     1      28.140  22.283  11.461  0.00  0.00    +0.000 A 
ATOM     14  C   UNL     1      29.276  21.843  10.804  0.00  0.00    +0.000 A 
BRANCH  12  15
ATOM     15  N   UNL     1      27.115  23.410  13.378  0.00  0.00    +0.000 N 
ATOM     16  O   UNL     1      26.084  22.708  13.311  0.00  0.00    +0.000 OA
ATOM     17  O   UNL     1      27.127  24.578  14.102  0.00  0.00    +0.000 OA
ENDBRANCH  12  15
ENDBRANCH   3   9
BRANCH   1  18
ATOM     18  C   UNL     1      34.890  19.840  10.454  0.00  0.00    +0.000 C 
BRANCH  18  20
ATOM     19  C   UNL     1      35.666  19.311  12.725  0.00  0.00    +0.000 C 
ATOM     20  C   UNL     1      35.622  20.387  11.635  0.00  0.00    +0.000 C 
ENDBRANCH  18  20
ENDBRANCH   1  18
TORSDOF 4
ENDMDL
