MODEL 1
REMARK VINA RESULT:      -5.9      0.000      0.000
REMARK  Name = 
REMARK  4 active torsions:
REMARK  status: ('A' for Active; 'I' for Inactive)
REMARK    1  A    between atoms: N_2  and  C_5
REMARK    2  A    between atoms: C_9  and  O_10
REMARK    3  A    between atoms: O_10  and  C_11
REMARK    4  A    between atoms: C_11  and  C_13
REMARK                            x       y       z     vdW  Elec       q    Type
REMARK                         _______ _______ _______ _____ _____    ______ ____
ROOT
ATOM      1  C   UNL     1      29.469  27.548  20.202  0.00  0.00    +0.000 A 
ATOM      2  C   UNL     1      29.171  28.309  21.299  0.00  0.00    +0.000 A 
ATOM      3  C   UNL     1      28.980  27.710  22.506  0.00  0.00    +0.000 A 
ATOM      4  C   UNL     1      29.085  26.348  22.626  0.00  0.00    +0.000 A 
ATOM      5  C   UNL     1      29.383  25.574  21.532  0.00  0.00    +0.000 A 
ATOM      6  C   UNL     1      29.574  26.182  20.320  0.00  0.00    +0.000 A 
ENDROOT
BRANCH   1   8
ATOM      7  C   UNL     1      30.652  29.196  19.084  0.00  0.00    +0.000 C 
ATOM      8  N   UNL     1      29.681  28.124  18.902  0.00  0.00    +0.000 NA
ATOM      9  C   UNL     1      30.209  27.170  17.972  0.00  0.00    +0.000 C 
ATOM     10  C   UNL     1      28.407  28.658  18.401  0.00  0.00    +0.000 C 
ENDBRANCH   1   8
BRANCH   5  11
ATOM     11  O   UNL     1      29.477  24.207  21.707  0.00  0.00    +0.000 OA
BRANCH  11  12
ATOM     12  C   UNL     1      28.710  23.512  22.633  0.00  0.00    +0.000 C 
ATOM     13  O   UNL     1      27.547  23.183  22.255  0.00  0.00    +0.000 OA
BRANCH  12  14
ATOM     14  C   UNL     1      29.206  23.177  23.966  0.00  0.00    +0.000 A 
ATOM     15  C   UNL     1      28.305  22.939  24.964  0.00  0.00    +0.000 A 
ATOM     16  C   UNL     1      28.744  22.617  26.244  0.00  0.00    +0.000 A 
ATOM     17  C   UNL     1      30.088  22.529  26.537  0.00  0.00    +0.000 A 
ATOM     18  N   UNL     1      30.559  22.198  27.850  0.00  0.00    +0.000 NA
ATOM     19  C   UNL     1      30.976  22.772  25.515  0.00  0.00    +0.000 A 
ATOM     20  C   UNL     1      30.559  23.097  24.221  0.00  0.00    +0.000 A 
ENDBRANCH  12  14
ENDBRANCH  11  12
ENDBRANCH   5  11
TORSDOF 4
ENDMDL
MODEL 2
REMARK VINA RESULT:      -5.9      3.977      7.439
REMARK  Name = 
REMARK  4 active torsions:
REMARK  status: ('A' for Active; 'I' for Inactive)
REMARK    1  A    between atoms: N_2  and  C_5
REMARK    2  A    between atoms: C_9  and  O_10
REMARK    3  A    between atoms: O_10  and  C_11
REMARK    4  A    between atoms: C_11  and  C_13
REMARK                            x       y       z     vdW  Elec       q    Type
REMARK                         _______ _______ _______ _____ _____    ______ ____
ROOT
ATOM      1  C   UNL     1      26.487  23.671  28.612  0.00  0.00    +0.000 A 
ATOM      2  C   UNL     1      25.584  24.699  28.598  0.00  0.00    +0.000 A 
ATOM      3  C   UNL     1      25.032  25.099  27.421  0.00  0.00    +0.000 A 
ATOM      4  C   UNL     1      25.376  24.476  26.249  0.00  0.00    +0.000 A 
ATOM      5  C   UNL     1      26.280  23.443  26.250  0.00  0.00    +0.000 A 
ATOM      6  C   UNL     1      26.833  23.045  27.437  0.00  0.00    +0.000 A 
ENDROOT
BRANCH   1   8
ATOM      7  C   UNL     1      26.703  24.141  30.870  0.00  0.00    +0.000 C 
ATOM      8  N   UNL     1      27.103  23.206  29.824  0.00  0.00    +0.000 NA
ATOM      9  C   UNL     1      26.659  21.891  30.181  0.00  0.00    +0.000 C 
ATOM     10  C   UNL     1      28.561  23.212  29.653  0.00  0.00    +0.000 C 
ENDBRANCH   1   8
BRANCH   5  11
ATOM     11  O   UNL     1      26.593  22.850  25.042  0.00  0.00    +0.000 OA
BRANCH  11  12
ATOM     12  C   UNL     1      27.377  23.471  24.078  0.00  0.00    +0.000 C 
ATOM     13  O   UNL     1      26.770  23.860  23.037  0.00  0.00    +0.000 OA
BRANCH  12  14
ATOM     14  C   UNL     1      28.814  23.669  24.246  0.00  0.00    +0.000 A 
ATOM     15  C   UNL     1      29.597  22.591  24.547  0.00  0.00    +0.000 A 
ATOM     16  C   UNL     1      30.969  22.746  24.713  0.00  0.00    +0.000 A 
ATOM     17  C   UNL     1      31.571  23.979  24.580  0.00  0.00    +0.000 A 
ATOM     18  N   UNL     1      32.984  24.157  24.748  0.00  0.00    +0.000 NA
ATOM     19  C   UNL     1      30.761  25.048  24.276  0.00  0.00    +0.000 A 
ATOM     20  C   UNL     1      29.380  24.918  24.105  0.00  0.00    +0.000 A 
ENDBRANCH  12  14
ENDBRANCH  11  12
ENDBRANCH   5  11
TORSDOF 4
ENDMDL
MODEL 3
REMARK VINA RESULT:      -5.9     22.167     24.098
REMARK  Name = 
REMARK  4 active torsions:
REMARK  status: ('A' for Active; 'I' for Inactive)
REMARK    1  A    between atoms: N_2  and  C_5
REMARK    2  A    between atoms: C_9  and  O_10
REMARK    3  A    between atoms: O_10  and  C_11
REMARK    4  A    between atoms: C_11  and  C_13
REMARK                            x       y       z     vdW  Elec       q    Type
REMARK                         _______ _______ _______ _____ _____    ______ ____
ROOT
ATOM      1  C   UNL     1      19.658  10.980  39.043  0.00  0.00    +0.000 A 
ATOM      2  C   UNL     1      19.564  10.099  40.085  0.00  0.00    +0.000 A 
ATOM      3  C   UNL     1      18.412   9.402  40.281  0.00  0.00    +0.000 A 
ATOM      4  C   UNL     1      17.346   9.579  39.437  0.00  0.00    +0.000 A 
ATOM      5  C   UNL     1      17.427  10.460  38.388  0.00  0.00    +0.000 A 
ATOM      6  C   UNL     1      18.589  11.159  38.196  0.00  0.00    +0.000 A 
ENDROOT
BRANCH   1   8
ATOM      7  C   UNL     1      21.627  10.975  37.823  0.00  0.00    +0.000 C 
ATOM      8  N   UNL     1      20.848  11.743  38.787  0.00  0.00    +0.000 NA
ATOM      9  C   UNL     1      20.551  13.029  38.227  0.00  0.00    +0.000 C 
ATOM     10  C   UNL     1      21.592  11.906  40.043  0.00  0.00    +0.000 C 
ENDBRANCH   1   8
BRANCH   5  11
ATOM     11  O   UNL     1      16.324  10.602  37.568  0.00  0.00    +0.000 OA
BRANCH  11  12
ATOM     12  C   UNL     1      16.169  11.668  36.693  0.00  0.00    +0.000 C 
ATOM     13  O   UNL     1      16.100  12.816  37.224  0.00  0.00    +0.000 OA
BRANCH  12  14
ATOM     14  C   UNL     1      16.088  11.488  35.246  0.00  0.00    +0.000 A 
ATOM     15  C   UNL     1      16.997  10.674  34.631  0.00  0.00    +0.000 A 
ATOM     16  C   UNL     1      16.948  10.481  33.255  0.00  0.00    +0.000 A 
ATOM     17  C   UNL     1      15.989  11.098  32.480  0.00  0.00    +0.000 A 
ATOM     18  N   UNL     1      15.923  10.911  31.060  0.00  0.00    +0.000 NA
ATOM     19  C   UNL     1      15.085  11.912  33.122  0.00  0.00    +0.000 A 
ATOM     20  C   UNL     1      15.114  12.122  34.504  0.00  0.00    +0.000 A 
ENDBRANCH  12  14
ENDBRANCH  11  12
ENDBRANCH   5  11
TORSDOF 4
ENDMDL
MODEL 4
REMARK VINA RESULT:      -5.9      3.535      7.842
REMARK  Name = 
REMARK  4 active torsions:
REMARK  status: ('A' for Active; 'I' for Inactive)
REMARK    1  A    between atoms: N_2  and  C_5
REMARK    2  A    between atoms: C_9  and  O_10
REMARK    3  A    between atoms: O_10  and  C_11
REMARK    4  A    between atoms: C_11  and  C_13
REMARK                            x       y       z     vdW  Elec       q    Type
REMARK                         _______ _______ _______ _____ _____    ______ ____
ROOT
ATOM      1  C   UNL     1      29.977  22.975  29.093  0.00  0.00    +0.000 A 
ATOM      2  C   UNL     1      29.186  22.966  30.209  0.00  0.00    +0.000 A 
ATOM      3  C   UNL     1      27.871  22.634  30.104  0.00  0.00    +0.000 A 
ATOM      4  C   UNL     1      27.336  22.308  28.883  0.00  0.00    +0.000 A 
ATOM      5  C   UNL     1      28.119  22.314  27.757  0.00  0.00    +0.000 A 
ATOM      6  C   UNL     1      29.442  22.649  27.868  0.00  0.00    +0.000 A 
ENDROOT
BRANCH   1   8
ATOM      7  C   UNL     1      31.442  24.666  29.693  0.00  0.00    +0.000 C 
ATOM      8  N   UNL     1      31.372  23.318  29.142  0.00  0.00    +0.000 NA
ATOM      9  C   UNL     1      32.113  22.430  29.989  0.00  0.00    +0.000 C 
ATOM     10  C   UNL     1      31.922  23.285  27.781  0.00  0.00    +0.000 C 
ENDBRANCH   1   8
BRANCH   5  11
ATOM     11  O   UNL     1      27.531  21.978  26.552  0.00  0.00    +0.000 OA
BRANCH  11  12
ATOM     12  C   UNL     1      26.980  22.922  25.695  0.00  0.00    +0.000 C 
ATOM     13  O   UNL     1      25.872  23.418  26.056  0.00  0.00    +0.000 OA
BRANCH  12  14
ATOM     14  C   UNL     1      27.630  23.324  24.451  0.00  0.00    +0.000 A 
ATOM     15  C   UNL     1      28.987  23.482  24.438  0.00  0.00    +0.000 A 
ATOM     16  C   UNL     1      29.637  23.864  23.269  0.00  0.00    +0.000 A 
ATOM     17  C   UNL     1      28.938  24.091  22.103  0.00  0.00    +0.000 A 
ATOM     18  N   UNL     1      29.591  24.486  20.889  0.00  0.00    +0.000 NA
ATOM     19  C   UNL     1      27.573  23.925  22.142  0.00  0.00    +0.000 A 
ATOM     20  C   UNL     1      26.897  23.542  23.304  0.00  0.00    +0.000 A 
ENDBRANCH  12  14
ENDBRANCH  11  12
ENDBRANCH   5  11
TORSDOF 4
ENDMDL
MODEL 5
REMARK VINA RESULT:      -5.8     21.404     23.473
REMARK  Name = 
REMARK  4 active torsions:
REMARK  status: ('A' for Active; 'I' for Inactive)
REMARK    1  A    between atoms: N_2  and  C_5
REMARK    2  A    between atoms: C_9  and  O_10
REMARK    3  A    between atoms: O_10  and  C_11
REMARK    4  A    between atoms: C_11  and  C_13
REMARK                            x       y       z     vdW  Elec       q    Type
REMARK                         _______ _______ _______ _____ _____    ______ ____
ROOT
ATOM      1  C   UNL     1      21.888  11.706  38.020  0.00  0.00    +0.000 A 
ATOM      2  C   UNL     1      22.836  11.070  37.266  0.00  0.00    +0.000 A 
ATOM      3  C   UNL     1      22.487  10.000  36.502  0.00  0.00    +0.000 A 
ATOM      4  C   UNL     1      21.189   9.558  36.484  0.00  0.00    +0.000 A 
ATOM      5  C   UNL     1      20.229  10.187  37.236  0.00  0.00    +0.000 A 
ATOM      6  C   UNL     1      20.586  11.263  38.004  0.00  0.00    +0.000 A 
ENDROOT
BRANCH   1   8
ATOM      7  C   UNL     1      22.297  12.336  40.212  0.00  0.00    +0.000 C 
ATOM      8  N   UNL     1      22.198  12.840  38.847  0.00  0.00    +0.000 NA
ATOM      9  C   UNL     1      23.445  13.446  38.483  0.00  0.00    +0.000 C 
ATOM     10  C   UNL     1      21.113  13.824  38.735  0.00  0.00    +0.000 C 
ENDBRANCH   1   8
BRANCH   5  11
ATOM     11  O   UNL     1      18.937   9.702  37.182  0.00  0.00    +0.000 OA
BRANCH  11  12
ATOM     12  C   UNL     1      18.083   9.949  36.116  0.00  0.00    +0.000 C 
ATOM     13  O   UNL     1      18.471   9.531  34.985  0.00  0.00    +0.000 OA
BRANCH  12  14
ATOM     14  C   UNL     1      16.812  10.650  36.277  0.00  0.00    +0.000 A 
ATOM     15  C   UNL     1      16.222  11.208  35.179  0.00  0.00    +0.000 A 
ATOM     16  C   UNL     1      15.012  11.882  35.299  0.00  0.00    +0.000 A 
ATOM     17  C   UNL     1      14.379  12.004  36.518  0.00  0.00    +0.000 A 
ATOM     18  N   UNL     1      13.130  12.695  36.661  0.00  0.00    +0.000 NA
ATOM     19  C   UNL     1      14.992  11.433  37.609  0.00  0.00    +0.000 A 
ATOM     20  C   UNL     1      16.208  10.751  37.513  0.00  0.00    +0.000 A 
ENDBRANCH  12  14
ENDBRANCH  11  12
ENDBRANCH   5  11
TORSDOF 4
ENDMDL
MODEL 6
REMARK VINA RESULT:      -5.8      4.346      6.545
REMARK  Name = 
REMARK  4 active torsions:
REMARK  status: ('A' for Active; 'I' for Inactive)
REMARK    1  A    between atoms: N_2  and  C_5
REMARK    2  A    between atoms: C_9  and  O_10
REMARK    3  A    between atoms: O_10  and  C_11
REMARK    4  A    between atoms: C_11  and  C_13
REMARK                            x       y       z     vdW  Elec       q    Type
REMARK                         _______ _______ _______ _____ _____    ______ ____
ROOT
ATOM      1  C   UNL     1      24.533  26.310  26.545  0.00  0.00    +0.000 A 
ATOM      2  C   UNL     1      24.643  26.365  27.908  0.00  0.00    +0.000 A 
ATOM      3  C   UNL     1      25.210  25.328  28.583  0.00  0.00    +0.000 A 
ATOM      4  C   UNL     1      25.671  24.230  27.904  0.00  0.00    +0.000 A 
ATOM      5  C   UNL     1      25.566  24.163  26.537  0.00  0.00    +0.000 A 
ATOM      6  C   UNL     1      24.995  25.208  25.862  0.00  0.00    +0.000 A 
ENDROOT
BRANCH   1   8
ATOM      7  C   UNL     1      24.901  27.696  24.727  0.00  0.00    +0.000 C 
ATOM      8  N   UNL     1      23.944  27.373  25.778  0.00  0.00    +0.000 NA
ATOM      9  C   UNL     1      22.705  26.977  25.175  0.00  0.00    +0.000 C 
ATOM     10  C   UNL     1      23.725  28.531  26.655  0.00  0.00    +0.000 C 
ENDBRANCH   1   8
BRANCH   5  11
ATOM     11  O   UNL     1      26.046  23.034  25.901  0.00  0.00    +0.000 OA
BRANCH  11  12
ATOM     12  C   UNL     1      27.389  22.854  25.598  0.00  0.00    +0.000 C 
ATOM     13  O   UNL     1      28.076  22.236  26.464  0.00  0.00    +0.000 OA
BRANCH  12  14
ATOM     14  C   UNL     1      27.984  23.345  24.358  0.00  0.00    +0.000 A 
ATOM     15  C   UNL     1      27.190  23.481  23.254  0.00  0.00    +0.000 A 
ATOM     16  C   UNL     1      27.726  23.946  22.058  0.00  0.00    +0.000 A 
ATOM     17  C   UNL     1      29.059  24.280  21.953  0.00  0.00    +0.000 A 
ATOM     18  N   UNL     1      29.628  24.761  20.728  0.00  0.00    +0.000 NA
ATOM     19  C   UNL     1      29.837  24.135  23.078  0.00  0.00    +0.000 A 
ATOM     20  C   UNL     1      29.323  23.669  24.291  0.00  0.00    +0.000 A 
ENDBRANCH  12  14
ENDBRANCH  11  12
ENDBRANCH   5  11
TORSDOF 4
ENDMDL
MODEL 7
REMARK VINA RESULT:      -5.7      2.994      7.810
REMARK  Name = 
REMARK  4 active torsions:
REMARK  status: ('A' for Active; 'I' for Inactive)
REMARK    1  A    between atoms: N_2  and  C_5
REMARK    2  A    between atoms: C_9  and  O_10
REMARK    3  A    between atoms: O_10  and  C_11
REMARK    4  A    between atoms: C_11  and  C_13
REMARK                            x       y       z     vdW  Elec       q    Type
REMARK                         _______ _______ _______ _____ _____    ______ ____
ROOT
ATOM      1  C   UNL     1      28.608  22.905  28.701  0.00  0.00    +0.000 A 
ATOM      2  C   UNL     1      29.701  22.963  29.522  0.00  0.00    +0.000 A 
ATOM      3  C   UNL     1      30.936  22.682  29.025  0.00  0.00    +0.000 A 
ATOM      4  C   UNL     1      31.089  22.342  27.705  0.00  0.00    +0.000 A 
ATOM      5  C   UNL     1      30.000  22.281  26.872  0.00  0.00    +0.000 A 
ATOM      6  C   UNL     1      28.760  22.564  27.377  0.00  0.00    +0.000 A 
ENDROOT
BRANCH   1   8
ATOM      7  C   UNL     1      27.383  24.397  29.981  0.00  0.00    +0.000 C 
ATOM      8  N   UNL     1      27.279  23.191  29.169  0.00  0.00    +0.000 NA
ATOM      9  C   UNL     1      26.370  23.433  28.088  0.00  0.00    +0.000 C 
ATOM     10  C   UNL     1      26.804  22.061  29.978  0.00  0.00    +0.000 C 
ENDBRANCH   1   8
BRANCH   5  11
ATOM     11  O   UNL     1      30.209  21.932  25.551  0.00  0.00    +0.000 OA
BRANCH  11  12
ATOM     12  C   UNL     1      30.663  22.834  24.597  0.00  0.00    +0.000 C 
ATOM     13  O   UNL     1      31.921  22.944  24.493  0.00  0.00    +0.000 OA
BRANCH  12  14
ATOM     14  C   UNL     1      29.754  23.613  23.761  0.00  0.00    +0.000 A 
ATOM     15  C   UNL     1      30.126  24.869  23.375  0.00  0.00    +0.000 A 
ATOM     16  C   UNL     1      29.283  25.637  22.579  0.00  0.00    +0.000 A 
ATOM     17  C   UNL     1      28.061  25.155  22.159  0.00  0.00    +0.000 A 
ATOM     18  N   UNL     1      27.179  25.932  21.338  0.00  0.00    +0.000 NA
ATOM     19  C   UNL     1      27.710  23.887  22.560  0.00  0.00    +0.000 A 
ATOM     20  C   UNL     1      28.539  23.097  23.361  0.00  0.00    +0.000 A 
ENDBRANCH  12  14
ENDBRANCH  11  12
ENDBRANCH   5  11
TORSDOF 4
ENDMDL
MODEL 8
REMARK VINA RESULT:      -5.7      2.947      7.920
REMARK  Name = 
REMARK  4 active torsions:
REMARK  status: ('A' for Active; 'I' for Inactive)
REMARK    1  A    between atoms: N_2  and  C_5
REMARK    2  A    between atoms: C_9  and  O_10
REMARK    3  A    between atoms: O_10  and  C_11
REMARK    4  A    between atoms: C_11  and  C_13
REMARK                            x       y       z     vdW  Elec       q    Type
REMARK                         _______ _______ _______ _____ _____    ______ ____
ROOT
ATOM      1  C   UNL     1      26.589  23.525  28.543  0.00  0.00    +0.000 A 
ATOM      2  C   UNL     1      25.552  24.414  28.468  0.00  0.00    +0.000 A 
ATOM      3  C   UNL     1      25.059  24.779  27.254  0.00  0.00    +0.000 A 
ATOM      4  C   UNL     1      25.597  24.258  26.105  0.00  0.00    +0.000 A 
ATOM      5  C   UNL     1      26.638  23.365  26.166  0.00  0.00    +0.000 A 
ATOM      6  C   UNL     1      27.130  23.002  27.391  0.00  0.00    +0.000 A 
ENDROOT
BRANCH   1   8
ATOM      7  C   UNL     1      26.672  24.050  30.797  0.00  0.00    +0.000 C 
ATOM      8  N   UNL     1      27.151  23.104  29.796  0.00  0.00    +0.000 NA
ATOM      9  C   UNL     1      26.725  21.785  30.160  0.00  0.00    +0.000 C 
ATOM     10  C   UNL     1      28.617  23.146  29.702  0.00  0.00    +0.000 C 
ENDBRANCH   1   8
BRANCH   5  11
ATOM     11  O   UNL     1      27.144  22.871  24.980  0.00  0.00    +0.000 OA
BRANCH  11  12
ATOM     12  C   UNL     1      26.714  23.313  23.735  0.00  0.00    +0.000 C 
ATOM     13  O   UNL     1      25.609  22.843  23.332  0.00  0.00    +0.000 OA
BRANCH  12  14
ATOM     14  C   UNL     1      27.481  24.262  22.934  0.00  0.00    +0.000 A 
ATOM     15  C   UNL     1      27.153  25.587  22.987  0.00  0.00    +0.000 A 
ATOM     16  C   UNL     1      27.864  26.517  22.236  0.00  0.00    +0.000 A 
ATOM     17  C   UNL     1      28.910  26.131  21.425  0.00  0.00    +0.000 A 
ATOM     18  N   UNL     1      29.654  27.075  20.643  0.00  0.00    +0.000 NA
ATOM     19  C   UNL     1      29.221  24.792  21.389  0.00  0.00    +0.000 A 
ATOM     20  C   UNL     1      28.521  23.839  22.134  0.00  0.00    +0.000 A 
ENDBRANCH  12  14
ENDBRANCH  11  12
ENDBRANCH   5  11
TORSDOF 4
ENDMDL
MODEL 9
REMARK VINA RESULT:      -5.6     22.250     24.333
REMARK  Name = 
REMARK  4 active torsions:
REMARK  status: ('A' for Active; 'I' for Inactive)
REMARK    1  A    between atoms: N_2  and  C_5
REMARK    2  A    between atoms: C_9  and  O_10
REMARK    3  A    between atoms: O_10  and  C_11
REMARK    4  A    between atoms: C_11  and  C_13
REMARK                            x       y       z     vdW  Elec       q    Type
REMARK                         _______ _______ _______ _____ _____    ______ ____
ROOT
ATOM      1  C   UNL     1      20.084  11.120  39.036  0.00  0.00    +0.000 A 
ATOM      2  C   UNL     1      19.867  10.432  40.199  0.00  0.00    +0.000 A 
ATOM      3  C   UNL     1      19.016   9.370  40.208  0.00  0.00    +0.000 A 
ATOM      4  C   UNL     1      18.376   8.987  39.057  0.00  0.00    +0.000 A 
ATOM      5  C   UNL     1      18.586   9.669  37.885  0.00  0.00    +0.000 A 
ATOM      6  C   UNL     1      19.443  10.737  37.881  0.00  0.00    +0.000 A 
ENDROOT
BRANCH   1   8
ATOM      7  C   UNL     1      22.068  11.852  38.091  0.00  0.00    +0.000 C 
ATOM      8  N   UNL     1      20.971  12.248  38.966  0.00  0.00    +0.000 NA
ATOM      9  C   UNL     1      20.327  13.403  38.411  0.00  0.00    +0.000 C 
ATOM     10  C   UNL     1      21.466  12.553  40.314  0.00  0.00    +0.000 C 
ENDBRANCH   1   8
BRANCH   5  11
ATOM     11  O   UNL     1      17.916   9.243  36.754  0.00  0.00    +0.000 OA
BRANCH  11  12
ATOM     12  C   UNL     1      17.483  10.113  35.762  0.00  0.00    +0.000 C 
ATOM     13  O   UNL     1      18.203  10.172  34.722  0.00  0.00    +0.000 OA
BRANCH  12  14
ATOM     14  C   UNL     1      16.272  10.917  35.901  0.00  0.00    +0.000 A 
ATOM     15  C   UNL     1      15.647  10.964  37.115  0.00  0.00    +0.000 A 
ATOM     16  C   UNL     1      14.492  11.720  37.281  0.00  0.00    +0.000 A 
ATOM     17  C   UNL     1      13.950  12.437  36.236  0.00  0.00    +0.000 A 
ATOM     18  N   UNL     1      12.760  13.222  36.388  0.00  0.00    +0.000 NA
ATOM     19  C   UNL     1      14.598  12.375  35.024  0.00  0.00    +0.000 A 
ATOM     20  C   UNL     1      15.760  11.622  34.832  0.00  0.00    +0.000 A 
ENDBRANCH  12  14
ENDBRANCH  11  12
ENDBRANCH   5  11
TORSDOF 4
ENDMDL
MODEL 10
REMARK VINA RESULT:      -5.6      4.033      6.551
REMARK  Name = 
REMARK  4 active torsions:
REMARK  status: ('A' for Active; 'I' for Inactive)
REMARK    1  A    between atoms: N_2  and  C_5
REMARK    2  A    between atoms: C_9  and  O_10
REMARK    3  A    between atoms: O_10  and  C_11
REMARK    4  A    between atoms: C_11  and  C_13
REMARK                            x       y       z     vdW  Elec       q    Type
REMARK                         _______ _______ _______ _____ _____    ______ ____
ROOT
ATOM      1  C   UNL     1      24.757  25.458  27.129  0.00  0.00    +0.000 A 
ATOM      2  C   UNL     1      25.242  25.289  28.397  0.00  0.00    +0.000 A 
ATOM      3  C   UNL     1      26.092  24.260  28.665  0.00  0.00    +0.000 A 
ATOM      4  C   UNL     1      26.464  23.394  27.669  0.00  0.00    +0.000 A 
ATOM      5  C   UNL     1      25.985  23.554  26.393  0.00  0.00    +0.000 A 
ATOM      6  C   UNL     1      25.130  24.590  26.129  0.00  0.00    +0.000 A 
ENDROOT
BRANCH   1   8
ATOM      7  C   UNL     1      23.771  26.534  25.331  0.00  0.00    +0.000 C 
ATOM      8  N   UNL     1      23.857  26.525  26.786  0.00  0.00    +0.000 NA
ATOM      9  C   UNL     1      22.547  26.317  27.329  0.00  0.00    +0.000 C 
ATOM     10  C   UNL     1      24.407  27.793  27.282  0.00  0.00    +0.000 C 
ENDBRANCH   1   8
BRANCH   5  11
ATOM     11  O   UNL     1      26.391  22.653  25.427  0.00  0.00    +0.000 OA
BRANCH  11  12
ATOM     12  C   UNL     1      27.154  23.022  24.327  0.00  0.00    +0.000 C 
ATOM     13  O   UNL     1      26.525  23.157  23.236  0.00  0.00    +0.000 OA
BRANCH  12  14
ATOM     14  C   UNL     1      28.595  23.244  24.413  0.00  0.00    +0.000 A 
ATOM     15  C   UNL     1      29.167  24.182  23.602  0.00  0.00    +0.000 A 
ATOM     16  C   UNL     1      30.537  24.417  23.659  0.00  0.00    +0.000 A 
ATOM     17  C   UNL     1      31.347  23.717  24.528  0.00  0.00    +0.000 A 
ATOM     18  N   UNL     1      32.760  23.946  24.601  0.00  0.00    +0.000 NA
ATOM     19  C   UNL     1      30.747  22.778  25.334  0.00  0.00    +0.000 A 
ATOM     20  C   UNL     1      29.373  22.524  25.295  0.00  0.00    +0.000 A 
ENDBRANCH  12  14
ENDBRANCH  11  12
ENDBRANCH   5  11
TORSDOF 4
ENDMDL
