MODEL 1
REMARK VINA RESULT:      -7.3      0.000      0.000
REMARK  Name = 
REMARK  2 active torsions:
REMARK  status: ('A' for Active; 'I' for Inactive)
REMARK    1  A    between atoms: N_13  and  C_14
REMARK    2  A    between atoms: C_17  and  O_18
REMARK                            x       y       z     vdW  Elec       q    Type
REMARK                         _______ _______ _______ _____ _____    ______ ____
ROOT
ATOM      1  C   UNL     1      18.219   9.568  35.069  0.00  0.00    +0.000 C 
ATOM      2  C   UNL     1      17.288  10.492  35.114  0.00  0.00    +0.000 C 
ATOM      3  C   UNL     1      16.590  10.841  33.888  0.00  0.00    +0.000 A 
ATOM      4  C   UNL     1      16.843  10.245  32.666  0.00  0.00    +0.000 A 
ATOM      5  C   UNL     1      16.146  10.617  31.538  0.00  0.00    +0.000 A 
ATOM      6  C   UNL     1      15.178  11.590  31.592  0.00  0.00    +0.000 A 
ATOM      7  C   UNL     1      14.435  11.979  30.384  0.00  0.00    +0.000 C 
ATOM      8  C   UNL     1      14.939  12.173  32.816  0.00  0.00    +0.000 A 
ATOM      9  C   UNL     1      15.623  11.815  33.950  0.00  0.00    +0.000 A 
ATOM     10  N   UNL     1      15.331  12.456  35.209  0.00  0.00    +0.000 NA
ATOM     11  C   UNL     1      16.009  12.122  36.408  0.00  0.00    +0.000 C 
ATOM     12  O   UNL     1      15.734  12.700  37.510  0.00  0.00    +0.000 OA
ATOM     13  N   UNL     1      17.010  11.117  36.364  0.00  0.00    +0.000 N 
ENDROOT
BRANCH  13  14
ATOM     14  C   UNL     1      17.678  10.785  37.577  0.00  0.00    +0.000 A 
ATOM     15  C   UNL     1      17.206   9.891  38.501  0.00  0.00    +0.000 A 
ATOM     16  C   UNL     1      17.975   9.681  39.636  0.00  0.00    +0.000 A 
ATOM     17  C   UNL     1      19.162  10.325  39.852  0.00  0.00    +0.000 A 
ATOM     18  C   UNL     1      19.622  11.231  38.897  0.00  0.00    +0.000 A 
ATOM     19  C   UNL     1      18.886  11.456  37.774  0.00  0.00    +0.000 A 
BRANCH  17  20
ATOM     20  O   UNL     1      19.866  10.053  41.020  0.00  0.00    +0.000 OA
ATOM     21  C   UNL     1      19.470   8.992  41.872  0.00  0.00    +0.000 C 
ENDBRANCH  17  20
ENDBRANCH  13  14
TORSDOF 2
ENDMDL
MODEL 2
REMARK VINA RESULT:      -7.2      1.427      2.170
REMARK  Name = 
REMARK  2 active torsions:
REMARK  status: ('A' for Active; 'I' for Inactive)
REMARK    1  A    between atoms: N_13  and  C_14
REMARK    2  A    between atoms: C_17  and  O_18
REMARK                            x       y       z     vdW  Elec       q    Type
REMARK                         _______ _______ _______ _____ _____    ______ ____
ROOT
ATOM      1  C   UNL     1      15.820  12.372  36.918  0.00  0.00    +0.000 C 
ATOM      2  C   UNL     1      16.345  11.667  35.944  0.00  0.00    +0.000 C 
ATOM      3  C   UNL     1      15.833  11.849  34.596  0.00  0.00    +0.000 A 
ATOM      4  C   UNL     1      14.822  12.736  34.272  0.00  0.00    +0.000 A 
ATOM      5  C   UNL     1      14.380  12.865  32.975  0.00  0.00    +0.000 A 
ATOM      6  C   UNL     1      14.931  12.118  31.962  0.00  0.00    +0.000 A 
ATOM      7  C   UNL     1      14.457  12.266  30.577  0.00  0.00    +0.000 C 
ATOM      8  C   UNL     1      15.936  11.241  32.300  0.00  0.00    +0.000 A 
ATOM      9  C   UNL     1      16.388  11.099  33.588  0.00  0.00    +0.000 A 
ATOM     10  N   UNL     1      17.446  10.165  33.888  0.00  0.00    +0.000 NA
ATOM     11  C   UNL     1      17.949   9.982  35.201  0.00  0.00    +0.000 C 
ATOM     12  O   UNL     1      18.885   9.153  35.443  0.00  0.00    +0.000 OA
ATOM     13  N   UNL     1      17.389  10.749  36.255  0.00  0.00    +0.000 N 
ENDROOT
BRANCH  13  14
ATOM     14  C   UNL     1      17.908  10.561  37.568  0.00  0.00    +0.000 A 
ATOM     15  C   UNL     1      17.343   9.748  38.514  0.00  0.00    +0.000 A 
ATOM     16  C   UNL     1      17.971   9.675  39.749  0.00  0.00    +0.000 A 
ATOM     17  C   UNL     1      19.108  10.376  40.040  0.00  0.00    +0.000 A 
ATOM     18  C   UNL     1      19.664  11.198  39.061  0.00  0.00    +0.000 A 
ATOM     19  C   UNL     1      19.068  11.287  37.840  0.00  0.00    +0.000 A 
BRANCH  17  20
ATOM     20  O   UNL     1      19.668  10.243  41.306  0.00  0.00    +0.000 OA
ATOM     21  C   UNL     1      18.949   9.611  42.352  0.00  0.00    +0.000 C 
ENDBRANCH  17  20
ENDBRANCH  13  14
TORSDOF 2
ENDMDL
MODEL 3
REMARK VINA RESULT:      -6.6     18.317     19.935
REMARK  Name = 
REMARK  2 active torsions:
REMARK  status: ('A' for Active; 'I' for Inactive)
REMARK    1  A    between atoms: N_13  and  C_14
REMARK    2  A    between atoms: C_17  and  O_18
REMARK                            x       y       z     vdW  Elec       q    Type
REMARK                         _______ _______ _______ _____ _____    ______ ____
ROOT
ATOM      1  C   UNL     1      33.931   1.310  37.235  0.00  0.00    +0.000 C 
ATOM      2  C   UNL     1      33.897   1.914  36.070  0.00  0.00    +0.000 C 
ATOM      3  C   UNL     1      34.012   3.362  36.031  0.00  0.00    +0.000 A 
ATOM      4  C   UNL     1      34.168   4.150  37.157  0.00  0.00    +0.000 A 
ATOM      5  C   UNL     1      34.274   5.519  37.056  0.00  0.00    +0.000 A 
ATOM      6  C   UNL     1      34.230   6.144  35.833  0.00  0.00    +0.000 A 
ATOM      7  C   UNL     1      34.349   7.607  35.733  0.00  0.00    +0.000 C 
ATOM      8  C   UNL     1      34.075   5.346  34.723  0.00  0.00    +0.000 A 
ATOM      9  C   UNL     1      33.967   3.981  34.805  0.00  0.00    +0.000 A 
ATOM     10  N   UNL     1      33.808   3.190  33.608  0.00  0.00    +0.000 NA
ATOM     11  C   UNL     1      33.693   1.778  33.640  0.00  0.00    +0.000 C 
ATOM     12  O   UNL     1      33.555   1.099  32.570  0.00  0.00    +0.000 OA
ATOM     13  N   UNL     1      33.739   1.121  34.897  0.00  0.00    +0.000 N 
ENDROOT
BRANCH  13  14
ATOM     14  C   UNL     1      33.630  -0.299  34.914  0.00  0.00    +0.000 A 
ATOM     15  C   UNL     1      34.695  -1.157  34.860  0.00  0.00    +0.000 A 
ATOM     16  C   UNL     1      34.421  -2.517  34.882  0.00  0.00    +0.000 A 
ATOM     17  C   UNL     1      33.148  -3.011  34.953  0.00  0.00    +0.000 A 
ATOM     18  C   UNL     1      32.079  -2.117  35.008  0.00  0.00    +0.000 A 
ATOM     19  C   UNL     1      32.321  -0.777  34.987  0.00  0.00    +0.000 A 
BRANCH  17  20
ATOM     20  O   UNL     1      32.967  -4.389  34.969  0.00  0.00    +0.000 OA
ATOM     21  C   UNL     1      32.058  -5.010  34.076  0.00  0.00    +0.000 C 
ENDBRANCH  17  20
ENDBRANCH  13  14
TORSDOF 2
ENDMDL
MODEL 4
REMARK VINA RESULT:      -6.5      3.330      6.728
REMARK  Name = 
REMARK  2 active torsions:
REMARK  status: ('A' for Active; 'I' for Inactive)
REMARK    1  A    between atoms: N_13  and  C_14
REMARK    2  A    between atoms: C_17  and  O_18
REMARK                            x       y       z     vdW  Elec       q    Type
REMARK                         _______ _______ _______ _____ _____    ______ ____
ROOT
ATOM      1  C   UNL     1      19.560  12.519  38.571  0.00  0.00    +0.000 C 
ATOM      2  C   UNL     1      19.892  11.511  37.799  0.00  0.00    +0.000 C 
ATOM      3  C   UNL     1      21.292  11.133  37.706  0.00  0.00    +0.000 A 
ATOM      4  C   UNL     1      22.306  11.773  38.395  0.00  0.00    +0.000 A 
ATOM      5  C   UNL     1      23.616  11.367  38.268  0.00  0.00    +0.000 A 
ATOM      6  C   UNL     1      23.955  10.315  37.452  0.00  0.00    +0.000 A 
ATOM      7  C   UNL     1      25.356   9.884  37.325  0.00  0.00    +0.000 C 
ATOM      8  C   UNL     1      22.934   9.689  36.773  0.00  0.00    +0.000 A 
ATOM      9  C   UNL     1      21.624  10.079  36.889  0.00  0.00    +0.000 A 
ATOM     10  N   UNL     1      20.591   9.387  36.156  0.00  0.00    +0.000 NA
ATOM     11  C   UNL     1      19.224   9.751  36.241  0.00  0.00    +0.000 C 
ATOM     12  O   UNL     1      18.328   9.126  35.587  0.00  0.00    +0.000 OA
ATOM     13  N   UNL     1      18.862  10.837  37.082  0.00  0.00    +0.000 N 
ENDROOT
BRANCH  13  14
ATOM     14  C   UNL     1      17.484  11.187  37.164  0.00  0.00    +0.000 A 
ATOM     15  C   UNL     1      16.596  10.633  38.047  0.00  0.00    +0.000 A 
ATOM     16  C   UNL     1      15.284  11.081  37.998  0.00  0.00    +0.000 A 
ATOM     17  C   UNL     1      14.864  12.036  37.115  0.00  0.00    +0.000 A 
ATOM     18  C   UNL     1      15.786  12.586  36.226  0.00  0.00    +0.000 A 
ATOM     19  C   UNL     1      17.080  12.164  36.252  0.00  0.00    +0.000 A 
BRANCH  17  20
ATOM     20  O   UNL     1      13.529  12.424  37.137  0.00  0.00    +0.000 OA
ATOM     21  C   UNL     1      12.494  11.455  37.144  0.00  0.00    +0.000 C 
ENDBRANCH  17  20
ENDBRANCH  13  14
TORSDOF 2
ENDMDL
MODEL 5
REMARK VINA RESULT:      -6.4     18.035     19.433
REMARK  Name = 
REMARK  2 active torsions:
REMARK  status: ('A' for Active; 'I' for Inactive)
REMARK    1  A    between atoms: N_13  and  C_14
REMARK    2  A    between atoms: C_17  and  O_18
REMARK                            x       y       z     vdW  Elec       q    Type
REMARK                         _______ _______ _______ _____ _____    ______ ____
ROOT
ATOM      1  C   UNL     1      33.855   3.409  33.636  0.00  0.00    +0.000 C 
ATOM      2  C   UNL     1      33.931   2.823  34.808  0.00  0.00    +0.000 C 
ATOM      3  C   UNL     1      33.602   1.411  34.905  0.00  0.00    +0.000 A 
ATOM      4  C   UNL     1      33.220   0.636  33.825  0.00  0.00    +0.000 A 
ATOM      5  C   UNL     1      32.923  -0.699  33.979  0.00  0.00    +0.000 A 
ATOM      6  C   UNL     1      32.998  -1.303  35.211  0.00  0.00    +0.000 A 
ATOM      7  C   UNL     1      32.684  -2.732  35.367  0.00  0.00    +0.000 C 
ATOM      8  C   UNL     1      33.379  -0.519  36.275  0.00  0.00    +0.000 A 
ATOM      9  C   UNL     1      33.679   0.813  36.140  0.00  0.00    +0.000 A 
ATOM     10  N   UNL     1      34.076   1.590  37.289  0.00  0.00    +0.000 NA
ATOM     11  C   UNL     1      34.397   2.968  37.202  0.00  0.00    +0.000 C 
ATOM     12  O   UNL     1      34.747   3.635  38.229  0.00  0.00    +0.000 OA
ATOM     13  N   UNL     1      34.324   3.602  35.934  0.00  0.00    +0.000 N 
ENDROOT
BRANCH  13  14
ATOM     14  C   UNL     1      34.656   4.985  35.859  0.00  0.00    +0.000 A 
ATOM     15  C   UNL     1      33.764   6.006  36.055  0.00  0.00    +0.000 A 
ATOM     16  C   UNL     1      34.245   7.303  35.943  0.00  0.00    +0.000 A 
ATOM     17  C   UNL     1      35.551   7.582  35.649  0.00  0.00    +0.000 A 
ATOM     18  C   UNL     1      36.439   6.526  35.454  0.00  0.00    +0.000 A 
ATOM     19  C   UNL     1      35.994   5.244  35.557  0.00  0.00    +0.000 A 
BRANCH  17  20
ATOM     20  O   UNL     1      35.944   8.913  35.556  0.00  0.00    +0.000 OA
ATOM     21  C   UNL     1      34.996   9.958  35.694  0.00  0.00    +0.000 C 
ENDBRANCH  17  20
ENDBRANCH  13  14
TORSDOF 2
ENDMDL
MODEL 6
REMARK VINA RESULT:      -6.1     19.784     21.593
REMARK  Name = 
REMARK  2 active torsions:
REMARK  status: ('A' for Active; 'I' for Inactive)
REMARK    1  A    between atoms: N_13  and  C_14
REMARK    2  A    between atoms: C_17  and  O_18
REMARK                            x       y       z     vdW  Elec       q    Type
REMARK                         _______ _______ _______ _____ _____    ______ ____
ROOT
ATOM      1  C   UNL     1      26.665  25.208  25.181  0.00  0.00    +0.000 C 
ATOM      2  C   UNL     1      27.452  24.255  25.622  0.00  0.00    +0.000 C 
ATOM      3  C   UNL     1      27.186  23.679  26.929  0.00  0.00    +0.000 A 
ATOM      4  C   UNL     1      26.137  24.071  27.741  0.00  0.00    +0.000 A 
ATOM      5  C   UNL     1      25.935  23.486  28.971  0.00  0.00    +0.000 A 
ATOM      6  C   UNL     1      26.767  22.493  29.428  0.00  0.00    +0.000 A 
ATOM      7  C   UNL     1      26.541  21.869  30.741  0.00  0.00    +0.000 C 
ATOM      8  C   UNL     1      27.806  22.114  28.608  0.00  0.00    +0.000 A 
ATOM      9  C   UNL     1      28.023  22.687  27.380  0.00  0.00    +0.000 A 
ATOM     10  N   UNL     1      29.126  22.251  26.559  0.00  0.00    +0.000 NA
ATOM     11  C   UNL     1      29.392  22.810  25.284  0.00  0.00    +0.000 C 
ATOM     12  O   UNL     1      30.371  22.409  24.574  0.00  0.00    +0.000 OA
ATOM     13  N   UNL     1      28.537  23.835  24.801  0.00  0.00    +0.000 N 
ENDROOT
BRANCH  13  14
ATOM     14  C   UNL     1      28.811  24.382  23.515  0.00  0.00    +0.000 A 
ATOM     15  C   UNL     1      28.487  23.776  22.330  0.00  0.00    +0.000 A 
ATOM     16  C   UNL     1      28.826  24.439  21.160  0.00  0.00    +0.000 A 
ATOM     17  C   UNL     1      29.460  25.651  21.157  0.00  0.00    +0.000 A 
ATOM     18  C   UNL     1      29.780  26.248  22.375  0.00  0.00    +0.000 A 
ATOM     19  C   UNL     1      29.459  25.618  23.539  0.00  0.00    +0.000 A 
BRANCH  17  20
ATOM     20  O   UNL     1      29.762  26.243  19.935  0.00  0.00    +0.000 OA
ATOM     21  C   UNL     1      29.711  27.651  19.782  0.00  0.00    +0.000 C 
ENDBRANCH  17  20
ENDBRANCH  13  14
TORSDOF 2
ENDMDL
MODEL 7
REMARK VINA RESULT:      -6.1     19.041     19.729
REMARK  Name = 
REMARK  2 active torsions:
REMARK  status: ('A' for Active; 'I' for Inactive)
REMARK    1  A    between atoms: N_13  and  C_14
REMARK    2  A    between atoms: C_17  and  O_18
REMARK                            x       y       z     vdW  Elec       q    Type
REMARK                         _______ _______ _______ _____ _____    ______ ____
ROOT
ATOM      1  C   UNL     1      31.354  23.146  25.769  0.00  0.00    +0.000 C 
ATOM      2  C   UNL     1      30.199  23.028  26.382  0.00  0.00    +0.000 C 
ATOM      3  C   UNL     1      28.982  23.058  25.589  0.00  0.00    +0.000 A 
ATOM      4  C   UNL     1      28.966  23.196  24.213  0.00  0.00    +0.000 A 
ATOM      5  C   UNL     1      27.779  23.216  23.516  0.00  0.00    +0.000 A 
ATOM      6  C   UNL     1      26.574  23.099  24.166  0.00  0.00    +0.000 A 
ATOM      7  C   UNL     1      25.310  23.116  23.413  0.00  0.00    +0.000 C 
ATOM      8  C   UNL     1      26.607  22.963  25.535  0.00  0.00    +0.000 A 
ATOM      9  C   UNL     1      27.780  22.941  26.246  0.00  0.00    +0.000 A 
ATOM     10  N   UNL     1      27.759  22.794  27.681  0.00  0.00    +0.000 NA
ATOM     11  C   UNL     1      28.943  22.765  28.460  0.00  0.00    +0.000 C 
ATOM     12  O   UNL     1      28.901  22.633  29.727  0.00  0.00    +0.000 OA
ATOM     13  N   UNL     1      30.193  22.883  27.799  0.00  0.00    +0.000 N 
ENDROOT
BRANCH  13  14
ATOM     14  C   UNL     1      31.375  22.845  28.593  0.00  0.00    +0.000 A 
ATOM     15  C   UNL     1      31.960  23.945  29.163  0.00  0.00    +0.000 A 
ATOM     16  C   UNL     1      33.113  23.740  29.907  0.00  0.00    +0.000 A 
ATOM     17  C   UNL     1      33.668  22.503  30.081  0.00  0.00    +0.000 A 
ATOM     18  C   UNL     1      33.054  21.399  29.491  0.00  0.00    +0.000 A 
ATOM     19  C   UNL     1      31.921  21.572  28.756  0.00  0.00    +0.000 A 
BRANCH  17  20
ATOM     20  O   UNL     1      34.826  22.392  30.843  0.00  0.00    +0.000 OA
ATOM     21  C   UNL     1      34.859  21.562  31.992  0.00  0.00    +0.000 C 
ENDBRANCH  17  20
ENDBRANCH  13  14
TORSDOF 2
ENDMDL
MODEL 8
REMARK VINA RESULT:      -6.0      2.229      7.577
REMARK  Name = 
REMARK  2 active torsions:
REMARK  status: ('A' for Active; 'I' for Inactive)
REMARK    1  A    between atoms: N_13  and  C_14
REMARK    2  A    between atoms: C_17  and  O_18
REMARK                            x       y       z     vdW  Elec       q    Type
REMARK                         _______ _______ _______ _____ _____    ______ ____
ROOT
ATOM      1  C   UNL     1      15.535  10.488  38.542  0.00  0.00    +0.000 C 
ATOM      2  C   UNL     1      16.767  10.100  38.777  0.00  0.00    +0.000 C 
ATOM      3  C   UNL     1      17.116   9.659  40.117  0.00  0.00    +0.000 A 
ATOM      4  C   UNL     1      16.218   9.612  41.168  0.00  0.00    +0.000 A 
ATOM      5  C   UNL     1      16.609   9.182  42.416  0.00  0.00    +0.000 A 
ATOM      6  C   UNL     1      17.902   8.785  42.655  0.00  0.00    +0.000 A 
ATOM      7  C   UNL     1      18.311   8.321  43.990  0.00  0.00    +0.000 C 
ATOM      8  C   UNL     1      18.783   8.837  41.599  0.00  0.00    +0.000 A 
ATOM      9  C   UNL     1      18.412   9.263  40.349  0.00  0.00    +0.000 A 
ATOM     10  N   UNL     1      19.375   9.296  39.275  0.00  0.00    +0.000 NA
ATOM     11  C   UNL     1      19.041   9.727  37.967  0.00  0.00    +0.000 C 
ATOM     12  O   UNL     1      19.907   9.747  37.033  0.00  0.00    +0.000 OA
ATOM     13  N   UNL     1      17.707  10.139  37.708  0.00  0.00    +0.000 N 
ENDROOT
BRANCH  13  14
ATOM     14  C   UNL     1      17.383  10.562  36.387  0.00  0.00    +0.000 A 
ATOM     15  C   UNL     1      17.139  11.862  36.029  0.00  0.00    +0.000 A 
ATOM     16  C   UNL     1      16.833  12.110  34.699  0.00  0.00    +0.000 A 
ATOM     17  C   UNL     1      16.768  11.118  33.760  0.00  0.00    +0.000 A 
ATOM     18  C   UNL     1      17.021   9.803  34.148  0.00  0.00    +0.000 A 
ATOM     19  C   UNL     1      17.323   9.532  35.448  0.00  0.00    +0.000 A 
BRANCH  17  20
ATOM     20  O   UNL     1      16.453  11.460  32.450  0.00  0.00    +0.000 OA
ATOM     21  C   UNL     1      15.675  10.591  31.643  0.00  0.00    +0.000 C 
ENDBRANCH  17  20
ENDBRANCH  13  14
TORSDOF 2
ENDMDL
MODEL 9
REMARK VINA RESULT:      -6.0     22.340     23.931
REMARK  Name = 
REMARK  2 active torsions:
REMARK  status: ('A' for Active; 'I' for Inactive)
REMARK    1  A    between atoms: N_13  and  C_14
REMARK    2  A    between atoms: C_17  and  O_18
REMARK                            x       y       z     vdW  Elec       q    Type
REMARK                         _______ _______ _______ _____ _____    ______ ____
ROOT
ATOM      1  C   UNL     1      28.131  28.027  22.823  0.00  0.00    +0.000 C 
ATOM      2  C   UNL     1      28.675  27.217  21.946  0.00  0.00    +0.000 C 
ATOM      3  C   UNL     1      29.287  27.783  20.756  0.00  0.00    +0.000 A 
ATOM      4  C   UNL     1      29.339  29.140  20.493  0.00  0.00    +0.000 A 
ATOM      5  C   UNL     1      29.934  29.618  19.347  0.00  0.00    +0.000 A 
ATOM      6  C   UNL     1      30.496  28.761  18.431  0.00  0.00    +0.000 A 
ATOM      7  C   UNL     1      31.135  29.280  17.211  0.00  0.00    +0.000 C 
ATOM      8  C   UNL     1      30.435  27.414  18.708  0.00  0.00    +0.000 A 
ATOM      9  C   UNL     1      29.846  26.921  19.844  0.00  0.00    +0.000 A 
ATOM     10  N   UNL     1      29.812  25.499  20.087  0.00  0.00    +0.000 NA
ATOM     11  C   UNL     1      29.216  24.940  21.245  0.00  0.00    +0.000 C 
ATOM     12  O   UNL     1      29.198  23.681  21.441  0.00  0.00    +0.000 OA
ATOM     13  N   UNL     1      28.634  25.815  22.199  0.00  0.00    +0.000 N 
ENDROOT
BRANCH  13  14
ATOM     14  C   UNL     1      28.045  25.241  23.362  0.00  0.00    +0.000 A 
ATOM     15  C   UNL     1      28.698  25.063  24.553  0.00  0.00    +0.000 A 
ATOM     16  C   UNL     1      27.984  24.484  25.591  0.00  0.00    +0.000 A 
ATOM     17  C   UNL     1      26.680  24.095  25.462  0.00  0.00    +0.000 A 
ATOM     18  C   UNL     1      26.036  24.286  24.240  0.00  0.00    +0.000 A 
ATOM     19  C   UNL     1      26.714  24.852  23.204  0.00  0.00    +0.000 A 
BRANCH  17  20
ATOM     20  O   UNL     1      26.043  23.522  26.557  0.00  0.00    +0.000 OA
ATOM     21  C   UNL     1      25.521  24.333  27.596  0.00  0.00    +0.000 C 
ENDBRANCH  17  20
ENDBRANCH  13  14
TORSDOF 2
ENDMDL
MODEL 10
REMARK VINA RESULT:      -6.0     21.045     22.439
REMARK  Name = 
REMARK  2 active torsions:
REMARK  status: ('A' for Active; 'I' for Inactive)
REMARK    1  A    between atoms: N_13  and  C_14
REMARK    2  A    between atoms: C_17  and  O_18
REMARK                            x       y       z     vdW  Elec       q    Type
REMARK                         _______ _______ _______ _____ _____    ______ ____
ROOT
ATOM      1  C   UNL     1      27.720  27.269  23.819  0.00  0.00    +0.000 C 
ATOM      2  C   UNL     1      28.189  26.341  23.019  0.00  0.00    +0.000 C 
ATOM      3  C   UNL     1      28.810  26.746  21.769  0.00  0.00    +0.000 A 
ATOM      4  C   UNL     1      28.947  28.063  21.371  0.00  0.00    +0.000 A 
ATOM      5  C   UNL     1      29.547  28.384  20.175  0.00  0.00    +0.000 A 
ATOM      6  C   UNL     1      30.030  27.406  19.339  0.00  0.00    +0.000 A 
ATOM      7  C   UNL     1      30.675  27.757  18.065  0.00  0.00    +0.000 C 
ATOM      8  C   UNL     1      29.886  26.100  19.749  0.00  0.00    +0.000 A 
ATOM      9  C   UNL     1      29.290  25.762  20.939  0.00  0.00    +0.000 A 
ATOM     10  N   UNL     1      29.167  24.376  21.322  0.00  0.00    +0.000 NA
ATOM     11  C   UNL     1      28.561  23.975  22.539  0.00  0.00    +0.000 C 
ATOM     12  O   UNL     1      28.464  22.746  22.858  0.00  0.00    +0.000 OA
ATOM     13  N   UNL     1      28.060  24.978  23.410  0.00  0.00    +0.000 N 
ENDROOT
BRANCH  13  14
ATOM     14  C   UNL     1      27.461  24.561  24.633  0.00  0.00    +0.000 A 
ATOM     15  C   UNL     1      26.137  24.238  24.775  0.00  0.00    +0.000 A 
ATOM     16  C   UNL     1      25.707  23.854  26.036  0.00  0.00    +0.000 A 
ATOM     17  C   UNL     1      26.546  23.791  27.114  0.00  0.00    +0.000 A 
ATOM     18  C   UNL     1      27.888  24.125  26.945  0.00  0.00    +0.000 A 
ATOM     19  C   UNL     1      28.337  24.506  25.718  0.00  0.00    +0.000 A 
BRANCH  17  20
ATOM     20  O   UNL     1      26.026  23.396  28.342  0.00  0.00    +0.000 OA
ATOM     21  C   UNL     1      25.971  24.303  29.430  0.00  0.00    +0.000 C 
ENDBRANCH  17  20
ENDBRANCH  13  14
TORSDOF 2
ENDMDL
