MODEL 1
REMARK VINA RESULT:      -7.9      0.000      0.000
REMARK  Name = 
REMARK  7 active torsions:
REMARK  status: ('A' for Active; 'I' for Inactive)
REMARK    1  A    between atoms: C_2  and  C_3
REMARK    2  A    between atoms: C_3  and  O_4
REMARK    3  A    between atoms: O_4  and  C_5
REMARK    4  A    between atoms: C_8  and  N_9
REMARK    5  A    between atoms: C_10  and  C_12
REMARK    6  A    between atoms: C_13  and  N_14
REMARK    7  A    between atoms: C_15  and  C_17
REMARK                            x       y       z     vdW  Elec       q    Type
REMARK                         _______ _______ _______ _____ _____    ______ ____
ROOT
ATOM      1  C   UNL     1      12.887   0.635  27.813  0.00  0.00    +0.000 A 
ATOM      2  C   UNL     1      12.319  -0.290  28.658  0.00  0.00    +0.000 A 
ATOM      3  S   UNL     1      10.996   0.564  29.323  0.00  0.00    +0.000 S 
ATOM      4  C   UNL     1      11.195   2.045  28.527  0.00  0.00    +0.000 A 
ATOM      5  C   UNL     1      12.300   1.841  27.751  0.00  0.00    +0.000 A 
ATOM      6  C   UNL     1      12.724   3.038  26.903  0.00  0.00    +0.000 C 
ATOM      7  C   UNL     1      11.405   3.548  26.306  0.00  0.00    +0.000 C 
ATOM      8  C   UNL     1      10.668   4.222  27.438  0.00  0.00    +0.000 C 
ATOM      9  C   UNL     1      10.419   3.311  28.587  0.00  0.00    +0.000 C 
ENDROOT
BRANCH   1  11
ATOM     10  N   UNL     1      15.406   0.639  27.438  0.00  0.00    +0.000 NA
ATOM     11  C   UNL     1      14.098   0.248  27.033  0.00  0.00    +0.000 C 
ATOM     12  O   UNL     1      14.031  -0.436  25.993  0.00  0.00    +0.000 OA
BRANCH  10  16
ATOM     13  C   UNL     1      18.818  -0.348  25.152  0.00  0.00    +0.000 A 
ATOM     14  C   UNL     1      18.326   0.959  25.161  0.00  0.00    +0.000 A 
ATOM     15  C   UNL     1      17.201   1.227  25.932  0.00  0.00    +0.000 A 
ATOM     16  C   UNL     1      16.562   0.259  26.677  0.00  0.00    +0.000 A 
ATOM     17  C   UNL     1      17.048  -1.012  26.661  0.00  0.00    +0.000 A 
ATOM     18  C   UNL     1      18.165  -1.294  25.901  0.00  0.00    +0.000 A 
BRANCH  13  19
ATOM     19  O   UNL     1      19.938  -0.690  24.405  0.00  0.00    +0.000 OA
BRANCH  19  20
ATOM     20  C   UNL     1      20.017  -0.451  23.029  0.00  0.00    +0.000 C 
BRANCH  20  22
ATOM     21  C   UNL     1      19.911  -2.903  22.680  0.00  0.00    +0.000 C 
ATOM     22  C   UNL     1      20.678  -1.636  22.349  0.00  0.00    +0.000 C 
ENDBRANCH  20  22
ENDBRANCH  19  20
ENDBRANCH  13  19
ENDBRANCH  10  16
ENDBRANCH   1  11
BRANCH   2  23
ATOM     23  N   UNL     1      12.740  -1.653  28.917  0.00  0.00    +0.000 NA
ATOM     24  C   UNL     1      12.104  -2.669  28.137  0.00  0.00    +0.000 C 
ATOM     25  O   UNL     1      11.244  -2.360  27.296  0.00  0.00    +0.000 OA
BRANCH  24  26
ATOM     26  C   UNL     1      12.471  -4.091  28.331  0.00  0.00    +0.000 A 
ATOM     27  C   UNL     1      12.535  -4.956  27.280  0.00  0.00    +0.000 A 
ATOM     28  C   UNL     1      12.880  -6.264  27.507  0.00  0.00    +0.000 A 
ATOM     29  C   UNL     1      13.166  -6.744  28.766  0.00  0.00    +0.000 A 
ATOM     30  C   UNL     1      13.090  -5.836  29.804  0.00  0.00    +0.000 A 
ATOM     31  C   UNL     1      12.748  -4.524  29.597  0.00  0.00    +0.000 A 
ENDBRANCH  24  26
ENDBRANCH   2  23
TORSDOF 7
ENDMDL
MODEL 2
REMARK VINA RESULT:      -7.2     24.262     26.951
REMARK  Name = 
REMARK  7 active torsions:
REMARK  status: ('A' for Active; 'I' for Inactive)
REMARK    1  A    between atoms: C_2  and  C_3
REMARK    2  A    between atoms: C_3  and  O_4
REMARK    3  A    between atoms: O_4  and  C_5
REMARK    4  A    between atoms: C_8  and  N_9
REMARK    5  A    between atoms: C_10  and  C_12
REMARK    6  A    between atoms: C_13  and  N_14
REMARK    7  A    between atoms: C_15  and  C_17
REMARK                            x       y       z     vdW  Elec       q    Type
REMARK                         _______ _______ _______ _____ _____    ______ ____
ROOT
ATOM      1  C   UNL     1      37.648   2.174  13.600  0.00  0.00    +0.000 A 
ATOM      2  C   UNL     1      37.894   0.860  13.925  0.00  0.00    +0.000 A 
ATOM      3  S   UNL     1      37.845   0.077  12.406  0.00  0.00    +0.000 S 
ATOM      4  C   UNL     1      37.519   1.412  11.417  0.00  0.00    +0.000 A 
ATOM      5  C   UNL     1      37.454   2.451  12.300  0.00  0.00    +0.000 A 
ATOM      6  C   UNL     1      37.165   3.814  11.675  0.00  0.00    +0.000 C 
ATOM      7  C   UNL     1      38.089   3.856  10.449  0.00  0.00    +0.000 C 
ATOM      8  C   UNL     1      37.478   2.920   9.435  0.00  0.00    +0.000 C 
ATOM      9  C   UNL     1      37.332   1.531   9.948  0.00  0.00    +0.000 C 
ENDROOT
BRANCH   1  11
ATOM     10  N   UNL     1      38.796   3.818  15.169  0.00  0.00    +0.000 NA
ATOM     11  C   UNL     1      37.611   3.190  14.692  0.00  0.00    +0.000 C 
ATOM     12  O   UNL     1      36.549   3.541  15.240  0.00  0.00    +0.000 OA
BRANCH  10  16
ATOM     13  C   UNL     1      38.644   6.787  18.169  0.00  0.00    +0.000 A 
ATOM     14  C   UNL     1      38.628   7.145  16.819  0.00  0.00    +0.000 A 
ATOM     15  C   UNL     1      38.679   6.125  15.875  0.00  0.00    +0.000 A 
ATOM     16  C   UNL     1      38.745   4.794  16.221  0.00  0.00    +0.000 A 
ATOM     17  C   UNL     1      38.761   4.455  17.539  0.00  0.00    +0.000 A 
ATOM     18  C   UNL     1      38.710   5.455  18.489  0.00  0.00    +0.000 A 
BRANCH  13  19
ATOM     19  O   UNL     1      38.595   7.751  19.168  0.00  0.00    +0.000 OA
BRANCH  19  20
ATOM     20  C   UNL     1      39.269   7.597  20.385  0.00  0.00    +0.000 C 
BRANCH  20  22
ATOM     21  C   UNL     1      41.602   6.759  20.356  0.00  0.00    +0.000 C 
ATOM     22  C   UNL     1      40.725   7.989  20.207  0.00  0.00    +0.000 C 
ENDBRANCH  20  22
ENDBRANCH  19  20
ENDBRANCH  13  19
ENDBRANCH  10  16
ENDBRANCH   1  11
BRANCH   2  23
ATOM     23  N   UNL     1      38.135   0.285  15.233  0.00  0.00    +0.000 NA
ATOM     24  C   UNL     1      37.019  -0.357  15.856  0.00  0.00    +0.000 C 
ATOM     25  O   UNL     1      35.922  -0.399  15.275  0.00  0.00    +0.000 OA
BRANCH  24  26
ATOM     26  C   UNL     1      37.171  -0.975  17.194  0.00  0.00    +0.000 A 
ATOM     27  C   UNL     1      36.347  -0.639  18.226  0.00  0.00    +0.000 A 
ATOM     28  C   UNL     1      36.524  -1.238  19.448  0.00  0.00    +0.000 A 
ATOM     29  C   UNL     1      37.509  -2.173  19.676  0.00  0.00    +0.000 A 
ATOM     30  C   UNL     1      38.322  -2.486  18.604  0.00  0.00    +0.000 A 
ATOM     31  C   UNL     1      38.161  -1.899  17.375  0.00  0.00    +0.000 A 
ENDBRANCH  24  26
ENDBRANCH   2  23
TORSDOF 7
ENDMDL
MODEL 3
REMARK VINA RESULT:      -7.1     24.241     27.470
REMARK  Name = 
REMARK  7 active torsions:
REMARK  status: ('A' for Active; 'I' for Inactive)
REMARK    1  A    between atoms: C_2  and  C_3
REMARK    2  A    between atoms: C_3  and  O_4
REMARK    3  A    between atoms: O_4  and  C_5
REMARK    4  A    between atoms: C_8  and  N_9
REMARK    5  A    between atoms: C_10  and  C_12
REMARK    6  A    between atoms: C_13  and  N_14
REMARK    7  A    between atoms: C_15  and  C_17
REMARK                            x       y       z     vdW  Elec       q    Type
REMARK                         _______ _______ _______ _____ _____    ______ ____
ROOT
ATOM      1  C   UNL     1      37.888  -1.413  16.203  0.00  0.00    +0.000 A 
ATOM      2  C   UNL     1      38.489  -2.339  15.383  0.00  0.00    +0.000 A 
ATOM      3  S   UNL     1      39.062  -3.511  16.487  0.00  0.00    +0.000 S 
ATOM      4  C   UNL     1      38.535  -2.808  17.934  0.00  0.00    +0.000 A 
ATOM      5  C   UNL     1      37.917  -1.662  17.522  0.00  0.00    +0.000 A 
ATOM      6  C   UNL     1      37.331  -0.806  18.642  0.00  0.00    +0.000 C 
ATOM      7  C   UNL     1      36.620  -1.823  19.547  0.00  0.00    +0.000 C 
ATOM      8  C   UNL     1      37.713  -2.569  20.274  0.00  0.00    +0.000 C 
ATOM      9  C   UNL     1      38.663  -3.245  19.349  0.00  0.00    +0.000 C 
ENDROOT
BRANCH   1  11
ATOM     10  N   UNL     1      37.965   1.014  15.437  0.00  0.00    +0.000 NA
ATOM     11  C   UNL     1      37.255  -0.211  15.588  0.00  0.00    +0.000 C 
ATOM     12  O   UNL     1      36.080  -0.215  15.174  0.00  0.00    +0.000 OA
BRANCH  10  16
ATOM     13  C   UNL     1      36.193   4.363  13.570  0.00  0.00    +0.000 A 
ATOM     14  C   UNL     1      37.024   3.506  12.844  0.00  0.00    +0.000 A 
ATOM     15  C   UNL     1      37.579   2.420  13.510  0.00  0.00    +0.000 A 
ATOM     16  C   UNL     1      37.342   2.163  14.843  0.00  0.00    +0.000 A 
ATOM     17  C   UNL     1      36.532   3.004  15.542  0.00  0.00    +0.000 A 
ATOM     18  C   UNL     1      35.972   4.088  14.896  0.00  0.00    +0.000 A 
BRANCH  13  19
ATOM     19  O   UNL     1      35.603   5.470  12.972  0.00  0.00    +0.000 OA
BRANCH  19  20
ATOM     20  C   UNL     1      35.134   6.557  13.717  0.00  0.00    +0.000 C 
BRANCH  20  22
ATOM     21  C   UNL     1      33.633   7.192  11.849  0.00  0.00    +0.000 C 
ATOM     22  C   UNL     1      33.697   6.853  13.327  0.00  0.00    +0.000 C 
ENDBRANCH  20  22
ENDBRANCH  19  20
ENDBRANCH  13  19
ENDBRANCH  10  16
ENDBRANCH   1  11
BRANCH   2  23
ATOM     23  N   UNL     1      38.605  -2.323  13.938  0.00  0.00    +0.000 NA
ATOM     24  C   UNL     1      39.779  -1.703  13.406  0.00  0.00    +0.000 C 
ATOM     25  O   UNL     1      40.628  -1.218  14.173  0.00  0.00    +0.000 OA
BRANCH  24  26
ATOM     26  C   UNL     1      39.985  -1.639  11.940  0.00  0.00    +0.000 A 
ATOM     27  C   UNL     1      40.311  -2.749  11.222  0.00  0.00    +0.000 A 
ATOM     28  C   UNL     1      40.491  -2.642   9.866  0.00  0.00    +0.000 A 
ATOM     29  C   UNL     1      40.354  -1.447   9.195  0.00  0.00    +0.000 A 
ATOM     30  C   UNL     1      40.022  -0.346   9.959  0.00  0.00    +0.000 A 
ATOM     31  C   UNL     1      39.837  -0.432  11.316  0.00  0.00    +0.000 A 
ENDBRANCH  24  26
ENDBRANCH   2  23
TORSDOF 7
ENDMDL
MODEL 4
REMARK VINA RESULT:      -7.1     23.803     26.845
REMARK  Name = 
REMARK  7 active torsions:
REMARK  status: ('A' for Active; 'I' for Inactive)
REMARK    1  A    between atoms: C_2  and  C_3
REMARK    2  A    between atoms: C_3  and  O_4
REMARK    3  A    between atoms: O_4  and  C_5
REMARK    4  A    between atoms: C_8  and  N_9
REMARK    5  A    between atoms: C_10  and  C_12
REMARK    6  A    between atoms: C_13  and  N_14
REMARK    7  A    between atoms: C_15  and  C_17
REMARK                            x       y       z     vdW  Elec       q    Type
REMARK                         _______ _______ _______ _____ _____    ______ ____
ROOT
ATOM      1  C   UNL     1      36.573   6.460  14.243  0.00  0.00    +0.000 A 
ATOM      2  C   UNL     1      37.124   7.375  15.109  0.00  0.00    +0.000 A 
ATOM      3  S   UNL     1      36.820   8.867  14.331  0.00  0.00    +0.000 S 
ATOM      4  C   UNL     1      36.018   8.301  12.952  0.00  0.00    +0.000 A 
ATOM      5  C   UNL     1      36.002   6.947  13.129  0.00  0.00    +0.000 A 
ATOM      6  C   UNL     1      35.325   6.158  12.011  0.00  0.00    +0.000 C 
ATOM      7  C   UNL     1      34.038   6.947  11.734  0.00  0.00    +0.000 C 
ATOM      8  C   UNL     1      34.465   8.199  11.007  0.00  0.00    +0.000 C 
ATOM      9  C   UNL     1      35.437   9.014  11.785  0.00  0.00    +0.000 C 
ENDROOT
BRANCH   1  11
ATOM     10  N   UNL     1      35.468   4.242  14.831  0.00  0.00    +0.000 NA
ATOM     11  C   UNL     1      36.642   5.011  14.588  0.00  0.00    +0.000 C 
ATOM     12  O   UNL     1      37.723   4.399  14.681  0.00  0.00    +0.000 OA
BRANCH  10  16
ATOM     13  C   UNL     1      35.666   0.171  15.936  0.00  0.00    +0.000 A 
ATOM     14  C   UNL     1      35.221   1.130  16.848  0.00  0.00    +0.000 A 
ATOM     15  C   UNL     1      35.176   2.455  16.429  0.00  0.00    +0.000 A 
ATOM     16  C   UNL     1      35.550   2.848  15.163  0.00  0.00    +0.000 A 
ATOM     17  C   UNL     1      35.983   1.906  14.281  0.00  0.00    +0.000 A 
ATOM     18  C   UNL     1      36.033   0.586  14.681  0.00  0.00    +0.000 A 
BRANCH  13  19
ATOM     19  O   UNL     1      35.737  -1.172  16.283  0.00  0.00    +0.000 OA
BRANCH  19  20
ATOM     20  C   UNL     1      35.755  -2.190  15.323  0.00  0.00    +0.000 C 
BRANCH  20  22
ATOM     21  C   UNL     1      34.593  -4.240  14.553  0.00  0.00    +0.000 C 
ATOM     22  C   UNL     1      34.741  -3.255  15.698  0.00  0.00    +0.000 C 
ENDBRANCH  20  22
ENDBRANCH  19  20
ENDBRANCH  13  19
ENDBRANCH  10  16
ENDBRANCH   1  11
BRANCH   2  23
ATOM     23  N   UNL     1      37.795   7.132  16.371  0.00  0.00    +0.000 NA
ATOM     24  C   UNL     1      39.223   7.080  16.326  0.00  0.00    +0.000 C 
ATOM     25  O   UNL     1      39.818   7.240  15.247  0.00  0.00    +0.000 OA
BRANCH  24  26
ATOM     26  C   UNL     1      39.996   6.836  17.566  0.00  0.00    +0.000 A 
ATOM     27  C   UNL     1      39.376   6.696  18.771  0.00  0.00    +0.000 A 
ATOM     28  C   UNL     1      40.133   6.470  19.893  0.00  0.00    +0.000 A 
ATOM     29  C   UNL     1      41.506   6.379  19.851  0.00  0.00    +0.000 A 
ATOM     30  C   UNL     1      42.096   6.525  18.611  0.00  0.00    +0.000 A 
ATOM     31  C   UNL     1      41.357   6.751  17.477  0.00  0.00    +0.000 A 
ENDBRANCH  24  26
ENDBRANCH   2  23
TORSDOF 7
ENDMDL
MODEL 5
REMARK VINA RESULT:      -7.0     23.108     27.573
REMARK  Name = 
REMARK  7 active torsions:
REMARK  status: ('A' for Active; 'I' for Inactive)
REMARK    1  A    between atoms: C_2  and  C_3
REMARK    2  A    between atoms: C_3  and  O_4
REMARK    3  A    between atoms: O_4  and  C_5
REMARK    4  A    between atoms: C_8  and  N_9
REMARK    5  A    between atoms: C_10  and  C_12
REMARK    6  A    between atoms: C_13  and  N_14
REMARK    7  A    between atoms: C_15  and  C_17
REMARK                            x       y       z     vdW  Elec       q    Type
REMARK                         _______ _______ _______ _____ _____    ______ ____
ROOT
ATOM      1  C   UNL     1      40.167  -0.436  14.054  0.00  0.00    +0.000 A 
ATOM      2  C   UNL     1      39.480  -1.563  14.441  0.00  0.00    +0.000 A 
ATOM      3  S   UNL     1      40.703  -2.756  14.489  0.00  0.00    +0.000 S 
ATOM      4  C   UNL     1      42.030  -1.811  14.025  0.00  0.00    +0.000 A 
ATOM      5  C   UNL     1      41.486  -0.572  13.841  0.00  0.00    +0.000 A 
ATOM      6  C   UNL     1      42.473   0.509  13.409  0.00  0.00    +0.000 C 
ATOM      7  C   UNL     1      43.681   0.290  14.330  0.00  0.00    +0.000 C 
ATOM      8  C   UNL     1      44.363  -0.961  13.833  0.00  0.00    +0.000 C 
ATOM      9  C   UNL     1      43.464  -2.147  13.837  0.00  0.00    +0.000 C 
ENDROOT
BRANCH   1  11
ATOM     10  N   UNL     1      38.972   1.592  15.026  0.00  0.00    +0.000 NA
ATOM     11  C   UNL     1      39.417   0.845  13.899  0.00  0.00    +0.000 C 
ATOM     12  O   UNL     1      39.144   1.326  12.782  0.00  0.00    +0.000 OA
BRANCH  10  16
ATOM     13  C   UNL     1      36.732   5.140  14.535  0.00  0.00    +0.000 A 
ATOM     14  C   UNL     1      36.090   3.901  14.598  0.00  0.00    +0.000 A 
ATOM     15  C   UNL     1      36.878   2.767  14.761  0.00  0.00    +0.000 A 
ATOM     16  C   UNL     1      38.250   2.823  14.860  0.00  0.00    +0.000 A 
ATOM     17  C   UNL     1      38.867   4.034  14.797  0.00  0.00    +0.000 A 
ATOM     18  C   UNL     1      38.100   5.170  14.635  0.00  0.00    +0.000 A 
BRANCH  13  19
ATOM     19  O   UNL     1      36.011   6.316  14.373  0.00  0.00    +0.000 OA
BRANCH  19  20
ATOM     20  C   UNL     1      35.181   6.534  13.268  0.00  0.00    +0.000 C 
BRANCH  20  22
ATOM     21  C   UNL     1      33.771   7.972  14.713  0.00  0.00    +0.000 C 
ATOM     22  C   UNL     1      33.766   6.803  13.745  0.00  0.00    +0.000 C 
ENDBRANCH  20  22
ENDBRANCH  19  20
ENDBRANCH  13  19
ENDBRANCH  10  16
ENDBRANCH   1  11
BRANCH   2  23
ATOM     23  N   UNL     1      38.067  -1.702  14.735  0.00  0.00    +0.000 NA
ATOM     24  C   UNL     1      37.687  -1.522  16.102  0.00  0.00    +0.000 C 
ATOM     25  O   UNL     1      38.549  -1.263  16.958  0.00  0.00    +0.000 OA
BRANCH  24  26
ATOM     26  C   UNL     1      36.265  -1.644  16.498  0.00  0.00    +0.000 A 
ATOM     27  C   UNL     1      35.521  -2.729  16.144  0.00  0.00    +0.000 A 
ATOM     28  C   UNL     1      34.208  -2.799  16.535  0.00  0.00    +0.000 A 
ATOM     29  C   UNL     1      33.604  -1.808  17.276  0.00  0.00    +0.000 A 
ATOM     30  C   UNL     1      34.392  -0.725  17.615  0.00  0.00    +0.000 A 
ATOM     31  C   UNL     1      35.707  -0.637  17.235  0.00  0.00    +0.000 A 
ENDBRANCH  24  26
ENDBRANCH   2  23
TORSDOF 7
ENDMDL
MODEL 6
REMARK VINA RESULT:      -7.0     24.067     27.371
REMARK  Name = 
REMARK  7 active torsions:
REMARK  status: ('A' for Active; 'I' for Inactive)
REMARK    1  A    between atoms: C_2  and  C_3
REMARK    2  A    between atoms: C_3  and  O_4
REMARK    3  A    between atoms: O_4  and  C_5
REMARK    4  A    between atoms: C_8  and  N_9
REMARK    5  A    between atoms: C_10  and  C_12
REMARK    6  A    between atoms: C_13  and  N_14
REMARK    7  A    between atoms: C_15  and  C_17
REMARK                            x       y       z     vdW  Elec       q    Type
REMARK                         _______ _______ _______ _____ _____    ______ ____
ROOT
ATOM      1  C   UNL     1      37.240  -2.105  15.431  0.00  0.00    +0.000 A 
ATOM      2  C   UNL     1      38.546  -2.471  15.661  0.00  0.00    +0.000 A 
ATOM      3  S   UNL     1      38.407  -4.118  16.100  0.00  0.00    +0.000 S 
ATOM      4  C   UNL     1      36.727  -4.294  15.984  0.00  0.00    +0.000 A 
ATOM      5  C   UNL     1      36.305  -3.053  15.601  0.00  0.00    +0.000 A 
ATOM      6  C   UNL     1      34.796  -2.914  15.414  0.00  0.00    +0.000 C 
ATOM      7  C   UNL     1      34.406  -4.174  14.629  0.00  0.00    +0.000 C 
ATOM      8  C   UNL     1      34.487  -5.318  15.610  0.00  0.00    +0.000 C 
ATOM      9  C   UNL     1      35.838  -5.461  16.218  0.00  0.00    +0.000 C 
ENDROOT
BRANCH   1  11
ATOM     10  N   UNL     1      36.775   0.340  15.971  0.00  0.00    +0.000 NA
ATOM     11  C   UNL     1      36.950  -0.702  15.016  0.00  0.00    +0.000 C 
ATOM     12  O   UNL     1      36.847  -0.368  13.820  0.00  0.00    +0.000 OA
BRANCH  10  16
ATOM     13  C   UNL     1      35.817   4.270  14.756  0.00  0.00    +0.000 A 
ATOM     14  C   UNL     1      34.805   3.346  15.025  0.00  0.00    +0.000 A 
ATOM     15  C   UNL     1      35.179   2.068  15.421  0.00  0.00    +0.000 A 
ATOM     16  C   UNL     1      36.495   1.686  15.557  0.00  0.00    +0.000 A 
ATOM     17  C   UNL     1      37.475   2.593  15.293  0.00  0.00    +0.000 A 
ATOM     18  C   UNL     1      37.121   3.867  14.898  0.00  0.00    +0.000 A 
BRANCH  13  19
ATOM     19  O   UNL     1      35.520   5.567  14.355  0.00  0.00    +0.000 OA
BRANCH  19  20
ATOM     20  C   UNL     1      35.154   5.874  13.040  0.00  0.00    +0.000 C 
BRANCH  20  22
ATOM     21  C   UNL     1      33.733   7.414  14.364  0.00  0.00    +0.000 C 
ATOM     22  C   UNL     1      33.859   6.666  13.049  0.00  0.00    +0.000 C 
ENDBRANCH  20  22
ENDBRANCH  19  20
ENDBRANCH  13  19
ENDBRANCH  10  16
ENDBRANCH   1  11
BRANCH   2  23
ATOM     23  N   UNL     1      39.742  -1.659  15.555  0.00  0.00    +0.000 NA
ATOM     24  C   UNL     1      40.493  -1.799  14.346  0.00  0.00    +0.000 C 
ATOM     25  O   UNL     1      40.109  -2.582  13.461  0.00  0.00    +0.000 OA
BRANCH  24  26
ATOM     26  C   UNL     1      41.731  -1.009  14.147  0.00  0.00    +0.000 A 
ATOM     27  C   UNL     1      42.931  -1.438  14.629  0.00  0.00    +0.000 A 
ATOM     28  C   UNL     1      44.050  -0.673  14.419  0.00  0.00    +0.000 A 
ATOM     29  C   UNL     1      44.011   0.522  13.735  0.00  0.00    +0.000 A 
ATOM     30  C   UNL     1      42.776   0.921  13.262  0.00  0.00    +0.000 A 
ATOM     31  C   UNL     1      41.645   0.170  13.460  0.00  0.00    +0.000 A 
ENDBRANCH  24  26
ENDBRANCH   2  23
TORSDOF 7
ENDMDL
MODEL 7
REMARK VINA RESULT:      -6.8     25.081     26.987
REMARK  Name = 
REMARK  7 active torsions:
REMARK  status: ('A' for Active; 'I' for Inactive)
REMARK    1  A    between atoms: C_2  and  C_3
REMARK    2  A    between atoms: C_3  and  O_4
REMARK    3  A    between atoms: O_4  and  C_5
REMARK    4  A    between atoms: C_8  and  N_9
REMARK    5  A    between atoms: C_10  and  C_12
REMARK    6  A    between atoms: C_13  and  N_14
REMARK    7  A    between atoms: C_15  and  C_17
REMARK                            x       y       z     vdW  Elec       q    Type
REMARK                         _______ _______ _______ _____ _____    ______ ____
ROOT
ATOM      1  C   UNL     1      38.137   5.783  16.403  0.00  0.00    +0.000 A 
ATOM      2  C   UNL     1      37.799   6.775  15.512  0.00  0.00    +0.000 A 
ATOM      3  S   UNL     1      38.057   8.203  16.415  0.00  0.00    +0.000 S 
ATOM      4  C   UNL     1      38.578   7.516  17.873  0.00  0.00    +0.000 A 
ATOM      5  C   UNL     1      38.540   6.175  17.623  0.00  0.00    +0.000 A 
ATOM      6  C   UNL     1      38.968   5.288  18.789  0.00  0.00    +0.000 C 
ATOM      7  C   UNL     1      40.236   5.970  19.321  0.00  0.00    +0.000 C 
ATOM      8  C   UNL     1      39.770   7.213  20.039  0.00  0.00    +0.000 C 
ATOM      9  C   UNL     1      38.995   8.131  19.160  0.00  0.00    +0.000 C 
ENDROOT
BRANCH   1  11
ATOM     10  N   UNL     1      36.783   3.696  15.859  0.00  0.00    +0.000 NA
ATOM     11  C   UNL     1      38.038   4.360  15.966  0.00  0.00    +0.000 C 
ATOM     12  O   UNL     1      39.041   3.682  15.672  0.00  0.00    +0.000 OA
BRANCH  10  16
ATOM     13  C   UNL     1      36.527  -0.372  14.752  0.00  0.00    +0.000 A 
ATOM     14  C   UNL     1      36.358   0.010  16.084  0.00  0.00    +0.000 A 
ATOM     15  C   UNL     1      36.452   1.363  16.391  0.00  0.00    +0.000 A 
ATOM     16  C   UNL     1      36.704   2.326  15.438  0.00  0.00    +0.000 A 
ATOM     17  C   UNL     1      36.868   1.944  14.142  0.00  0.00    +0.000 A 
ATOM     18  C   UNL     1      36.777   0.605  13.821  0.00  0.00    +0.000 A 
BRANCH  13  19
ATOM     19  O   UNL     1      36.447  -1.705  14.370  0.00  0.00    +0.000 OA
BRANCH  19  20
ATOM     20  C   UNL     1      37.582  -2.457  14.048  0.00  0.00    +0.000 C 
BRANCH  20  22
ATOM     21  C   UNL     1      39.406  -2.603  15.720  0.00  0.00    +0.000 C 
ATOM     22  C   UNL     1      38.073  -3.185  15.287  0.00  0.00    +0.000 C 
ENDBRANCH  20  22
ENDBRANCH  19  20
ENDBRANCH  13  19
ENDBRANCH  10  16
ENDBRANCH   1  11
BRANCH   2  23
ATOM     23  N   UNL     1      37.337   6.639  14.144  0.00  0.00    +0.000 NA
ATOM     24  C   UNL     1      36.026   7.138  13.869  0.00  0.00    +0.000 C 
ATOM     25  O   UNL     1      35.352   7.652  14.777  0.00  0.00    +0.000 OA
BRANCH  24  26
ATOM     26  C   UNL     1      35.469   7.044  12.499  0.00  0.00    +0.000 A 
ATOM     27  C   UNL     1      36.217   6.576  11.461  0.00  0.00    +0.000 A 
ATOM     28  C   UNL     1      35.659   6.506  10.210  0.00  0.00    +0.000 A 
ATOM     29  C   UNL     1      34.361   6.892   9.957  0.00  0.00    +0.000 A 
ATOM     30  C   UNL     1      33.636   7.359  11.036  0.00  0.00    +0.000 A 
ATOM     31  C   UNL     1      34.176   7.437  12.295  0.00  0.00    +0.000 A 
ENDBRANCH  24  26
ENDBRANCH   2  23
TORSDOF 7
ENDMDL
MODEL 8
REMARK VINA RESULT:      -6.8     23.897     26.843
REMARK  Name = 
REMARK  7 active torsions:
REMARK  status: ('A' for Active; 'I' for Inactive)
REMARK    1  A    between atoms: C_2  and  C_3
REMARK    2  A    between atoms: C_3  and  O_4
REMARK    3  A    between atoms: O_4  and  C_5
REMARK    4  A    between atoms: C_8  and  N_9
REMARK    5  A    between atoms: C_10  and  C_12
REMARK    6  A    between atoms: C_13  and  N_14
REMARK    7  A    between atoms: C_15  and  C_17
REMARK                            x       y       z     vdW  Elec       q    Type
REMARK                         _______ _______ _______ _____ _____    ______ ____
ROOT
ATOM      1  C   UNL     1      37.151   4.681  15.488  0.00  0.00    +0.000 A 
ATOM      2  C   UNL     1      36.341   3.603  15.760  0.00  0.00    +0.000 A 
ATOM      3  S   UNL     1      35.071   3.788  14.629  0.00  0.00    +0.000 S 
ATOM      4  C   UNL     1      35.592   5.202  13.857  0.00  0.00    +0.000 A 
ATOM      5  C   UNL     1      36.757   5.504  14.503  0.00  0.00    +0.000 A 
ATOM      6  C   UNL     1      37.464   6.762  14.005  0.00  0.00    +0.000 C 
ATOM      7  C   UNL     1      37.402   6.635  12.476  0.00  0.00    +0.000 C 
ATOM      8  C   UNL     1      35.970   6.918  12.092  0.00  0.00    +0.000 C 
ATOM      9  C   UNL     1      35.004   5.995  12.747  0.00  0.00    +0.000 C 
ENDROOT
BRANCH   1  11
ATOM     10  N   UNL     1      38.593   6.015  17.110  0.00  0.00    +0.000 NA
ATOM     11  C   UNL     1      38.394   4.866  16.292  0.00  0.00    +0.000 C 
ATOM     12  O   UNL     1      39.318   4.030  16.292  0.00  0.00    +0.000 OA
BRANCH  10  16
ATOM     13  C   UNL     1      42.055   6.483  19.483  0.00  0.00    +0.000 A 
ATOM     14  C   UNL     1      40.814   6.252  20.080  0.00  0.00    +0.000 A 
ATOM     15  C   UNL     1      39.709   6.105  19.250  0.00  0.00    +0.000 A 
ATOM     16  C   UNL     1      39.795   6.179  17.877  0.00  0.00    +0.000 A 
ATOM     17  C   UNL     1      41.008   6.405  17.304  0.00  0.00    +0.000 A 
ATOM     18  C   UNL     1      42.116   6.552  18.114  0.00  0.00    +0.000 A 
BRANCH  13  19
ATOM     19  O   UNL     1      43.204   6.639  20.248  0.00  0.00    +0.000 OA
BRANCH  19  20
ATOM     20  C   UNL     1      43.387   5.970  21.463  0.00  0.00    +0.000 C 
BRANCH  20  22
ATOM     21  C   UNL     1      44.136   6.296  23.803  0.00  0.00    +0.000 C 
ATOM     22  C   UNL     1      44.246   6.818  22.382  0.00  0.00    +0.000 C 
ENDBRANCH  20  22
ENDBRANCH  19  20
ENDBRANCH  13  19
ENDBRANCH  10  16
ENDBRANCH   1  11
BRANCH   2  23
ATOM     23  N   UNL     1      36.522   2.568  16.758  0.00  0.00    +0.000 NA
ATOM     24  C   UNL     1      36.463   1.219  16.285  0.00  0.00    +0.000 C 
ATOM     25  O   UNL     1      36.267   0.990  15.080  0.00  0.00    +0.000 OA
BRANCH  24  26
ATOM     26  C   UNL     1      36.638   0.093  17.232  0.00  0.00    +0.000 A 
ATOM     27  C   UNL     1      36.128   0.144  18.494  0.00  0.00    +0.000 A 
ATOM     28  C   UNL     1      36.313  -0.923  19.336  0.00  0.00    +0.000 A 
ATOM     29  C   UNL     1      37.002  -2.054  18.955  0.00  0.00    +0.000 A 
ATOM     30  C   UNL     1      37.503  -2.066  17.668  0.00  0.00    +0.000 A 
ATOM     31  C   UNL     1      37.327  -1.009  16.810  0.00  0.00    +0.000 A 
ENDBRANCH  24  26
ENDBRANCH   2  23
TORSDOF 7
ENDMDL
MODEL 9
REMARK VINA RESULT:      -6.6     24.050     27.585
REMARK  Name = 
REMARK  7 active torsions:
REMARK  status: ('A' for Active; 'I' for Inactive)
REMARK    1  A    between atoms: C_2  and  C_3
REMARK    2  A    between atoms: C_3  and  O_4
REMARK    3  A    between atoms: O_4  and  C_5
REMARK    4  A    between atoms: C_8  and  N_9
REMARK    5  A    between atoms: C_10  and  C_12
REMARK    6  A    between atoms: C_13  and  N_14
REMARK    7  A    between atoms: C_15  and  C_17
REMARK                            x       y       z     vdW  Elec       q    Type
REMARK                         _______ _______ _______ _____ _____    ______ ____
ROOT
ATOM      1  C   UNL     1      36.932  -0.687  16.152  0.00  0.00    +0.000 A 
ATOM      2  C   UNL     1      36.233   0.496  16.220  0.00  0.00    +0.000 A 
ATOM      3  S   UNL     1      35.807   0.592  17.873  0.00  0.00    +0.000 S 
ATOM      4  C   UNL     1      36.514  -0.845  18.424  0.00  0.00    +0.000 A 
ATOM      5  C   UNL     1      37.073  -1.375  17.296  0.00  0.00    +0.000 A 
ATOM      6  C   UNL     1      37.795  -2.705  17.497  0.00  0.00    +0.000 C 
ATOM      7  C   UNL     1      38.617  -2.485  18.775  0.00  0.00    +0.000 C 
ATOM      8  C   UNL     1      37.628  -2.500  19.915  0.00  0.00    +0.000 C 
ATOM      9  C   UNL     1      36.569  -1.464  19.773  0.00  0.00    +0.000 C 
ENDROOT
BRANCH   1  11
ATOM     10  N   UNL     1      38.806  -0.799  14.431  0.00  0.00    +0.000 NA
ATOM     11  C   UNL     1      37.479  -1.123  14.834  0.00  0.00    +0.000 C 
ATOM     12  O   UNL     1      36.810  -1.791  14.023  0.00  0.00    +0.000 OA
BRANCH  10  16
ATOM     13  C   UNL     1      40.280  -1.931  10.638  0.00  0.00    +0.000 A 
ATOM     14  C   UNL     1      39.736  -0.660  10.835  0.00  0.00    +0.000 A 
ATOM     15  C   UNL     1      39.267  -0.342  12.105  0.00  0.00    +0.000 A 
ATOM     16  C   UNL     1      39.319  -1.226  13.160  0.00  0.00    +0.000 A 
ATOM     17  C   UNL     1      39.850  -2.462  12.958  0.00  0.00    +0.000 A 
ATOM     18  C   UNL     1      40.321  -2.794  11.704  0.00  0.00    +0.000 A 
BRANCH  13  19
ATOM     19  O   UNL     1      40.768  -2.320   9.397  0.00  0.00    +0.000 OA
BRANCH  19  20
ATOM     20  C   UNL     1      40.899  -3.665   9.037  0.00  0.00    +0.000 C 
BRANCH  20  22
ATOM     21  C   UNL     1      42.855  -5.014   9.743  0.00  0.00    +0.000 C 
ATOM     22  C   UNL     1      42.359  -3.972   8.757  0.00  0.00    +0.000 C 
ENDBRANCH  20  22
ENDBRANCH  19  20
ENDBRANCH  13  19
ENDBRANCH  10  16
ENDBRANCH   1  11
BRANCH   2  23
ATOM     23  N   UNL     1      35.934   1.429  15.152  0.00  0.00    +0.000 NA
ATOM     24  C   UNL     1      36.845   2.520  14.993  0.00  0.00    +0.000 C 
ATOM     25  O   UNL     1      37.825   2.626  15.749  0.00  0.00    +0.000 OA
BRANCH  24  26
ATOM     26  C   UNL     1      36.621   3.524  13.928  0.00  0.00    +0.000 A 
ATOM     27  C   UNL     1      35.742   4.552  14.095  0.00  0.00    +0.000 A 
ATOM     28  C   UNL     1      35.569   5.459  13.081  0.00  0.00    +0.000 A 
ATOM     29  C   UNL     1      36.253   5.373  11.888  0.00  0.00    +0.000 A 
ATOM     30  C   UNL     1      37.135   4.318  11.758  0.00  0.00    +0.000 A 
ATOM     31  C   UNL     1      37.323   3.401  12.761  0.00  0.00    +0.000 A 
ENDBRANCH  24  26
ENDBRANCH   2  23
TORSDOF 7
ENDMDL
MODEL 10
REMARK VINA RESULT:      -6.6     20.024     24.052
REMARK  Name = 
REMARK  7 active torsions:
REMARK  status: ('A' for Active; 'I' for Inactive)
REMARK    1  A    between atoms: C_2  and  C_3
REMARK    2  A    between atoms: C_3  and  O_4
REMARK    3  A    between atoms: O_4  and  C_5
REMARK    4  A    between atoms: C_8  and  N_9
REMARK    5  A    between atoms: C_10  and  C_12
REMARK    6  A    between atoms: C_13  and  N_14
REMARK    7  A    between atoms: C_15  and  C_17
REMARK                            x       y       z     vdW  Elec       q    Type
REMARK                         _______ _______ _______ _____ _____    ______ ____
ROOT
ATOM      1  C   UNL     1      17.939   0.359   2.908  0.00  0.00    +0.000 A 
ATOM      2  C   UNL     1      17.231   1.457   2.478  0.00  0.00    +0.000 A 
ATOM      3  S   UNL     1      18.131   1.982   1.123  0.00  0.00    +0.000 S 
ATOM      4  C   UNL     1      19.359   0.817   1.138  0.00  0.00    +0.000 A 
ATOM      5  C   UNL     1      19.039   0.034   2.210  0.00  0.00    +0.000 A 
ATOM      6  C   UNL     1      19.996  -1.126   2.471  0.00  0.00    +0.000 C 
ATOM      7  C   UNL     1      20.232  -1.727   1.078  0.00  0.00    +0.000 C 
ATOM      8  C   UNL     1      21.125  -0.753   0.350  0.00  0.00    +0.000 C 
ATOM      9  C   UNL     1      20.535   0.610   0.254  0.00  0.00    +0.000 C 
ENDROOT
BRANCH   1  11
ATOM     10  N   UNL     1      16.358  -1.302   4.018  0.00  0.00    +0.000 NA
ATOM     11  C   UNL     1      17.449  -0.390   4.102  0.00  0.00    +0.000 C 
ATOM     12  O   UNL     1      17.965  -0.259   5.229  0.00  0.00    +0.000 OA
BRANCH  10  16
ATOM     13  C   UNL     1      14.923  -3.289   7.457  0.00  0.00    +0.000 A 
ATOM     14  C   UNL     1      14.459  -2.012   7.133  0.00  0.00    +0.000 A 
ATOM     15  C   UNL     1      14.966  -1.406   5.990  0.00  0.00    +0.000 A 
ATOM     16  C   UNL     1      15.897  -2.014   5.176  0.00  0.00    +0.000 A 
ATOM     17  C   UNL     1      16.344  -3.258   5.500  0.00  0.00    +0.000 A 
ATOM     18  C   UNL     1      15.850  -3.874   6.633  0.00  0.00    +0.000 A 
BRANCH  13  19
ATOM     19  O   UNL     1      14.461  -3.957   8.585  0.00  0.00    +0.000 OA
BRANCH  19  20
ATOM     20  C   UNL     1      13.691  -3.320   9.564  0.00  0.00    +0.000 C 
BRANCH  20  22
ATOM     21  C   UNL     1      13.581  -3.888  11.975  0.00  0.00    +0.000 C 
ATOM     22  C   UNL     1      14.454  -3.308  10.877  0.00  0.00    +0.000 C 
ENDBRANCH  20  22
ENDBRANCH  19  20
ENDBRANCH  13  19
ENDBRANCH  10  16
ENDBRANCH   1  11
BRANCH   2  23
ATOM     23  N   UNL     1      16.020   2.025   3.037  0.00  0.00    +0.000 NA
ATOM     24  C   UNL     1      14.788   1.552   2.485  0.00  0.00    +0.000 C 
ATOM     25  O   UNL     1      14.798   0.703   1.579  0.00  0.00    +0.000 OA
BRANCH  24  26
ATOM     26  C   UNL     1      13.499   2.075   2.994  0.00  0.00    +0.000 A 
ATOM     27  C   UNL     1      13.036   3.302   2.625  0.00  0.00    +0.000 A 
ATOM     28  C   UNL     1      11.836   3.744   3.121  0.00  0.00    +0.000 A 
ATOM     29  C   UNL     1      11.072   2.991   3.985  0.00  0.00    +0.000 A 
ATOM     30  C   UNL     1      11.575   1.753   4.334  0.00  0.00    +0.000 A 
ATOM     31  C   UNL     1      12.772   1.292   3.848  0.00  0.00    +0.000 A 
ENDBRANCH  24  26
ENDBRANCH   2  23
TORSDOF 7
ENDMDL
