MODEL 1
REMARK VINA RESULT:      -5.8      0.000      0.000
REMARK  Name = 
REMARK  9 active torsions:
REMARK  status: ('A' for Active; 'I' for Inactive)
REMARK    1  A    between atoms: O_2  and  C_3
REMARK    2  A    between atoms: C_6  and  N_7
REMARK    3  A    between atoms: C_9  and  C_10
REMARK    4  A    between atoms: C_10  and  O_12
REMARK    5  A    between atoms: O_12  and  C_13
REMARK    6  A    between atoms: C_13  and  C_14
REMARK    7  A    between atoms: C_14  and  C_15
REMARK    8  A    between atoms: C_15  and  N_16
REMARK    9  A    between atoms: N_16  and  C_18
REMARK                            x       y       z     vdW  Elec       q    Type
REMARK                         _______ _______ _______ _____ _____    ______ ____
ROOT
ATOM      1  N   UNL     1      26.611  24.827  23.747  0.00  0.00    +0.000 N 
ATOM      2  C   UNL     1      26.504  23.675  22.938  0.00  0.00    +0.000 C 
ATOM      3  C   UNL     1      27.624  23.822  21.818  0.00  0.00    +0.000 C 
ATOM      4  C   UNL     1      27.582  25.444  21.720  0.00  0.00    +0.000 C 
ATOM      5  C   UNL     1      27.464  25.783  23.137  0.00  0.00    +0.000 C 
ATOM      6  O   UNL     1      27.995  26.722  23.723  0.00  0.00    +0.000 OA
ENDROOT
BRANCH   1  10
ATOM      7  C   UNL     1      24.406  25.586  27.201  0.00  0.00    +0.000 A 
ATOM      8  C   UNL     1      25.412  24.643  27.259  0.00  0.00    +0.000 A 
ATOM      9  C   UNL     1      26.191  24.336  26.147  0.00  0.00    +0.000 A 
ATOM     10  C   UNL     1      25.939  24.991  24.986  0.00  0.00    +0.000 A 
ATOM     11  C   UNL     1      24.915  25.940  24.946  0.00  0.00    +0.000 A 
ATOM     12  C   UNL     1      24.138  26.255  26.039  0.00  0.00    +0.000 A 
BRANCH   7  14
ATOM     13  C   UNL     1      24.195  26.438  29.493  0.00  0.00    +0.000 C 
ATOM     14  O   UNL     1      23.634  25.889  28.316  0.00  0.00    +0.000 OA
ENDBRANCH   7  14
ENDBRANCH   1  10
BRANCH   3  15
ATOM     15  C   UNL     1      28.894  23.693  22.759  0.00  0.00    +0.000 C 
ATOM     16  O   UNL     1      29.907  24.355  22.485  0.00  0.00    +0.000 OA
BRANCH  15  17
ATOM     17  O   UNL     1      28.799  22.850  23.843  0.00  0.00    +0.000 OA
BRANCH  17  18
ATOM     18  C   UNL     1      29.951  22.579  24.604  0.00  0.00    +0.000 C 
BRANCH  18  19
ATOM     19  C   UNL     1      29.699  23.184  25.982  0.00  0.00    +0.000 C 
BRANCH  19  20
ATOM     20  C   UNL     1      29.292  22.072  26.969  0.00  0.00    +0.000 C 
BRANCH  20  21
ATOM     21  N   UNL     1      29.561  22.632  28.274  0.00  0.00    +0.000 N 
ATOM     22  C   UNL     1      30.940  22.792  28.716  0.00  0.00    +0.000 C 
BRANCH  21  23
ATOM     23  C   UNL     1      28.500  23.020  29.103  0.00  0.00    +0.000 A 
ATOM     24  C   UNL     1      27.461  22.195  29.420  0.00  0.00    +0.000 A 
ATOM     25  C   UNL     1      26.420  22.595  30.224  0.00  0.00    +0.000 A 
ATOM     26  C   UNL     1      26.415  23.857  30.730  0.00  0.00    +0.000 A 
ATOM     27  C   UNL     1      27.451  24.707  30.424  0.00  0.00    +0.000 A 
ATOM     28  C   UNL     1      28.477  24.317  29.630  0.00  0.00    +0.000 A 
ENDBRANCH  21  23
ENDBRANCH  20  21
ENDBRANCH  19  20
ENDBRANCH  18  19
ENDBRANCH  17  18
ENDBRANCH  15  17
ENDBRANCH   3  15
TORSDOF 9
ENDMDL
MODEL 2
REMARK VINA RESULT:      -5.7      2.514      7.180
REMARK  Name = 
REMARK  9 active torsions:
REMARK  status: ('A' for Active; 'I' for Inactive)
REMARK    1  A    between atoms: O_2  and  C_3
REMARK    2  A    between atoms: C_6  and  N_7
REMARK    3  A    between atoms: C_9  and  C_10
REMARK    4  A    between atoms: C_10  and  O_12
REMARK    5  A    between atoms: O_12  and  C_13
REMARK    6  A    between atoms: C_13  and  C_14
REMARK    7  A    between atoms: C_14  and  C_15
REMARK    8  A    between atoms: C_15  and  N_16
REMARK    9  A    between atoms: N_16  and  C_18
REMARK                            x       y       z     vdW  Elec       q    Type
REMARK                         _______ _______ _______ _____ _____    ______ ____
ROOT
ATOM      1  N   UNL     1      28.808  23.013  29.239  0.00  0.00    +0.000 N 
ATOM      2  C   UNL     1      27.832  22.371  28.446  0.00  0.00    +0.000 C 
ATOM      3  C   UNL     1      26.579  22.140  29.399  0.00  0.00    +0.000 C 
ATOM      4  C   UNL     1      27.420  21.942  30.775  0.00  0.00    +0.000 C 
ATOM      5  C   UNL     1      28.434  22.983  30.608  0.00  0.00    +0.000 C 
ATOM      6  O   UNL     1      28.898  23.714  31.477  0.00  0.00    +0.000 OA
ENDROOT
BRANCH   1  10
ATOM      7  C   UNL     1      32.466  24.337  27.743  0.00  0.00    +0.000 A 
ATOM      8  C   UNL     1      31.440  25.252  27.871  0.00  0.00    +0.000 A 
ATOM      9  C   UNL     1      30.190  24.884  28.363  0.00  0.00    +0.000 A 
ATOM     10  C   UNL     1      29.996  23.590  28.721  0.00  0.00    +0.000 A 
ATOM     11  C   UNL     1      31.046  22.678  28.582  0.00  0.00    +0.000 A 
ATOM     12  C   UNL     1      32.287  23.028  28.098  0.00  0.00    +0.000 A 
BRANCH   7  14
ATOM     13  C   UNL     1      34.916  24.314  27.877  0.00  0.00    +0.000 C 
ATOM     14  O   UNL     1      33.711  24.711  27.253  0.00  0.00    +0.000 OA
ENDBRANCH   7  14
ENDBRANCH   1  10
BRANCH   3  15
ATOM     15  C   UNL     1      26.177  23.661  29.605  0.00  0.00    +0.000 C 
ATOM     16  O   UNL     1      25.789  24.027  30.725  0.00  0.00    +0.000 OA
BRANCH  15  17
ATOM     17  O   UNL     1      26.289  24.500  28.520  0.00  0.00    +0.000 OA
BRANCH  17  18
ATOM     18  C   UNL     1      25.135  24.823  27.782  0.00  0.00    +0.000 C 
BRANCH  18  19
ATOM     19  C   UNL     1      25.627  25.325  26.427  0.00  0.00    +0.000 C 
BRANCH  19  20
ATOM     20  C   UNL     1      27.167  25.302  26.395  0.00  0.00    +0.000 C 
BRANCH  20  21
ATOM     21  N   UNL     1      27.493  24.610  25.168  0.00  0.00    +0.000 N 
ATOM     22  C   UNL     1      26.449  24.374  24.179  0.00  0.00    +0.000 C 
BRANCH  21  23
ATOM     23  C   UNL     1      28.804  24.174  24.934  0.00  0.00    +0.000 A 
ATOM     24  C   UNL     1      29.800  25.003  24.509  0.00  0.00    +0.000 A 
ATOM     25  C   UNL     1      31.078  24.557  24.271  0.00  0.00    +0.000 A 
ATOM     26  C   UNL     1      31.374  23.244  24.464  0.00  0.00    +0.000 A 
ATOM     27  C   UNL     1      30.386  22.390  24.891  0.00  0.00    +0.000 A 
ATOM     28  C   UNL     1      29.125  22.825  25.125  0.00  0.00    +0.000 A 
ENDBRANCH  21  23
ENDBRANCH  20  21
ENDBRANCH  19  20
ENDBRANCH  18  19
ENDBRANCH  17  18
ENDBRANCH  15  17
ENDBRANCH   3  15
TORSDOF 9
ENDMDL
MODEL 3
REMARK VINA RESULT:      -5.6      1.663      5.649
REMARK  Name = 
REMARK  9 active torsions:
REMARK  status: ('A' for Active; 'I' for Inactive)
REMARK    1  A    between atoms: O_2  and  C_3
REMARK    2  A    between atoms: C_6  and  N_7
REMARK    3  A    between atoms: C_9  and  C_10
REMARK    4  A    between atoms: C_10  and  O_12
REMARK    5  A    between atoms: O_12  and  C_13
REMARK    6  A    between atoms: C_13  and  C_14
REMARK    7  A    between atoms: C_14  and  C_15
REMARK    8  A    between atoms: C_15  and  N_16
REMARK    9  A    between atoms: N_16  and  C_18
REMARK                            x       y       z     vdW  Elec       q    Type
REMARK                         _______ _______ _______ _____ _____    ______ ____
ROOT
ATOM      1  N   UNL     1      25.952  25.845  27.333  0.00  0.00    +0.000 N 
ATOM      2  C   UNL     1      26.913  26.494  28.138  0.00  0.00    +0.000 C 
ATOM      3  C   UNL     1      26.123  27.040  29.406  0.00  0.00    +0.000 C 
ATOM      4  C   UNL     1      24.714  27.319  28.647  0.00  0.00    +0.000 C 
ATOM      5  C   UNL     1      24.641  26.132  27.797  0.00  0.00    +0.000 C 
ATOM      6  O   UNL     1      23.640  25.480  27.515  0.00  0.00    +0.000 OA
ENDROOT
BRANCH   1  10
ATOM      7  C   UNL     1      27.026  23.803  23.862  0.00  0.00    +0.000 A 
ATOM      8  C   UNL     1      26.480  23.082  24.905  0.00  0.00    +0.000 A 
ATOM      9  C   UNL     1      26.097  23.694  26.095  0.00  0.00    +0.000 A 
ATOM     10  C   UNL     1      26.272  25.034  26.213  0.00  0.00    +0.000 A 
ATOM     11  C   UNL     1      26.828  25.747  25.148  0.00  0.00    +0.000 A 
ATOM     12  C   UNL     1      27.211  25.154  23.964  0.00  0.00    +0.000 A 
BRANCH   7  14
ATOM     13  C   UNL     1      28.272  23.806  21.747  0.00  0.00    +0.000 C 
ATOM     14  O   UNL     1      27.405  23.185  22.676  0.00  0.00    +0.000 OA
ENDBRANCH   7  14
ENDBRANCH   1  10
BRANCH   3  15
ATOM     15  C   UNL     1      25.751  25.640  30.051  0.00  0.00    +0.000 C 
ATOM     16  O   UNL     1      24.658  25.522  30.627  0.00  0.00    +0.000 OA
BRANCH  15  17
ATOM     17  O   UNL     1      26.668  24.620  29.931  0.00  0.00    +0.000 OA
BRANCH  17  18
ATOM     18  C   UNL     1      26.212  23.290  29.899  0.00  0.00    +0.000 C 
BRANCH  18  19
ATOM     19  C   UNL     1      27.461  22.414  29.950  0.00  0.00    +0.000 C 
BRANCH  19  20
ATOM     20  C   UNL     1      27.943  22.115  28.518  0.00  0.00    +0.000 C 
BRANCH  20  21
ATOM     21  N   UNL     1      29.196  22.826  28.402  0.00  0.00    +0.000 N 
ATOM     22  C   UNL     1      29.934  23.179  29.608  0.00  0.00    +0.000 C 
BRANCH  21  23
ATOM     23  C   UNL     1      29.695  23.168  27.138  0.00  0.00    +0.000 A 
ATOM     24  C   UNL     1      29.989  24.449  26.774  0.00  0.00    +0.000 A 
ATOM     25  C   UNL     1      30.465  24.770  25.525  0.00  0.00    +0.000 A 
ATOM     26  C   UNL     1      30.658  23.783  24.611  0.00  0.00    +0.000 A 
ATOM     27  C   UNL     1      30.369  22.484  24.954  0.00  0.00    +0.000 A 
ATOM     28  C   UNL     1      29.896  22.164  26.183  0.00  0.00    +0.000 A 
ENDBRANCH  21  23
ENDBRANCH  20  21
ENDBRANCH  19  20
ENDBRANCH  18  19
ENDBRANCH  17  18
ENDBRANCH  15  17
ENDBRANCH   3  15
TORSDOF 9
ENDMDL
MODEL 4
REMARK VINA RESULT:      -5.6      2.455      6.029
REMARK  Name = 
REMARK  9 active torsions:
REMARK  status: ('A' for Active; 'I' for Inactive)
REMARK    1  A    between atoms: O_2  and  C_3
REMARK    2  A    between atoms: C_6  and  N_7
REMARK    3  A    between atoms: C_9  and  C_10
REMARK    4  A    between atoms: C_10  and  O_12
REMARK    5  A    between atoms: O_12  and  C_13
REMARK    6  A    between atoms: C_13  and  C_14
REMARK    7  A    between atoms: C_14  and  C_15
REMARK    8  A    between atoms: C_15  and  N_16
REMARK    9  A    between atoms: N_16  and  C_18
REMARK                            x       y       z     vdW  Elec       q    Type
REMARK                         _______ _______ _______ _____ _____    ______ ____
ROOT
ATOM      1  N   UNL     1      26.714  23.758  28.116  0.00  0.00    +0.000 N 
ATOM      2  C   UNL     1      25.899  24.666  28.826  0.00  0.00    +0.000 C 
ATOM      3  C   UNL     1      26.056  24.284  30.363  0.00  0.00    +0.000 C 
ATOM      4  C   UNL     1      26.275  22.689  30.141  0.00  0.00    +0.000 C 
ATOM      5  C   UNL     1      27.151  22.712  28.970  0.00  0.00    +0.000 C 
ATOM      6  O   UNL     1      28.102  21.970  28.740  0.00  0.00    +0.000 OA
ENDROOT
BRANCH   1  10
ATOM      7  C   UNL     1      27.829  24.478  24.165  0.00  0.00    +0.000 A 
ATOM      8  C   UNL     1      27.108  23.334  24.446  0.00  0.00    +0.000 A 
ATOM      9  C   UNL     1      26.701  23.026  25.741  0.00  0.00    +0.000 A 
ATOM     10  C   UNL     1      27.029  23.885  26.739  0.00  0.00    +0.000 A 
ATOM     11  C   UNL     1      27.760  25.036  26.436  0.00  0.00    +0.000 A 
ATOM     12  C   UNL     1      28.170  25.354  25.159  0.00  0.00    +0.000 A 
BRANCH   7  14
ATOM     13  C   UNL     1      28.271  23.802  21.848  0.00  0.00    +0.000 C 
ATOM     14  O   UNL     1      28.230  24.779  22.870  0.00  0.00    +0.000 OA
ENDBRANCH   7  14
ENDBRANCH   1  10
BRANCH   3  15
ATOM     15  C   UNL     1      27.578  24.692  30.536  0.00  0.00    +0.000 C 
ATOM     16  O   UNL     1      28.300  24.000  31.270  0.00  0.00    +0.000 OA
BRANCH  15  17
ATOM     17  O   UNL     1      28.022  25.801  29.850  0.00  0.00    +0.000 OA
BRANCH  17  18
ATOM     18  C   UNL     1      29.342  26.245  30.046  0.00  0.00    +0.000 C 
BRANCH  18  19
ATOM     19  C   UNL     1      30.118  25.824  28.801  0.00  0.00    +0.000 C 
BRANCH  19  20
ATOM     20  C   UNL     1      31.022  24.623  29.135  0.00  0.00    +0.000 C 
BRANCH  20  21
ATOM     21  N   UNL     1      31.950  24.550  28.029  0.00  0.00    +0.000 N 
ATOM     22  C   UNL     1      33.277  25.137  28.166  0.00  0.00    +0.000 C 
BRANCH  21  23
ATOM     23  C   UNL     1      31.575  23.914  26.839  0.00  0.00    +0.000 A 
ATOM     24  C   UNL     1      31.951  24.359  25.605  0.00  0.00    +0.000 A 
ATOM     25  C   UNL     1      31.563  23.733  24.445  0.00  0.00    +0.000 A 
ATOM     26  C   UNL     1      30.777  22.625  24.516  0.00  0.00    +0.000 A 
ATOM     27  C   UNL     1      30.386  22.158  25.747  0.00  0.00    +0.000 A 
ATOM     28  C   UNL     1      30.764  22.774  26.893  0.00  0.00    +0.000 A 
ENDBRANCH  21  23
ENDBRANCH  20  21
ENDBRANCH  19  20
ENDBRANCH  18  19
ENDBRANCH  17  18
ENDBRANCH  15  17
ENDBRANCH   3  15
TORSDOF 9
ENDMDL
MODEL 5
REMARK VINA RESULT:      -5.5      2.766      7.026
REMARK  Name = 
REMARK  9 active torsions:
REMARK  status: ('A' for Active; 'I' for Inactive)
REMARK    1  A    between atoms: O_2  and  C_3
REMARK    2  A    between atoms: C_6  and  N_7
REMARK    3  A    between atoms: C_9  and  C_10
REMARK    4  A    between atoms: C_10  and  O_12
REMARK    5  A    between atoms: O_12  and  C_13
REMARK    6  A    between atoms: C_13  and  C_14
REMARK    7  A    between atoms: C_14  and  C_15
REMARK    8  A    between atoms: C_15  and  N_16
REMARK    9  A    between atoms: N_16  and  C_18
REMARK                            x       y       z     vdW  Elec       q    Type
REMARK                         _______ _______ _______ _____ _____    ______ ____
ROOT
ATOM      1  N   UNL     1      28.883  23.171  29.009  0.00  0.00    +0.000 N 
ATOM      2  C   UNL     1      27.655  22.476  29.070  0.00  0.00    +0.000 C 
ATOM      3  C   UNL     1      26.602  23.380  28.291  0.00  0.00    +0.000 C 
ATOM      4  C   UNL     1      27.264  24.814  28.674  0.00  0.00    +0.000 C 
ATOM      5  C   UNL     1      28.682  24.490  28.525  0.00  0.00    +0.000 C 
ATOM      6  O   UNL     1      29.565  25.211  28.069  0.00  0.00    +0.000 OA
ENDROOT
BRANCH   1  10
ATOM      7  C   UNL     1      32.409  21.548  30.525  0.00  0.00    +0.000 A 
ATOM      8  C   UNL     1      32.305  21.732  29.160  0.00  0.00    +0.000 A 
ATOM      9  C   UNL     1      31.159  22.269  28.581  0.00  0.00    +0.000 A 
ATOM     10  C   UNL     1      30.129  22.613  29.394  0.00  0.00    +0.000 A 
ATOM     11  C   UNL     1      30.252  22.417  30.772  0.00  0.00    +0.000 A 
ATOM     12  C   UNL     1      31.380  21.888  31.359  0.00  0.00    +0.000 A 
BRANCH   7  14
ATOM     13  C   UNL     1      34.674  21.814  31.433  0.00  0.00    +0.000 C 
ATOM     14  O   UNL     1      33.557  21.013  31.096  0.00  0.00    +0.000 OA
ENDBRANCH   7  14
ENDBRANCH   1  10
BRANCH   3  15
ATOM     15  C   UNL     1      27.221  23.234  26.838  0.00  0.00    +0.000 C 
ATOM     16  O   UNL     1      27.744  22.155  26.520  0.00  0.00    +0.000 OA
BRANCH  15  17
ATOM     17  O   UNL     1      27.139  24.323  25.999  0.00  0.00    +0.000 OA
BRANCH  17  18
ATOM     18  C   UNL     1      26.066  24.409  25.093  0.00  0.00    +0.000 C 
BRANCH  18  19
ATOM     19  C   UNL     1      26.670  24.864  23.767  0.00  0.00    +0.000 C 
BRANCH  19  20
ATOM     20  C   UNL     1      27.391  23.682  23.093  0.00  0.00    +0.000 C 
BRANCH  20  21
ATOM     21  N   UNL     1      28.683  24.212  22.719  0.00  0.00    +0.000 N 
ATOM     22  C   UNL     1      28.856  24.821  21.406  0.00  0.00    +0.000 C 
BRANCH  21  23
ATOM     23  C   UNL     1      29.757  24.144  23.616  0.00  0.00    +0.000 A 
ATOM     24  C   UNL     1      30.469  25.239  24.011  0.00  0.00    +0.000 A 
ATOM     25  C   UNL     1      31.530  25.154  24.881  0.00  0.00    +0.000 A 
ATOM     26  C   UNL     1      31.890  23.940  25.377  0.00  0.00    +0.000 A 
ATOM     27  C   UNL     1      31.187  22.823  24.994  0.00  0.00    +0.000 A 
ATOM     28  C   UNL     1      30.143  22.902  24.134  0.00  0.00    +0.000 A 
ENDBRANCH  21  23
ENDBRANCH  20  21
ENDBRANCH  19  20
ENDBRANCH  18  19
ENDBRANCH  17  18
ENDBRANCH  15  17
ENDBRANCH   3  15
TORSDOF 9
ENDMDL
MODEL 6
REMARK VINA RESULT:      -5.5      2.610      6.293
REMARK  Name = 
REMARK  9 active torsions:
REMARK  status: ('A' for Active; 'I' for Inactive)
REMARK    1  A    between atoms: O_2  and  C_3
REMARK    2  A    between atoms: C_6  and  N_7
REMARK    3  A    between atoms: C_9  and  C_10
REMARK    4  A    between atoms: C_10  and  O_12
REMARK    5  A    between atoms: O_12  and  C_13
REMARK    6  A    between atoms: C_13  and  C_14
REMARK    7  A    between atoms: C_14  and  C_15
REMARK    8  A    between atoms: C_15  and  N_16
REMARK    9  A    between atoms: N_16  and  C_18
REMARK                            x       y       z     vdW  Elec       q    Type
REMARK                         _______ _______ _______ _____ _____    ______ ____
ROOT
ATOM      1  N   UNL     1      31.530  22.742  27.469  0.00  0.00    +0.000 N 
ATOM      2  C   UNL     1      31.555  21.586  28.279  0.00  0.00    +0.000 C 
ATOM      3  C   UNL     1      32.315  22.005  29.613  0.00  0.00    +0.000 C 
ATOM      4  C   UNL     1      33.312  23.092  28.931  0.00  0.00    +0.000 C 
ATOM      5  C   UNL     1      32.387  23.740  28.002  0.00  0.00    +0.000 C 
ATOM      6  O   UNL     1      32.337  24.932  27.715  0.00  0.00    +0.000 OA
ENDROOT
BRANCH   1  10
ATOM      7  C   UNL     1      28.945  22.994  24.210  0.00  0.00    +0.000 A 
ATOM      8  C   UNL     1      30.283  23.270  24.009  0.00  0.00    +0.000 A 
ATOM      9  C   UNL     1      31.206  23.206  25.049  0.00  0.00    +0.000 A 
ATOM     10  C   UNL     1      30.761  22.862  26.283  0.00  0.00    +0.000 A 
ATOM     11  C   UNL     1      29.403  22.589  26.467  0.00  0.00    +0.000 A 
ATOM     12  C   UNL     1      28.478  22.647  25.448  0.00  0.00    +0.000 A 
BRANCH   7  14
ATOM     13  C   UNL     1      28.294  23.773  21.976  0.00  0.00    +0.000 C 
ATOM     14  O   UNL     1      28.029  23.057  23.167  0.00  0.00    +0.000 OA
ENDBRANCH   7  14
ENDBRANCH   1  10
BRANCH   3  15
ATOM     15  C   UNL     1      31.233  23.020  30.172  0.00  0.00    +0.000 C 
ATOM     16  O   UNL     1      31.623  24.040  30.762  0.00  0.00    +0.000 OA
BRANCH  15  17
ATOM     17  O   UNL     1      29.907  22.715  29.965  0.00  0.00    +0.000 OA
BRANCH  17  18
ATOM     18  C   UNL     1      28.965  23.758  29.903  0.00  0.00    +0.000 C 
BRANCH  18  19
ATOM     19  C   UNL     1      27.647  23.166  30.394  0.00  0.00    +0.000 C 
BRANCH  19  20
ATOM     20  C   UNL     1      26.713  22.915  29.194  0.00  0.00    +0.000 C 
BRANCH  20  21
ATOM     21  N   UNL     1      26.159  24.214  28.890  0.00  0.00    +0.000 N 
ATOM     22  C   UNL     1      25.529  24.992  29.950  0.00  0.00    +0.000 C 
BRANCH  21  23
ATOM     23  C   UNL     1      26.232  24.721  27.585  0.00  0.00    +0.000 A 
ATOM     24  C   UNL     1      25.377  24.346  26.591  0.00  0.00    +0.000 A 
ATOM     25  C   UNL     1      25.470  24.841  25.312  0.00  0.00    +0.000 A 
ATOM     26  C   UNL     1      26.444  25.742  25.015  0.00  0.00    +0.000 A 
ATOM     27  C   UNL     1      27.317  26.135  26.001  0.00  0.00    +0.000 A 
ATOM     28  C   UNL     1      27.230  25.647  27.262  0.00  0.00    +0.000 A 
ENDBRANCH  21  23
ENDBRANCH  20  21
ENDBRANCH  19  20
ENDBRANCH  18  19
ENDBRANCH  17  18
ENDBRANCH  15  17
ENDBRANCH   3  15
TORSDOF 9
ENDMDL
MODEL 7
REMARK VINA RESULT:      -5.5     16.466     18.924
REMARK  Name = 
REMARK  9 active torsions:
REMARK  status: ('A' for Active; 'I' for Inactive)
REMARK    1  A    between atoms: O_2  and  C_3
REMARK    2  A    between atoms: C_6  and  N_7
REMARK    3  A    between atoms: C_9  and  C_10
REMARK    4  A    between atoms: C_10  and  O_12
REMARK    5  A    between atoms: O_12  and  C_13
REMARK    6  A    between atoms: C_13  and  C_14
REMARK    7  A    between atoms: C_14  and  C_15
REMARK    8  A    between atoms: C_15  and  N_16
REMARK    9  A    between atoms: N_16  and  C_18
REMARK                            x       y       z     vdW  Elec       q    Type
REMARK                         _______ _______ _______ _____ _____    ______ ____
ROOT
ATOM      1  N   UNL     1      18.675  10.803  37.897  0.00  0.00    +0.000 N 
ATOM      2  C   UNL     1      19.493  11.885  38.289  0.00  0.00    +0.000 C 
ATOM      3  C   UNL     1      20.414  11.333  39.463  0.00  0.00    +0.000 C 
ATOM      4  C   UNL     1      19.338  10.278  40.069  0.00  0.00    +0.000 C 
ATOM      5  C   UNL     1      18.781   9.738  38.829  0.00  0.00    +0.000 C 
ATOM      6  O   UNL     1      18.454   8.576  38.606  0.00  0.00    +0.000 OA
ENDROOT
BRANCH   1  10
ATOM      7  C   UNL     1      16.539  10.547  34.327  0.00  0.00    +0.000 A 
ATOM      8  C   UNL     1      16.054  11.370  35.324  0.00  0.00    +0.000 A 
ATOM      9  C   UNL     1      16.713  11.507  36.543  0.00  0.00    +0.000 A 
ATOM     10  C   UNL     1      17.858  10.806  36.737  0.00  0.00    +0.000 A 
ATOM     11  C   UNL     1      18.331   9.976  35.717  0.00  0.00    +0.000 A 
ATOM     12  C   UNL     1      17.691   9.831  34.506  0.00  0.00    +0.000 A 
BRANCH   7  14
ATOM     13  C   UNL     1      15.239  11.510  32.482  0.00  0.00    +0.000 C 
ATOM     14  O   UNL     1      15.877  10.416  33.113  0.00  0.00    +0.000 OA
ENDBRANCH   7  14
ENDBRANCH   1  10
BRANCH   3  15
ATOM     15  C   UNL     1      21.268  10.307  38.606  0.00  0.00    +0.000 C 
ATOM     16  O   UNL     1      21.594   9.227  39.124  0.00  0.00    +0.000 OA
BRANCH  15  17
ATOM     17  O   UNL     1      21.599  10.672  37.321  0.00  0.00    +0.000 OA
BRANCH  17  18
ATOM     18  C   UNL     1      22.072   9.691  36.430  0.00  0.00    +0.000 C 
BRANCH  18  19
ATOM     19  C   UNL     1      23.593   9.708  36.553  0.00  0.00    +0.000 C 
BRANCH  19  20
ATOM     20  C   UNL     1      24.115  11.138  36.322  0.00  0.00    +0.000 C 
BRANCH  20  21
ATOM     21  N   UNL     1      24.677  11.528  37.596  0.00  0.00    +0.000 N 
ATOM     22  C   UNL     1      25.361  10.534  38.413  0.00  0.00    +0.000 C 
BRANCH  21  23
ATOM     23  C   UNL     1      24.567  12.854  38.036  0.00  0.00    +0.000 A 
ATOM     24  C   UNL     1      23.388  13.409  38.441  0.00  0.00    +0.000 A 
ATOM     25  C   UNL     1      23.294  14.716  38.857  0.00  0.00    +0.000 A 
ATOM     26  C   UNL     1      24.408  15.494  38.872  0.00  0.00    +0.000 A 
ATOM     27  C   UNL     1      25.607  14.956  38.467  0.00  0.00    +0.000 A 
ATOM     28  C   UNL     1      25.704  13.670  38.054  0.00  0.00    +0.000 A 
ENDBRANCH  21  23
ENDBRANCH  20  21
ENDBRANCH  19  20
ENDBRANCH  18  19
ENDBRANCH  17  18
ENDBRANCH  15  17
ENDBRANCH   3  15
TORSDOF 9
ENDMDL
MODEL 8
REMARK VINA RESULT:      -5.4      1.924      7.325
REMARK  Name = 
REMARK  9 active torsions:
REMARK  status: ('A' for Active; 'I' for Inactive)
REMARK    1  A    between atoms: O_2  and  C_3
REMARK    2  A    between atoms: C_6  and  N_7
REMARK    3  A    between atoms: C_9  and  C_10
REMARK    4  A    between atoms: C_10  and  O_12
REMARK    5  A    between atoms: O_12  and  C_13
REMARK    6  A    between atoms: C_13  and  C_14
REMARK    7  A    between atoms: C_14  and  C_15
REMARK    8  A    between atoms: C_15  and  N_16
REMARK    9  A    between atoms: N_16  and  C_18
REMARK                            x       y       z     vdW  Elec       q    Type
REMARK                         _______ _______ _______ _____ _____    ______ ____
ROOT
ATOM      1  N   UNL     1      28.515  22.996  28.715  0.00  0.00    +0.000 N 
ATOM      2  C   UNL     1      27.617  21.944  29.000  0.00  0.00    +0.000 C 
ATOM      3  C   UNL     1      26.763  22.426  30.253  0.00  0.00    +0.000 C 
ATOM      4  C   UNL     1      27.932  23.314  30.950  0.00  0.00    +0.000 C 
ATOM      5  C   UNL     1      28.511  23.950  29.767  0.00  0.00    +0.000 C 
ATOM      6  O   UNL     1      28.929  25.100  29.671  0.00  0.00    +0.000 OA
ENDROOT
BRANCH   1  10
ATOM      7  C   UNL     1      31.174  23.213  25.514  0.00  0.00    +0.000 A 
ATOM      8  C   UNL     1      29.824  23.128  25.240  0.00  0.00    +0.000 A 
ATOM      9  C   UNL     1      28.875  23.053  26.256  0.00  0.00    +0.000 A 
ATOM     10  C   UNL     1      29.309  23.065  27.542  0.00  0.00    +0.000 A 
ATOM     11  C   UNL     1      30.680  23.149  27.799  0.00  0.00    +0.000 A 
ATOM     12  C   UNL     1      31.630  23.225  26.804  0.00  0.00    +0.000 A 
BRANCH   7  14
ATOM     13  C   UNL     1      33.287  24.073  24.608  0.00  0.00    +0.000 C 
ATOM     14  O   UNL     1      32.115  23.290  24.494  0.00  0.00    +0.000 OA
ENDBRANCH   7  14
ENDBRANCH   1  10
BRANCH   3  15
ATOM     15  C   UNL     1      25.983  23.610  29.544  0.00  0.00    +0.000 C 
ATOM     16  O   UNL     1      25.540  24.535  30.244  0.00  0.00    +0.000 OA
BRANCH  15  17
ATOM     17  O   UNL     1      25.843  23.551  28.175  0.00  0.00    +0.000 OA
BRANCH  17  18
ATOM     18  C   UNL     1      25.617  24.739  27.457  0.00  0.00    +0.000 C 
BRANCH  18  19
ATOM     19  C   UNL     1      25.296  24.313  26.027  0.00  0.00    +0.000 C 
BRANCH  19  20
ATOM     20  C   UNL     1      25.891  25.333  25.037  0.00  0.00    +0.000 C 
BRANCH  20  21
ATOM     21  N   UNL     1      26.384  24.528  23.943  0.00  0.00    +0.000 N 
ATOM     22  C   UNL     1      25.817  23.205  23.712  0.00  0.00    +0.000 C 
BRANCH  21  23
ATOM     23  C   UNL     1      27.396  25.021  23.109  0.00  0.00    +0.000 A 
ATOM     24  C   UNL     1      27.773  26.332  23.089  0.00  0.00    +0.000 A 
ATOM     25  C   UNL     1      28.759  26.803  22.255  0.00  0.00    +0.000 A 
ATOM     26  C   UNL     1      29.391  25.941  21.415  0.00  0.00    +0.000 A 
ATOM     27  C   UNL     1      29.028  24.615  21.417  0.00  0.00    +0.000 A 
ATOM     28  C   UNL     1      28.055  24.148  22.236  0.00  0.00    +0.000 A 
ENDBRANCH  21  23
ENDBRANCH  20  21
ENDBRANCH  19  20
ENDBRANCH  18  19
ENDBRANCH  17  18
ENDBRANCH  15  17
ENDBRANCH   3  15
TORSDOF 9
ENDMDL
MODEL 9
REMARK VINA RESULT:      -5.4      2.566      6.008
REMARK  Name = 
REMARK  9 active torsions:
REMARK  status: ('A' for Active; 'I' for Inactive)
REMARK    1  A    between atoms: O_2  and  C_3
REMARK    2  A    between atoms: C_6  and  N_7
REMARK    3  A    between atoms: C_9  and  C_10
REMARK    4  A    between atoms: C_10  and  O_12
REMARK    5  A    between atoms: O_12  and  C_13
REMARK    6  A    between atoms: C_13  and  C_14
REMARK    7  A    between atoms: C_14  and  C_15
REMARK    8  A    between atoms: C_15  and  N_16
REMARK    9  A    between atoms: N_16  and  C_18
REMARK                            x       y       z     vdW  Elec       q    Type
REMARK                         _______ _______ _______ _____ _____    ______ ____
ROOT
ATOM      1  N   UNL     1      27.102  24.567  29.192  0.00  0.00    +0.000 N 
ATOM      2  C   UNL     1      27.936  25.690  29.383  0.00  0.00    +0.000 C 
ATOM      3  C   UNL     1      28.143  25.818  30.955  0.00  0.00    +0.000 C 
ATOM      4  C   UNL     1      26.687  25.238  31.386  0.00  0.00    +0.000 C 
ATOM      5  C   UNL     1      26.557  24.138  30.431  0.00  0.00    +0.000 C 
ATOM      6  O   UNL     1      26.068  23.031  30.635  0.00  0.00    +0.000 OA
ENDROOT
BRANCH   1  10
ATOM      7  C   UNL     1      26.064  23.114  25.426  0.00  0.00    +0.000 A 
ATOM      8  C   UNL     1      27.067  22.471  26.124  0.00  0.00    +0.000 A 
ATOM      9  C   UNL     1      27.468  22.898  27.387  0.00  0.00    +0.000 A 
ATOM     10  C   UNL     1      26.845  23.975  27.929  0.00  0.00    +0.000 A 
ATOM     11  C   UNL     1      25.834  24.614  27.206  0.00  0.00    +0.000 A 
ATOM     12  C   UNL     1      25.426  24.202  25.956  0.00  0.00    +0.000 A 
BRANCH   7  14
ATOM     13  C   UNL     1      25.823  23.483  23.012  0.00  0.00    +0.000 C 
ATOM     14  O   UNL     1      25.668  22.681  24.167  0.00  0.00    +0.000 OA
ENDBRANCH   7  14
ENDBRANCH   1  10
BRANCH   3  15
ATOM     15  C   UNL     1      28.982  24.491  31.175  0.00  0.00    +0.000 C 
ATOM     16  O   UNL     1      28.869  23.887  32.254  0.00  0.00    +0.000 OA
BRANCH  15  17
ATOM     17  O   UNL     1      29.793  24.073  30.144  0.00  0.00    +0.000 OA
BRANCH  17  18
ATOM     18  C   UNL     1      30.132  22.711  30.048  0.00  0.00    +0.000 C 
BRANCH  18  19
ATOM     19  C   UNL     1      31.446  22.656  29.275  0.00  0.00    +0.000 C 
BRANCH  19  20
ATOM     20  C   UNL     1      31.173  22.243  27.816  0.00  0.00    +0.000 C 
BRANCH  20  21
ATOM     21  N   UNL     1      31.536  23.405  27.037  0.00  0.00    +0.000 N 
ATOM     22  C   UNL     1      32.742  24.149  27.379  0.00  0.00    +0.000 C 
BRANCH  21  23
ATOM     23  C   UNL     1      30.735  23.807  25.961  0.00  0.00    +0.000 A 
ATOM     24  C   UNL     1      30.046  24.984  25.943  0.00  0.00    +0.000 A 
ATOM     25  C   UNL     1      29.252  25.359  24.884  0.00  0.00    +0.000 A 
ATOM     26  C   UNL     1      29.144  24.535  23.808  0.00  0.00    +0.000 A 
ATOM     27  C   UNL     1      29.828  23.343  23.804  0.00  0.00    +0.000 A 
ATOM     28  C   UNL     1      30.609  22.970  24.846  0.00  0.00    +0.000 A 
ENDBRANCH  21  23
ENDBRANCH  20  21
ENDBRANCH  19  20
ENDBRANCH  18  19
ENDBRANCH  17  18
ENDBRANCH  15  17
ENDBRANCH   3  15
TORSDOF 9
ENDMDL
MODEL 10
REMARK VINA RESULT:      -5.3      2.547      5.296
REMARK  Name = 
REMARK  9 active torsions:
REMARK  status: ('A' for Active; 'I' for Inactive)
REMARK    1  A    between atoms: O_2  and  C_3
REMARK    2  A    between atoms: C_6  and  N_7
REMARK    3  A    between atoms: C_9  and  C_10
REMARK    4  A    between atoms: C_10  and  O_12
REMARK    5  A    between atoms: O_12  and  C_13
REMARK    6  A    between atoms: C_13  and  C_14
REMARK    7  A    between atoms: C_14  and  C_15
REMARK    8  A    between atoms: C_15  and  N_16
REMARK    9  A    between atoms: N_16  and  C_18
REMARK                            x       y       z     vdW  Elec       q    Type
REMARK                         _______ _______ _______ _____ _____    ______ ____
ROOT
ATOM      1  N   UNL     1      29.520  24.859  23.191  0.00  0.00    +0.000 N 
ATOM      2  C   UNL     1      29.925  26.202  23.033  0.00  0.00    +0.000 C 
ATOM      3  C   UNL     1      29.283  26.695  21.664  0.00  0.00    +0.000 C 
ATOM      4  C   UNL     1      29.338  25.261  20.901  0.00  0.00    +0.000 C 
ATOM      5  C   UNL     1      28.932  24.375  21.992  0.00  0.00    +0.000 C 
ATOM      6  O   UNL     1      28.214  23.383  21.915  0.00  0.00    +0.000 OA
ENDROOT
BRANCH   1  10
ATOM      7  C   UNL     1      29.959  23.006  26.898  0.00  0.00    +0.000 A 
ATOM      8  C   UNL     1      30.129  22.244  25.759  0.00  0.00    +0.000 A 
ATOM      9  C   UNL     1      29.999  22.792  24.486  0.00  0.00    +0.000 A 
ATOM     10  C   UNL     1      29.696  24.111  24.383  0.00  0.00    +0.000 A 
ATOM     11  C   UNL     1      29.526  24.865  25.547  0.00  0.00    +0.000 A 
ATOM     12  C   UNL     1      29.653  24.336  26.812  0.00  0.00    +0.000 A 
BRANCH   7  14
ATOM     13  C   UNL     1      30.940  23.015  29.147  0.00  0.00    +0.000 C 
ATOM     14  O   UNL     1      30.093  22.451  28.165  0.00  0.00    +0.000 OA
ENDBRANCH   7  14
ENDBRANCH   1  10
BRANCH   3  15
ATOM     15  C   UNL     1      27.761  26.649  22.107  0.00  0.00    +0.000 C 
ATOM     16  O   UNL     1      26.914  26.269  21.284  0.00  0.00    +0.000 OA
BRANCH  15  17
ATOM     17  O   UNL     1      27.462  27.033  23.394  0.00  0.00    +0.000 OA
BRANCH  17  18
ATOM     18  C   UNL     1      26.892  28.299  23.617  0.00  0.00    +0.000 C 
BRANCH  18  19
ATOM     19  C   UNL     1      26.096  28.182  24.914  0.00  0.00    +0.000 C 
BRANCH  19  20
ATOM     20  C   UNL     1      24.762  27.463  24.640  0.00  0.00    +0.000 C 
BRANCH  20  21
ATOM     21  N   UNL     1      24.619  26.535  25.739  0.00  0.00    +0.000 N 
ATOM     22  C   UNL     1      23.836  26.921  26.907  0.00  0.00    +0.000 C 
BRANCH  21  23
ATOM     23  C   UNL     1      25.226  25.273  25.677  0.00  0.00    +0.000 A 
ATOM     24  C   UNL     1      25.409  24.591  24.510  0.00  0.00    +0.000 A 
ATOM     25  C   UNL     1      25.994  23.348  24.466  0.00  0.00    +0.000 A 
ATOM     26  C   UNL     1      26.411  22.766  25.622  0.00  0.00    +0.000 A 
ATOM     27  C   UNL     1      26.237  23.434  26.810  0.00  0.00    +0.000 A 
ATOM     28  C   UNL     1      25.659  24.659  26.857  0.00  0.00    +0.000 A 
ENDBRANCH  21  23
ENDBRANCH  20  21
ENDBRANCH  19  20
ENDBRANCH  18  19
ENDBRANCH  17  18
ENDBRANCH  15  17
ENDBRANCH   3  15
TORSDOF 9
ENDMDL
