MODEL 1
REMARK VINA RESULT:      -8.3      0.000      0.000
REMARK  Name = 
REMARK  9 active torsions:
REMARK  status: ('A' for Active; 'I' for Inactive)
REMARK    1  A    between atoms: C_2  and  C_3
REMARK    2  A    between atoms: C_7  and  C_8
REMARK    3  A    between atoms: C_10  and  N_11
REMARK    4  A    between atoms: C_12  and  C_14
REMARK    5  A    between atoms: C_14  and  O_15
REMARK    6  A    between atoms: O_15  and  C_16
REMARK    7  A    between atoms: C_16  and  C_18
REMARK    8  A    between atoms: C_18  and  C_19
REMARK    9  A    between atoms: C_22  and  C_23
REMARK                            x       y       z     vdW  Elec       q    Type
REMARK                         _______ _______ _______ _____ _____    ______ ____
ROOT
ATOM      1  O   UNL     1      38.567   3.116  15.751  0.00  0.00    +0.000 OA
ENDROOT
BRANCH   1   2
ATOM      2  C   UNL     1      38.061   3.955  16.745  0.00  0.00    +0.000 C 
ATOM      3  O   UNL     1      37.447   3.471  17.711  0.00  0.00    +0.000 OA
BRANCH   2   4
ATOM      4  C   UNL     1      38.305   5.394  16.564  0.00  0.00    +0.000 C 
BRANCH   4   5
ATOM      5  C   UNL     1      39.367   5.815  17.525  0.00  0.00    +0.000 A 
ATOM      6  C   UNL     1      39.029   6.041  18.851  0.00  0.00    +0.000 A 
ATOM      7  C   UNL     1      39.972   6.409  19.776  0.00  0.00    +0.000 A 
ATOM      8  C   UNL     1      41.316   6.572  19.427  0.00  0.00    +0.000 A 
ATOM      9  C   UNL     1      41.638   6.347  18.112  0.00  0.00    +0.000 A 
ATOM     10  C   UNL     1      40.692   5.977  17.175  0.00  0.00    +0.000 A 
BRANCH   8  11
ATOM     11  C   UNL     1      42.322   6.948  20.411  0.00  0.00    +0.000 A 
ATOM     12  C   UNL     1      42.682   8.262  20.662  0.00  0.00    +0.000 A 
ATOM     13  C   UNL     1      43.661   8.566  21.614  0.00  0.00    +0.000 A 
ATOM     14  C   UNL     1      44.284   7.569  22.318  0.00  0.00    +0.000 A 
ATOM     15  C   UNL     1      43.933   6.265  22.077  0.00  0.00    +0.000 A 
ATOM     16  C   UNL     1      42.967   5.968  21.137  0.00  0.00    +0.000 A 
ENDBRANCH   8  11
ENDBRANCH   4   5
ENDBRANCH   2   4
ENDBRANCH   1   2
BRANCH   1  17
ATOM     17  C   UNL     1      37.838   2.823  14.599  0.00  0.00    +0.000 C 
BRANCH  17  19
ATOM     18  N   UNL     1      37.440   0.538  15.636  0.00  0.00    +0.000 NA
ATOM     19  C   UNL     1      36.969   1.660  14.852  0.00  0.00    +0.000 C 
ATOM     20  O   UNL     1      35.815   1.604  14.408  0.00  0.00    +0.000 OA
BRANCH  18  26
ATOM     21  C   UNL     1      36.633  -1.608  14.908  0.00  0.00    +0.000 A 
ATOM     22  C   UNL     1      35.782  -2.693  15.045  0.00  0.00    +0.000 A 
ATOM     23  C   UNL     1      34.866  -2.735  16.062  0.00  0.00    +0.000 A 
ATOM     24  C   UNL     1      34.799  -1.671  16.961  0.00  0.00    +0.000 A 
ATOM     25  C   UNL     1      35.626  -0.600  16.840  0.00  0.00    +0.000 A 
ATOM     26  C   UNL     1      36.550  -0.549  15.823  0.00  0.00    +0.000 A 
BRANCH  21  28
ATOM     27  C   UNL     1      38.814  -2.442  14.006  0.00  0.00    +0.000 C 
ATOM     28  C   UNL     1      37.624  -1.553  13.823  0.00  0.00    +0.000 C 
ENDBRANCH  21  28
BRANCH  25  29
ATOM     29  C   UNL     1      35.541   0.523  17.792  0.00  0.00    +0.000 C 
ATOM     30  C   UNL     1      36.016   0.149  19.167  0.00  0.00    +0.000 C 
ENDBRANCH  25  29
ENDBRANCH  18  26
ENDBRANCH  17  19
ENDBRANCH   1  17
TORSDOF 9
ENDMDL
MODEL 2
REMARK VINA RESULT:      -8.2      1.405      2.884
REMARK  Name = 
REMARK  9 active torsions:
REMARK  status: ('A' for Active; 'I' for Inactive)
REMARK    1  A    between atoms: C_2  and  C_3
REMARK    2  A    between atoms: C_7  and  C_8
REMARK    3  A    between atoms: C_10  and  N_11
REMARK    4  A    between atoms: C_12  and  C_14
REMARK    5  A    between atoms: C_14  and  O_15
REMARK    6  A    between atoms: O_15  and  C_16
REMARK    7  A    between atoms: C_16  and  C_18
REMARK    8  A    between atoms: C_18  and  C_19
REMARK    9  A    between atoms: C_22  and  C_23
REMARK                            x       y       z     vdW  Elec       q    Type
REMARK                         _______ _______ _______ _____ _____    ______ ____
ROOT
ATOM      1  O   UNL     1      39.317   2.118  15.063  0.00  0.00    +0.000 OA
ENDROOT
BRANCH   1   2
ATOM      2  C   UNL     1      38.690   3.296  14.652  0.00  0.00    +0.000 C 
ATOM      3  O   UNL     1      38.832   3.698  13.484  0.00  0.00    +0.000 OA
BRANCH   2   4
ATOM      4  C   UNL     1      37.882   3.987  15.668  0.00  0.00    +0.000 C 
BRANCH   4   5
ATOM      5  C   UNL     1      38.803   4.756  16.556  0.00  0.00    +0.000 A 
ATOM      6  C   UNL     1      38.575   4.762  17.924  0.00  0.00    +0.000 A 
ATOM      7  C   UNL     1      39.405   5.437  18.784  0.00  0.00    +0.000 A 
ATOM      8  C   UNL     1      40.516   6.148  18.322  0.00  0.00    +0.000 A 
ATOM      9  C   UNL     1      40.730   6.135  16.966  0.00  0.00    +0.000 A 
ATOM     10  C   UNL     1      39.897   5.459  16.096  0.00  0.00    +0.000 A 
BRANCH   8  11
ATOM     11  C   UNL     1      41.406   6.852  19.234  0.00  0.00    +0.000 A 
ATOM     12  C   UNL     1      42.059   6.230  20.286  0.00  0.00    +0.000 A 
ATOM     13  C   UNL     1      42.898   6.957  21.138  0.00  0.00    +0.000 A 
ATOM     14  C   UNL     1      43.090   8.300  20.949  0.00  0.00    +0.000 A 
ATOM     15  C   UNL     1      42.448   8.925  19.910  0.00  0.00    +0.000 A 
ATOM     16  C   UNL     1      41.622   8.205  19.071  0.00  0.00    +0.000 A 
ENDBRANCH   8  11
ENDBRANCH   4   5
ENDBRANCH   2   4
ENDBRANCH   1   2
BRANCH   1  17
ATOM     17  C   UNL     1      39.207   0.936  14.332  0.00  0.00    +0.000 C 
BRANCH  17  19
ATOM     18  N   UNL     1      37.825  -0.315  16.058  0.00  0.00    +0.000 NA
ATOM     19  C   UNL     1      37.974   0.230  14.727  0.00  0.00    +0.000 C 
ATOM     20  O   UNL     1      37.031   0.084  13.939  0.00  0.00    +0.000 OA
BRANCH  18  26
ATOM     21  C   UNL     1      35.584  -0.235  16.928  0.00  0.00    +0.000 A 
ATOM     22  C   UNL     1      34.382  -0.849  17.242  0.00  0.00    +0.000 A 
ATOM     23  C   UNL     1      34.199  -2.185  16.997  0.00  0.00    +0.000 A 
ATOM     24  C   UNL     1      35.238  -2.920  16.427  0.00  0.00    +0.000 A 
ATOM     25  C   UNL     1      36.421  -2.332  16.115  0.00  0.00    +0.000 A 
ATOM     26  C   UNL     1      36.615  -0.992  16.356  0.00  0.00    +0.000 A 
BRANCH  21  28
ATOM     27  C   UNL     1      34.867   2.114  16.441  0.00  0.00    +0.000 C 
ATOM     28  C   UNL     1      35.791   1.198  17.182  0.00  0.00    +0.000 C 
ENDBRANCH  21  28
BRANCH  25  29
ATOM     29  C   UNL     1      37.516  -3.121  15.519  0.00  0.00    +0.000 C 
ATOM     30  C   UNL     1      37.227  -3.528  14.102  0.00  0.00    +0.000 C 
ENDBRANCH  25  29
ENDBRANCH  18  26
ENDBRANCH  17  19
ENDBRANCH   1  17
TORSDOF 9
ENDMDL
MODEL 3
REMARK VINA RESULT:      -8.0      1.941      3.994
REMARK  Name = 
REMARK  9 active torsions:
REMARK  status: ('A' for Active; 'I' for Inactive)
REMARK    1  A    between atoms: C_2  and  C_3
REMARK    2  A    between atoms: C_7  and  C_8
REMARK    3  A    between atoms: C_10  and  N_11
REMARK    4  A    between atoms: C_12  and  C_14
REMARK    5  A    between atoms: C_14  and  O_15
REMARK    6  A    between atoms: O_15  and  C_16
REMARK    7  A    between atoms: C_16  and  C_18
REMARK    8  A    between atoms: C_18  and  C_19
REMARK    9  A    between atoms: C_22  and  C_23
REMARK                            x       y       z     vdW  Elec       q    Type
REMARK                         _______ _______ _______ _____ _____    ______ ____
ROOT
ATOM      1  O   UNL     1      35.258   1.669  14.442  0.00  0.00    +0.000 OA
ENDROOT
BRANCH   1   2
ATOM      2  C   UNL     1      35.150   3.046  14.648  0.00  0.00    +0.000 C 
ATOM      3  O   UNL     1      34.240   3.494  15.367  0.00  0.00    +0.000 OA
BRANCH   2   4
ATOM      4  C   UNL     1      36.156   3.881  13.977  0.00  0.00    +0.000 C 
BRANCH   4   5
ATOM      5  C   UNL     1      37.051   4.468  15.018  0.00  0.00    +0.000 A 
ATOM      6  C   UNL     1      37.690   3.624  15.914  0.00  0.00    +0.000 A 
ATOM      7  C   UNL     1      38.537   4.112  16.876  0.00  0.00    +0.000 A 
ATOM      8  C   UNL     1      38.796   5.480  16.998  0.00  0.00    +0.000 A 
ATOM      9  C   UNL     1      38.158   6.306  16.106  0.00  0.00    +0.000 A 
ATOM     10  C   UNL     1      37.302   5.819  15.136  0.00  0.00    +0.000 A 
BRANCH   8  11
ATOM     11  C   UNL     1      39.708   5.999  18.008  0.00  0.00    +0.000 A 
ATOM     12  C   UNL     1      39.308   6.315  19.297  0.00  0.00    +0.000 A 
ATOM     13  C   UNL     1      40.225   6.819  20.227  0.00  0.00    +0.000 A 
ATOM     14  C   UNL     1      41.538   7.009  19.880  0.00  0.00    +0.000 A 
ATOM     15  C   UNL     1      41.941   6.699  18.607  0.00  0.00    +0.000 A 
ATOM     16  C   UNL     1      41.035   6.202  17.692  0.00  0.00    +0.000 A 
ENDBRANCH   8  11
ENDBRANCH   4   5
ENDBRANCH   2   4
ENDBRANCH   1   2
BRANCH   1  17
ATOM     17  C   UNL     1      36.398   1.100  13.875  0.00  0.00    +0.000 C 
BRANCH  17  19
ATOM     18  N   UNL     1      37.799  -0.012  15.678  0.00  0.00    +0.000 NA
ATOM     19  C   UNL     1      36.786  -0.093  14.648  0.00  0.00    +0.000 C 
ATOM     20  O   UNL     1      36.263  -1.195  14.445  0.00  0.00    +0.000 OA
BRANCH  18  26
ATOM     21  C   UNL     1      37.450  -1.458  17.569  0.00  0.00    +0.000 A 
ATOM     22  C   UNL     1      37.736  -2.610  18.283  0.00  0.00    +0.000 A 
ATOM     23  C   UNL     1      38.673  -3.499  17.824  0.00  0.00    +0.000 A 
ATOM     24  C   UNL     1      39.336  -3.229  16.628  0.00  0.00    +0.000 A 
ATOM     25  C   UNL     1      39.066  -2.104  15.916  0.00  0.00    +0.000 A 
ATOM     26  C   UNL     1      38.127  -1.206  16.368  0.00  0.00    +0.000 A 
BRANCH  21  28
ATOM     27  C   UNL     1      35.021  -0.938  17.887  0.00  0.00    +0.000 C 
ATOM     28  C   UNL     1      36.443  -0.500  18.048  0.00  0.00    +0.000 C 
ENDBRANCH  21  28
BRANCH  25  29
ATOM     29  C   UNL     1      39.779  -1.826  14.656  0.00  0.00    +0.000 C 
ATOM     30  C   UNL     1      41.216  -2.262  14.699  0.00  0.00    +0.000 C 
ENDBRANCH  25  29
ENDBRANCH  18  26
ENDBRANCH  17  19
ENDBRANCH   1  17
TORSDOF 9
ENDMDL
MODEL 4
REMARK VINA RESULT:      -8.0      1.999      4.089
REMARK  Name = 
REMARK  9 active torsions:
REMARK  status: ('A' for Active; 'I' for Inactive)
REMARK    1  A    between atoms: C_2  and  C_3
REMARK    2  A    between atoms: C_7  and  C_8
REMARK    3  A    between atoms: C_10  and  N_11
REMARK    4  A    between atoms: C_12  and  C_14
REMARK    5  A    between atoms: C_14  and  O_15
REMARK    6  A    between atoms: O_15  and  C_16
REMARK    7  A    between atoms: C_16  and  C_18
REMARK    8  A    between atoms: C_18  and  C_19
REMARK    9  A    between atoms: C_22  and  C_23
REMARK                            x       y       z     vdW  Elec       q    Type
REMARK                         _______ _______ _______ _____ _____    ______ ____
ROOT
ATOM      1  O   UNL     1      38.242   1.450  13.017  0.00  0.00    +0.000 OA
ENDROOT
BRANCH   1   2
ATOM      2  C   UNL     1      37.632   2.626  12.574  0.00  0.00    +0.000 C 
ATOM      3  O   UNL     1      37.865   3.050  11.429  0.00  0.00    +0.000 OA
BRANCH   2   4
ATOM      4  C   UNL     1      36.733   3.288  13.530  0.00  0.00    +0.000 C 
BRANCH   4   5
ATOM      5  C   UNL     1      37.562   3.894  14.613  0.00  0.00    +0.000 A 
ATOM      6  C   UNL     1      38.897   4.179  14.364  0.00  0.00    +0.000 A 
ATOM      7  C   UNL     1      39.695   4.754  15.320  0.00  0.00    +0.000 A 
ATOM      8  C   UNL     1      39.201   5.081  16.586  0.00  0.00    +0.000 A 
ATOM      9  C   UNL     1      37.879   4.794  16.821  0.00  0.00    +0.000 A 
ATOM     10  C   UNL     1      37.072   4.213  15.862  0.00  0.00    +0.000 A 
BRANCH   8  11
ATOM     11  C   UNL     1      40.043   5.707  17.597  0.00  0.00    +0.000 A 
ATOM     12  C   UNL     1      41.282   6.260  17.314  0.00  0.00    +0.000 A 
ATOM     13  C   UNL     1      42.054   6.841  18.326  0.00  0.00    +0.000 A 
ATOM     14  C   UNL     1      41.599   6.876  19.619  0.00  0.00    +0.000 A 
ATOM     15  C   UNL     1      40.374   6.331  19.907  0.00  0.00    +0.000 A 
ATOM     16  C   UNL     1      39.615   5.758  18.907  0.00  0.00    +0.000 A 
ENDBRANCH   8  11
ENDBRANCH   4   5
ENDBRANCH   2   4
ENDBRANCH   1   2
BRANCH   1  17
ATOM     17  C   UNL     1      37.499   0.312  13.326  0.00  0.00    +0.000 C 
BRANCH  17  19
ATOM     18  N   UNL     1      36.870  -1.058  15.371  0.00  0.00    +0.000 NA
ATOM     19  C   UNL     1      37.577   0.056  14.776  0.00  0.00    +0.000 C 
ATOM     20  O   UNL     1      38.244   0.779  15.527  0.00  0.00    +0.000 OA
BRANCH  18  26
ATOM     21  C   UNL     1      35.962  -0.688  17.568  0.00  0.00    +0.000 A 
ATOM     22  C   UNL     1      36.027  -0.824  18.945  0.00  0.00    +0.000 A 
ATOM     23  C   UNL     1      37.077  -1.480  19.531  0.00  0.00    +0.000 A 
ATOM     24  C   UNL     1      38.083  -2.010  18.723  0.00  0.00    +0.000 A 
ATOM     25  C   UNL     1      38.033  -1.885  17.372  0.00  0.00    +0.000 A 
ATOM     26  C   UNL     1      36.983  -1.228  16.774  0.00  0.00    +0.000 A 
BRANCH  21  28
ATOM     27  C   UNL     1      34.919   1.504  16.954  0.00  0.00    +0.000 C 
ATOM     28  C   UNL     1      34.838   0.010  16.927  0.00  0.00    +0.000 C 
ENDBRANCH  21  28
BRANCH  25  29
ATOM     29  C   UNL     1      39.107  -2.443  16.529  0.00  0.00    +0.000 C 
ATOM     30  C   UNL     1      39.094  -3.945  16.499  0.00  0.00    +0.000 C 
ENDBRANCH  25  29
ENDBRANCH  18  26
ENDBRANCH  17  19
ENDBRANCH   1  17
TORSDOF 9
ENDMDL
MODEL 5
REMARK VINA RESULT:      -8.0      1.982      3.367
REMARK  Name = 
REMARK  9 active torsions:
REMARK  status: ('A' for Active; 'I' for Inactive)
REMARK    1  A    between atoms: C_2  and  C_3
REMARK    2  A    between atoms: C_7  and  C_8
REMARK    3  A    between atoms: C_10  and  N_11
REMARK    4  A    between atoms: C_12  and  C_14
REMARK    5  A    between atoms: C_14  and  O_15
REMARK    6  A    between atoms: O_15  and  C_16
REMARK    7  A    between atoms: C_16  and  C_18
REMARK    8  A    between atoms: C_18  and  C_19
REMARK    9  A    between atoms: C_22  and  C_23
REMARK                            x       y       z     vdW  Elec       q    Type
REMARK                         _______ _______ _______ _____ _____    ______ ____
ROOT
ATOM      1  O   UNL     1      36.275   1.445  16.564  0.00  0.00    +0.000 OA
ENDROOT
BRANCH   1   2
ATOM      2  C   UNL     1      36.976   2.193  15.616  0.00  0.00    +0.000 C 
ATOM      3  O   UNL     1      37.770   1.627  14.845  0.00  0.00    +0.000 OA
BRANCH   2   4
ATOM      4  C   UNL     1      36.708   3.639  15.605  0.00  0.00    +0.000 C 
BRANCH   4   5
ATOM      5  C   UNL     1      37.838   4.331  16.292  0.00  0.00    +0.000 A 
ATOM      6  C   UNL     1      37.907   4.304  17.677  0.00  0.00    +0.000 A 
ATOM      7  C   UNL     1      38.936   4.907  18.354  0.00  0.00    +0.000 A 
ATOM      8  C   UNL     1      39.963   5.576  17.680  0.00  0.00    +0.000 A 
ATOM      9  C   UNL     1      39.884   5.596  16.310  0.00  0.00    +0.000 A 
ATOM     10  C   UNL     1      38.848   4.991  15.624  0.00  0.00    +0.000 A 
BRANCH   8  11
ATOM     11  C   UNL     1      41.065   6.203  18.396  0.00  0.00    +0.000 A 
ATOM     12  C   UNL     1      42.249   6.579  17.784  0.00  0.00    +0.000 A 
ATOM     13  C   UNL     1      43.280   7.172  18.522  0.00  0.00    +0.000 A 
ATOM     14  C   UNL     1      43.138   7.392  19.867  0.00  0.00    +0.000 A 
ATOM     15  C   UNL     1      41.968   7.024  20.482  0.00  0.00    +0.000 A 
ATOM     16  C   UNL     1      40.953   6.440  19.751  0.00  0.00    +0.000 A 
ENDBRANCH   8  11
ENDBRANCH   4   5
ENDBRANCH   2   4
ENDBRANCH   1   2
BRANCH   1  17
ATOM     17  C   UNL     1      35.287   0.534  16.193  0.00  0.00    +0.000 C 
BRANCH  17  19
ATOM     18  N   UNL     1      36.278  -1.716  15.551  0.00  0.00    +0.000 NA
ATOM     19  C   UNL     1      35.720  -0.830  16.550  0.00  0.00    +0.000 C 
ATOM     20  O   UNL     1      35.622  -1.259  17.706  0.00  0.00    +0.000 OA
BRANCH  18  26
ATOM     21  C   UNL     1      35.698  -4.031  15.850  0.00  0.00    +0.000 A 
ATOM     22  C   UNL     1      36.017  -5.319  16.249  0.00  0.00    +0.000 A 
ATOM     23  C   UNL     1      37.257  -5.603  16.757  0.00  0.00    +0.000 A 
ATOM     24  C   UNL     1      38.196  -4.579  16.868  0.00  0.00    +0.000 A 
ATOM     25  C   UNL     1      37.899  -3.312  16.482  0.00  0.00    +0.000 A 
ATOM     26  C   UNL     1      36.657  -3.016  15.970  0.00  0.00    +0.000 A 
BRANCH  21  28
ATOM     27  C   UNL     1      33.877  -4.664  14.252  0.00  0.00    +0.000 C 
ATOM     28  C   UNL     1      34.372  -3.715  15.299  0.00  0.00    +0.000 C 
ENDBRANCH  21  28
BRANCH  25  29
ATOM     29  C   UNL     1      38.898  -2.235  16.612  0.00  0.00    +0.000 C 
ATOM     30  C   UNL     1      39.939  -2.281  15.530  0.00  0.00    +0.000 C 
ENDBRANCH  25  29
ENDBRANCH  18  26
ENDBRANCH  17  19
ENDBRANCH   1  17
TORSDOF 9
ENDMDL
MODEL 6
REMARK VINA RESULT:      -7.9      1.767      3.536
REMARK  Name = 
REMARK  9 active torsions:
REMARK  status: ('A' for Active; 'I' for Inactive)
REMARK    1  A    between atoms: C_2  and  C_3
REMARK    2  A    between atoms: C_7  and  C_8
REMARK    3  A    between atoms: C_10  and  N_11
REMARK    4  A    between atoms: C_12  and  C_14
REMARK    5  A    between atoms: C_14  and  O_15
REMARK    6  A    between atoms: O_15  and  C_16
REMARK    7  A    between atoms: C_16  and  C_18
REMARK    8  A    between atoms: C_18  and  C_19
REMARK    9  A    between atoms: C_22  and  C_23
REMARK                            x       y       z     vdW  Elec       q    Type
REMARK                         _______ _______ _______ _____ _____    ______ ____
ROOT
ATOM      1  O   UNL     1      35.295   2.866  16.287  0.00  0.00    +0.000 OA
ENDROOT
BRANCH   1   2
ATOM      2  C   UNL     1      35.604   3.640  15.166  0.00  0.00    +0.000 C 
ATOM      3  O   UNL     1      34.747   4.397  14.681  0.00  0.00    +0.000 OA
BRANCH   2   4
ATOM      4  C   UNL     1      36.968   3.492  14.634  0.00  0.00    +0.000 C 
BRANCH   4   5
ATOM      5  C   UNL     1      37.917   4.129  15.593  0.00  0.00    +0.000 A 
ATOM      6  C   UNL     1      39.012   4.825  15.101  0.00  0.00    +0.000 A 
ATOM      7  C   UNL     1      39.901   5.445  15.941  0.00  0.00    +0.000 A 
ATOM      8  C   UNL     1      39.747   5.406  17.330  0.00  0.00    +0.000 A 
ATOM      9  C   UNL     1      38.660   4.714  17.805  0.00  0.00    +0.000 A 
ATOM     10  C   UNL     1      37.762   4.086  16.964  0.00  0.00    +0.000 A 
BRANCH   8  11
ATOM     11  C   UNL     1      40.682   6.077  18.222  0.00  0.00    +0.000 A 
ATOM     12  C   UNL     1      41.948   6.478  17.829  0.00  0.00    +0.000 A 
ATOM     13  C   UNL     1      42.810   7.111  18.731  0.00  0.00    +0.000 A 
ATOM     14  C   UNL     1      42.418   7.349  20.023  0.00  0.00    +0.000 A 
ATOM     15  C   UNL     1      41.165   6.955  20.421  0.00  0.00    +0.000 A 
ATOM     16  C   UNL     1      40.318   6.330  19.528  0.00  0.00    +0.000 A 
ENDBRANCH   8  11
ENDBRANCH   4   5
ENDBRANCH   2   4
ENDBRANCH   1   2
BRANCH   1  17
ATOM     17  C   UNL     1      34.857   1.548  16.168  0.00  0.00    +0.000 C 
BRANCH  17  19
ATOM     18  N   UNL     1      36.317  -0.337  15.293  0.00  0.00    +0.000 NA
ATOM     19  C   UNL     1      36.004   0.635  16.318  0.00  0.00    +0.000 C 
ATOM     20  O   UNL     1      36.734   0.671  17.316  0.00  0.00    +0.000 OA
BRANCH  18  26
ATOM     21  C   UNL     1      37.170  -2.437  16.100  0.00  0.00    +0.000 A 
ATOM     22  C   UNL     1      38.221  -3.305  16.344  0.00  0.00    +0.000 A 
ATOM     23  C   UNL     1      39.505  -2.951  16.021  0.00  0.00    +0.000 A 
ATOM     24  C   UNL     1      39.741  -1.705  15.443  0.00  0.00    +0.000 A 
ATOM     25  C   UNL     1      38.720  -0.843  15.198  0.00  0.00    +0.000 A 
ATOM     26  C   UNL     1      37.428  -1.189  15.518  0.00  0.00    +0.000 A 
BRANCH  21  28
ATOM     27  C   UNL     1      35.089  -3.652  15.417  0.00  0.00    +0.000 C 
ATOM     28  C   UNL     1      35.787  -2.808  16.437  0.00  0.00    +0.000 C 
ENDBRANCH  21  28
BRANCH  25  29
ATOM     29  C   UNL     1      38.983   0.477  14.593  0.00  0.00    +0.000 C 
ATOM     30  C   UNL     1      40.441   0.699  14.308  0.00  0.00    +0.000 C 
ENDBRANCH  25  29
ENDBRANCH  18  26
ENDBRANCH  17  19
ENDBRANCH   1  17
TORSDOF 9
ENDMDL
MODEL 7
REMARK VINA RESULT:      -7.9     22.985     26.455
REMARK  Name = 
REMARK  9 active torsions:
REMARK  status: ('A' for Active; 'I' for Inactive)
REMARK    1  A    between atoms: C_2  and  C_3
REMARK    2  A    between atoms: C_7  and  C_8
REMARK    3  A    between atoms: C_10  and  N_11
REMARK    4  A    between atoms: C_12  and  C_14
REMARK    5  A    between atoms: C_14  and  O_15
REMARK    6  A    between atoms: O_15  and  C_16
REMARK    7  A    between atoms: C_16  and  C_18
REMARK    8  A    between atoms: C_18  and  C_19
REMARK    9  A    between atoms: C_22  and  C_23
REMARK                            x       y       z     vdW  Elec       q    Type
REMARK                         _______ _______ _______ _____ _____    ______ ____
ROOT
ATOM      1  O   UNL     1      13.898   0.125  28.586  0.00  0.00    +0.000 OA
ENDROOT
BRANCH   1   2
ATOM      2  C   UNL     1      14.915  -0.022  27.640  0.00  0.00    +0.000 C 
ATOM      3  O   UNL     1      14.657  -0.505  26.524  0.00  0.00    +0.000 OA
BRANCH   2   4
ATOM      4  C   UNL     1      16.253   0.425  28.055  0.00  0.00    +0.000 C 
BRANCH   4   5
ATOM      5  C   UNL     1      17.184   0.252  26.901  0.00  0.00    +0.000 A 
ATOM      6  C   UNL     1      17.787  -0.980  26.695  0.00  0.00    +0.000 A 
ATOM      7  C   UNL     1      18.634  -1.195  25.638  0.00  0.00    +0.000 A 
ATOM      8  C   UNL     1      18.928  -0.183  24.718  0.00  0.00    +0.000 A 
ATOM      9  C   UNL     1      18.326   1.032  24.932  0.00  0.00    +0.000 A 
ATOM     10  C   UNL     1      17.473   1.253  25.996  0.00  0.00    +0.000 A 
BRANCH   8  11
ATOM     11  C   UNL     1      19.814  -0.414  23.586  0.00  0.00    +0.000 A 
ATOM     12  C   UNL     1      20.532   0.598  22.968  0.00  0.00    +0.000 A 
ATOM     13  C   UNL     1      21.364   0.322  21.877  0.00  0.00    +0.000 A 
ATOM     14  C   UNL     1      21.485  -0.957  21.398  0.00  0.00    +0.000 A 
ATOM     15  C   UNL     1      20.778  -1.964  22.004  0.00  0.00    +0.000 A 
ATOM     16  C   UNL     1      19.959  -1.688  23.080  0.00  0.00    +0.000 A 
ENDBRANCH   8  11
ENDBRANCH   4   5
ENDBRANCH   2   4
ENDBRANCH   1   2
BRANCH   1  17
ATOM     17  C   UNL     1      12.821  -0.758  28.646  0.00  0.00    +0.000 C 
BRANCH  17  19
ATOM     18  N   UNL     1      11.654   0.050  26.539  0.00  0.00    +0.000 NA
ATOM     19  C   UNL     1      11.656  -0.157  27.971  0.00  0.00    +0.000 C 
ATOM     20  O   UNL     1      10.649   0.187  28.601  0.00  0.00    +0.000 OA
BRANCH  18  26
ATOM     21  C   UNL     1       9.536  -0.215  25.431  0.00  0.00    +0.000 A 
ATOM     22  C   UNL     1       8.393   0.318  24.856  0.00  0.00    +0.000 A 
ATOM     23  C   UNL     1       8.205   1.675  24.810  0.00  0.00    +0.000 A 
ATOM     24  C   UNL     1       9.179   2.514  25.350  0.00  0.00    +0.000 A 
ATOM     25  C   UNL     1      10.304   2.007  25.916  0.00  0.00    +0.000 A 
ATOM     26  C   UNL     1      10.503   0.647  25.967  0.00  0.00    +0.000 A 
BRANCH  21  28
ATOM     27  C   UNL     1      10.378  -2.269  24.272  0.00  0.00    +0.000 C 
ATOM     28  C   UNL     1       9.747  -1.669  25.490  0.00  0.00    +0.000 C 
ENDBRANCH  21  28
BRANCH  25  29
ATOM     29  C   UNL     1      11.331   2.905  26.476  0.00  0.00    +0.000 C 
ATOM     30  C   UNL     1      10.770   3.858  27.492  0.00  0.00    +0.000 C 
ENDBRANCH  25  29
ENDBRANCH  18  26
ENDBRANCH  17  19
ENDBRANCH   1  17
TORSDOF 9
ENDMDL
MODEL 8
REMARK VINA RESULT:      -7.9      1.741      2.940
REMARK  Name = 
REMARK  9 active torsions:
REMARK  status: ('A' for Active; 'I' for Inactive)
REMARK    1  A    between atoms: C_2  and  C_3
REMARK    2  A    between atoms: C_7  and  C_8
REMARK    3  A    between atoms: C_10  and  N_11
REMARK    4  A    between atoms: C_12  and  C_14
REMARK    5  A    between atoms: C_14  and  O_15
REMARK    6  A    between atoms: O_15  and  C_16
REMARK    7  A    between atoms: C_16  and  C_18
REMARK    8  A    between atoms: C_18  and  C_19
REMARK    9  A    between atoms: C_22  and  C_23
REMARK                            x       y       z     vdW  Elec       q    Type
REMARK                         _______ _______ _______ _____ _____    ______ ____
ROOT
ATOM      1  O   UNL     1      36.864   2.267  13.592  0.00  0.00    +0.000 OA
ENDROOT
BRANCH   1   2
ATOM      2  C   UNL     1      36.741   3.654  13.490  0.00  0.00    +0.000 C 
ATOM      3  O   UNL     1      37.127   4.235  12.462  0.00  0.00    +0.000 OA
BRANCH   2   4
ATOM      4  C   UNL     1      36.143   4.337  14.647  0.00  0.00    +0.000 C 
BRANCH   4   5
ATOM      5  C   UNL     1      37.246   4.821  15.529  0.00  0.00    +0.000 A 
ATOM      6  C   UNL     1      37.472   4.185  16.741  0.00  0.00    +0.000 A 
ATOM      7  C   UNL     1      38.486   4.579  17.576  0.00  0.00    +0.000 A 
ATOM      8  C   UNL     1      39.338   5.637  17.246  0.00  0.00    +0.000 A 
ATOM      9  C   UNL     1      39.104   6.258  16.044  0.00  0.00    +0.000 A 
ATOM     10  C   UNL     1      38.083   5.866  15.199  0.00  0.00    +0.000 A 
BRANCH   8  11
ATOM     11  C   UNL     1      40.425   6.046  18.125  0.00  0.00    +0.000 A 
ATOM     12  C   UNL     1      41.683   6.394  17.661  0.00  0.00    +0.000 A 
ATOM     13  C   UNL     1      42.694   6.773  18.551  0.00  0.00    +0.000 A 
ATOM     14  C   UNL     1      42.459   6.807  19.901  0.00  0.00    +0.000 A 
ATOM     15  C   UNL     1      41.216   6.464  20.369  0.00  0.00    +0.000 A 
ATOM     16  C   UNL     1      40.221   6.092  19.488  0.00  0.00    +0.000 A 
ENDBRANCH   8  11
ENDBRANCH   4   5
ENDBRANCH   2   4
ENDBRANCH   1   2
BRANCH   1  17
ATOM     17  C   UNL     1      35.986   1.508  14.365  0.00  0.00    +0.000 C 
BRANCH  17  19
ATOM     18  N   UNL     1      36.310  -0.715  15.550  0.00  0.00    +0.000 NA
ATOM     19  C   UNL     1      36.758   0.630  15.263  0.00  0.00    +0.000 C 
ATOM     20  O   UNL     1      37.808   1.010  15.797  0.00  0.00    +0.000 OA
BRANCH  18  26
ATOM     21  C   UNL     1      38.132  -2.254  15.868  0.00  0.00    +0.000 A 
ATOM     22  C   UNL     1      38.930  -3.034  16.688  0.00  0.00    +0.000 A 
ATOM     23  C   UNL     1      38.718  -3.065  18.042  0.00  0.00    +0.000 A 
ATOM     24  C   UNL     1      37.686  -2.300  18.584  0.00  0.00    +0.000 A 
ATOM     25  C   UNL     1      36.895  -1.531  17.793  0.00  0.00    +0.000 A 
ATOM     26  C   UNL     1      37.100  -1.493  16.434  0.00  0.00    +0.000 A 
BRANCH  21  28
ATOM     27  C   UNL     1      37.670  -3.290  13.635  0.00  0.00    +0.000 C 
ATOM     28  C   UNL     1      38.353  -2.210  14.415  0.00  0.00    +0.000 C 
ENDBRANCH  21  28
BRANCH  25  29
ATOM     29  C   UNL     1      35.802  -0.732  18.378  0.00  0.00    +0.000 C 
ATOM     30  C   UNL     1      36.302   0.480  19.112  0.00  0.00    +0.000 C 
ENDBRANCH  25  29
ENDBRANCH  18  26
ENDBRANCH  17  19
ENDBRANCH   1  17
TORSDOF 9
ENDMDL
MODEL 9
REMARK VINA RESULT:      -7.9      1.952      3.785
REMARK  Name = 
REMARK  9 active torsions:
REMARK  status: ('A' for Active; 'I' for Inactive)
REMARK    1  A    between atoms: C_2  and  C_3
REMARK    2  A    between atoms: C_7  and  C_8
REMARK    3  A    between atoms: C_10  and  N_11
REMARK    4  A    between atoms: C_12  and  C_14
REMARK    5  A    between atoms: C_14  and  O_15
REMARK    6  A    between atoms: O_15  and  C_16
REMARK    7  A    between atoms: C_16  and  C_18
REMARK    8  A    between atoms: C_18  and  C_19
REMARK    9  A    between atoms: C_22  and  C_23
REMARK                            x       y       z     vdW  Elec       q    Type
REMARK                         _______ _______ _______ _____ _____    ______ ____
ROOT
ATOM      1  O   UNL     1      35.399   1.878  14.593  0.00  0.00    +0.000 OA
ENDROOT
BRANCH   1   2
ATOM      2  C   UNL     1      35.146   3.246  14.713  0.00  0.00    +0.000 C 
ATOM      3  O   UNL     1      34.170   3.639  15.375  0.00  0.00    +0.000 OA
BRANCH   2   4
ATOM      4  C   UNL     1      36.088   4.141  14.025  0.00  0.00    +0.000 C 
BRANCH   4   5
ATOM      5  C   UNL     1      37.057   4.666  15.031  0.00  0.00    +0.000 A 
ATOM      6  C   UNL     1      37.620   3.792  15.949  0.00  0.00    +0.000 A 
ATOM      7  C   UNL     1      38.531   4.222  16.880  0.00  0.00    +0.000 A 
ATOM      8  C   UNL     1      38.935   5.559  16.946  0.00  0.00    +0.000 A 
ATOM      9  C   UNL     1      38.371   6.415  16.032  0.00  0.00    +0.000 A 
ATOM     10  C   UNL     1      37.452   5.987  15.094  0.00  0.00    +0.000 A 
BRANCH   8  11
ATOM     11  C   UNL     1      39.914   6.014  17.923  0.00  0.00    +0.000 A 
ATOM     12  C   UNL     1      41.233   6.288  17.602  0.00  0.00    +0.000 A 
ATOM     13  C   UNL     1      42.135   6.716  18.584  0.00  0.00    +0.000 A 
ATOM     14  C   UNL     1      41.729   6.872  19.884  0.00  0.00    +0.000 A 
ATOM     15  C   UNL     1      40.424   6.604  20.210  0.00  0.00    +0.000 A 
ATOM     16  C   UNL     1      39.538   6.182  19.240  0.00  0.00    +0.000 A 
ENDBRANCH   8  11
ENDBRANCH   4   5
ENDBRANCH   2   4
ENDBRANCH   1   2
BRANCH   1  17
ATOM     17  C   UNL     1      35.265   1.010  15.677  0.00  0.00    +0.000 C 
BRANCH  17  19
ATOM     18  N   UNL     1      36.901  -0.751  14.855  0.00  0.00    +0.000 NA
ATOM     19  C   UNL     1      36.508   0.234  15.839  0.00  0.00    +0.000 C 
ATOM     20  O   UNL     1      37.253   0.399  16.813  0.00  0.00    +0.000 OA
BRANCH  18  26
ATOM     21  C   UNL     1      39.274  -0.952  14.517  0.00  0.00    +0.000 A 
ATOM     22  C   UNL     1      40.475  -1.615  14.713  0.00  0.00    +0.000 A 
ATOM     23  C   UNL     1      40.522  -2.764  15.459  0.00  0.00    +0.000 A 
ATOM     24  C   UNL     1      39.345  -3.258  16.019  0.00  0.00    +0.000 A 
ATOM     25  C   UNL     1      38.160  -2.619  15.836  0.00  0.00    +0.000 A 
ATOM     26  C   UNL     1      38.103  -1.466  15.089  0.00  0.00    +0.000 A 
BRANCH  21  28
ATOM     27  C   UNL     1      39.756   1.502  14.400  0.00  0.00    +0.000 C 
ATOM     28  C   UNL     1      39.212   0.284  13.722  0.00  0.00    +0.000 C 
ENDBRANCH  21  28
BRANCH  25  29
ATOM     29  C   UNL     1      36.921  -3.157  16.427  0.00  0.00    +0.000 C 
ATOM     30  C   UNL     1      36.349  -4.295  15.631  0.00  0.00    +0.000 C 
ENDBRANCH  25  29
ENDBRANCH  18  26
ENDBRANCH  17  19
ENDBRANCH   1  17
TORSDOF 9
ENDMDL
MODEL 10
REMARK VINA RESULT:      -7.9      2.233      3.457
REMARK  Name = 
REMARK  9 active torsions:
REMARK  status: ('A' for Active; 'I' for Inactive)
REMARK    1  A    between atoms: C_2  and  C_3
REMARK    2  A    between atoms: C_7  and  C_8
REMARK    3  A    between atoms: C_10  and  N_11
REMARK    4  A    between atoms: C_12  and  C_14
REMARK    5  A    between atoms: C_14  and  O_15
REMARK    6  A    between atoms: O_15  and  C_16
REMARK    7  A    between atoms: C_16  and  C_18
REMARK    8  A    between atoms: C_18  and  C_19
REMARK    9  A    between atoms: C_22  and  C_23
REMARK                            x       y       z     vdW  Elec       q    Type
REMARK                         _______ _______ _______ _____ _____    ______ ____
ROOT
ATOM      1  O   UNL     1      35.318   1.484  14.304  0.00  0.00    +0.000 OA
ENDROOT
BRANCH   1   2
ATOM      2  C   UNL     1      35.318   2.867  14.499  0.00  0.00    +0.000 C 
ATOM      3  O   UNL     1      34.354   3.413  15.062  0.00  0.00    +0.000 OA
BRANCH   2   4
ATOM      4  C   UNL     1      36.501   3.590  14.007  0.00  0.00    +0.000 C 
BRANCH   4   5
ATOM      5  C   UNL     1      37.152   4.268  15.166  0.00  0.00    +0.000 A 
ATOM      6  C   UNL     1      37.430   5.624  15.088  0.00  0.00    +0.000 A 
ATOM      7  C   UNL     1      38.008   6.297  16.134  0.00  0.00    +0.000 A 
ATOM      8  C   UNL     1      38.344   5.648  17.326  0.00  0.00    +0.000 A 
ATOM      9  C   UNL     1      38.065   4.305  17.391  0.00  0.00    +0.000 A 
ATOM     10  C   UNL     1      37.484   3.623  16.340  0.00  0.00    +0.000 A 
BRANCH   8  11
ATOM     11  C   UNL     1      38.945   6.364  18.443  0.00  0.00    +0.000 A 
ATOM     12  C   UNL     1      38.374   7.489  19.016  0.00  0.00    +0.000 A 
ATOM     13  C   UNL     1      38.999   8.144  20.083  0.00  0.00    +0.000 A 
ATOM     14  C   UNL     1      40.189   7.683  20.584  0.00  0.00    +0.000 A 
ATOM     15  C   UNL     1      40.760   6.570  20.024  0.00  0.00    +0.000 A 
ATOM     16  C   UNL     1      40.142   5.926  18.971  0.00  0.00    +0.000 A 
ENDBRANCH   8  11
ENDBRANCH   4   5
ENDBRANCH   2   4
ENDBRANCH   1   2
BRANCH   1  17
ATOM     17  C   UNL     1      36.473   0.797  13.936  0.00  0.00    +0.000 C 
BRANCH  17  19
ATOM     18  N   UNL     1      37.892  -0.237  15.773  0.00  0.00    +0.000 NA
ATOM     19  C   UNL     1      36.732  -0.281  14.908  0.00  0.00    +0.000 C 
ATOM     20  O   UNL     1      35.972  -1.251  15.018  0.00  0.00    +0.000 OA
BRANCH  18  26
ATOM     21  C   UNL     1      38.859  -2.393  16.224  0.00  0.00    +0.000 A 
ATOM     22  C   UNL     1      39.069  -3.476  17.062  0.00  0.00    +0.000 A 
ATOM     23  C   UNL     1      38.520  -3.501  18.318  0.00  0.00    +0.000 A 
ATOM     24  C   UNL     1      37.747  -2.422  18.743  0.00  0.00    +0.000 A 
ATOM     25  C   UNL     1      37.532  -1.353  17.933  0.00  0.00    +0.000 A 
ATOM     26  C   UNL     1      38.078  -1.318  16.671  0.00  0.00    +0.000 A 
BRANCH  21  28
ATOM     27  C   UNL     1      40.900  -1.999  14.828  0.00  0.00    +0.000 C 
ATOM     28  C   UNL     1      39.446  -2.352  14.877  0.00  0.00    +0.000 C 
ENDBRANCH  21  28
BRANCH  25  29
ATOM     29  C   UNL     1      36.705  -0.221  18.390  0.00  0.00    +0.000 C 
ATOM     30  C   UNL     1      35.557  -0.658  19.254  0.00  0.00    +0.000 C 
ENDBRANCH  25  29
ENDBRANCH  18  26
ENDBRANCH  17  19
ENDBRANCH   1  17
TORSDOF 9
ENDMDL
