MODEL 1
REMARK VINA RESULT:      -7.9      0.000      0.000
REMARK  Name = 
REMARK  1 active torsions:
REMARK  status: ('A' for Active; 'I' for Inactive)
REMARK    1  A    between atoms: C_13  and  C_14
REMARK                            x       y       z     vdW  Elec       q    Type
REMARK                         _______ _______ _______ _____ _____    ______ ____
ROOT
ATOM      1  O   UNL     1      13.523  13.966  31.232  0.00  0.00    +0.000 OA
ATOM      2  N   UNL     1      14.345  13.074  31.886  0.00  0.00    +0.000 NA
ATOM      3  C   UNL     1      14.419  13.072  33.176  0.00  0.00    +0.000 C 
ATOM      4  C   UNL     1      13.629  14.019  33.998  0.00  0.00    +0.000 C 
ATOM      5  C   UNL     1      13.383  13.450  35.369  0.00  0.00    +0.000 C 
ATOM      6  C   UNL     1      14.720  13.209  36.078  0.00  0.00    +0.000 C 
ATOM      7  C   UNL     1      15.435  12.189  35.271  0.00  0.00    +0.000 A 
ATOM      8  C   UNL     1      15.292  12.127  33.902  0.00  0.00    +0.000 A 
ATOM      9  N   UNL     1      16.055  11.116  33.481  0.00  0.00    +0.000 NA
ATOM     10  C   UNL     1      16.673  10.541  34.526  0.00  0.00    +0.000 A 
ATOM     11  C   UNL     1      17.545   9.481  34.593  0.00  0.00    +0.000 A 
ATOM     12  C   UNL     1      18.030   9.099  35.819  0.00  0.00    +0.000 A 
ATOM     13  C   UNL     1      17.671   9.741  36.974  0.00  0.00    +0.000 A 
ATOM     14  C   UNL     1      16.802  10.798  36.918  0.00  0.00    +0.000 A 
ATOM     15  C   UNL     1      16.306  11.196  35.703  0.00  0.00    +0.000 A 
ENDROOT
BRANCH  13  16
ATOM     16  C   UNL     1      18.257   9.244  38.248  0.00  0.00    +0.000 C 
ATOM     17  C   UNL     1      19.649   9.755  38.439  0.00  0.00    +0.000 C 
ATOM     18  C   UNL     1      20.296   9.011  39.598  0.00  0.00    +0.000 C 
ATOM     19  C   UNL     1      19.195   8.307  40.399  0.00  0.00    +0.000 C 
ATOM     20  C   UNL     1      18.077   9.310  40.675  0.00  0.00    +0.000 C 
ATOM     21  C   UNL     1      17.376   9.707  39.382  0.00  0.00    +0.000 C 
ENDBRANCH  13  16
TORSDOF 1
ENDMDL
MODEL 2
REMARK VINA RESULT:      -7.8     29.494     31.765
REMARK  Name = 
REMARK  1 active torsions:
REMARK  status: ('A' for Active; 'I' for Inactive)
REMARK    1  A    between atoms: C_13  and  C_14
REMARK                            x       y       z     vdW  Elec       q    Type
REMARK                         _______ _______ _______ _____ _____    ______ ____
ROOT
ATOM      1  O   UNL     1      35.888  18.256   7.570  0.00  0.00    +0.000 OA
ATOM      2  N   UNL     1      35.061  18.817   8.518  0.00  0.00    +0.000 NA
ATOM      3  C   UNL     1      33.934  19.348   8.176  0.00  0.00    +0.000 C 
ATOM      4  C   UNL     1      33.489  19.376   6.762  0.00  0.00    +0.000 C 
ATOM      5  C   UNL     1      31.987  19.438   6.683  0.00  0.00    +0.000 C 
ATOM      6  C   UNL     1      31.484  20.716   7.363  0.00  0.00    +0.000 C 
ATOM      7  C   UNL     1      31.872  20.602   8.791  0.00  0.00    +0.000 A 
ATOM      8  C   UNL     1      33.029  19.957   9.172  0.00  0.00    +0.000 A 
ATOM      9  N   UNL     1      33.088  20.027  10.503  0.00  0.00    +0.000 NA
ATOM     10  C   UNL     1      32.018  20.690  10.976  0.00  0.00    +0.000 A 
ATOM     11  C   UNL     1      31.645  21.010  12.259  0.00  0.00    +0.000 A 
ATOM     12  C   UNL     1      30.478  21.707  12.454  0.00  0.00    +0.000 A 
ATOM     13  C   UNL     1      29.679  22.091  11.411  0.00  0.00    +0.000 A 
ATOM     14  C   UNL     1      30.043  21.777  10.128  0.00  0.00    +0.000 A 
ATOM     15  C   UNL     1      31.204  21.081   9.911  0.00  0.00    +0.000 A 
ENDROOT
BRANCH  13  16
ATOM     16  C   UNL     1      28.436  22.843  11.736  0.00  0.00    +0.000 C 
ATOM     17  C   UNL     1      27.222  22.114  11.257  0.00  0.00    +0.000 C 
ATOM     18  C   UNL     1      26.016  23.036  11.364  0.00  0.00    +0.000 C 
ATOM     19  C   UNL     1      26.383  24.211  12.276  0.00  0.00    +0.000 C 
ATOM     20  C   UNL     1      27.028  23.660  13.546  0.00  0.00    +0.000 C 
ATOM     21  C   UNL     1      28.374  23.020  13.233  0.00  0.00    +0.000 C 
ENDBRANCH  13  16
TORSDOF 1
ENDMDL
MODEL 3
REMARK VINA RESULT:      -7.6     19.220     20.073
REMARK  Name = 
REMARK  1 active torsions:
REMARK  status: ('A' for Active; 'I' for Inactive)
REMARK    1  A    between atoms: C_13  and  C_14
REMARK                            x       y       z     vdW  Elec       q    Type
REMARK                         _______ _______ _______ _____ _____    ______ ____
ROOT
ATOM      1  O   UNL     1      25.958  23.398  21.502  0.00  0.00    +0.000 OA
ATOM      2  N   UNL     1      26.329  23.187  22.812  0.00  0.00    +0.000 NA
ATOM      3  C   UNL     1      27.554  23.359  23.185  0.00  0.00    +0.000 C 
ATOM      4  C   UNL     1      28.601  23.786  22.227  0.00  0.00    +0.000 C 
ATOM      5  C   UNL     1      29.713  24.503  22.945  0.00  0.00    +0.000 C 
ATOM      6  C   UNL     1      30.361  23.564  23.968  0.00  0.00    +0.000 C 
ATOM      7  C   UNL     1      29.302  23.236  24.954  0.00  0.00    +0.000 A 
ATOM      8  C   UNL     1      27.978  23.139  24.583  0.00  0.00    +0.000 A 
ATOM      9  N   UNL     1      27.290  22.837  25.685  0.00  0.00    +0.000 NA
ATOM     10  C   UNL     1      28.124  22.738  26.734  0.00  0.00    +0.000 A 
ATOM     11  C   UNL     1      27.887  22.449  28.056  0.00  0.00    +0.000 A 
ATOM     12  C   UNL     1      28.948  22.414  28.927  0.00  0.00    +0.000 A 
ATOM     13  C   UNL     1      30.232  22.658  28.517  0.00  0.00    +0.000 A 
ATOM     14  C   UNL     1      30.478  22.947  27.201  0.00  0.00    +0.000 A 
ATOM     15  C   UNL     1      29.433  22.987  26.315  0.00  0.00    +0.000 A 
ENDROOT
BRANCH  13  16
ATOM     16  C   UNL     1      31.306  22.595  29.545  0.00  0.00    +0.000 C 
ATOM     17  C   UNL     1      30.763  22.158  30.868  0.00  0.00    +0.000 C 
ATOM     18  C   UNL     1      31.827  22.372  31.935  0.00  0.00    +0.000 C 
ATOM     19  C   UNL     1      33.178  22.571  31.240  0.00  0.00    +0.000 C 
ATOM     20  C   UNL     1      33.360  21.466  30.203  0.00  0.00    +0.000 C 
ATOM     21  C   UNL     1      32.353  21.619  29.069  0.00  0.00    +0.000 C 
ENDBRANCH  13  16
TORSDOF 1
ENDMDL
MODEL 4
REMARK VINA RESULT:      -7.4     21.270     23.828
REMARK  Name = 
REMARK  1 active torsions:
REMARK  status: ('A' for Active; 'I' for Inactive)
REMARK    1  A    between atoms: C_13  and  C_14
REMARK                            x       y       z     vdW  Elec       q    Type
REMARK                         _______ _______ _______ _____ _____    ______ ____
ROOT
ATOM      1  O   UNL     1      32.116  -9.733  27.937  0.00  0.00    +0.000 OA
ATOM      2  N   UNL     1      31.997  -8.971  29.079  0.00  0.00    +0.000 NA
ATOM      3  C   UNL     1      32.672  -7.877  29.213  0.00  0.00    +0.000 C 
ATOM      4  C   UNL     1      33.593  -7.402  28.154  0.00  0.00    +0.000 C 
ATOM      5  C   UNL     1      33.753  -5.907  28.225  0.00  0.00    +0.000 C 
ATOM      6  C   UNL     1      34.347  -5.513  29.581  0.00  0.00    +0.000 C 
ATOM      7  C   UNL     1      33.353  -5.926  30.602  0.00  0.00    +0.000 A 
ATOM      8  C   UNL     1      32.563  -7.042  30.427  0.00  0.00    +0.000 A 
ATOM      9  N   UNL     1      31.786  -7.138  31.507  0.00  0.00    +0.000 NA
ATOM     10  C   UNL     1      32.053  -6.130  32.355  0.00  0.00    +0.000 A 
ATOM     11  C   UNL     1      31.519  -5.811  33.580  0.00  0.00    +0.000 A 
ATOM     12  C   UNL     1      31.989  -4.702  34.239  0.00  0.00    +0.000 A 
ATOM     13  C   UNL     1      32.972  -3.908  33.713  0.00  0.00    +0.000 A 
ATOM     14  C   UNL     1      33.511  -4.217  32.493  0.00  0.00    +0.000 A 
ATOM     15  C   UNL     1      33.056  -5.321  31.817  0.00  0.00    +0.000 A 
ENDROOT
BRANCH  13  16
ATOM     16  C   UNL     1      33.407  -2.730  34.513  0.00  0.00    +0.000 C 
ATOM     17  C   UNL     1      33.759  -1.577  33.629  0.00  0.00    +0.000 C 
ATOM     18  C   UNL     1      34.449  -0.507  34.462  0.00  0.00    +0.000 C 
ATOM     19  C   UNL     1      34.188  -0.801  35.943  0.00  0.00    +0.000 C 
ATOM     20  C   UNL     1      32.695  -1.059  36.132  0.00  0.00    +0.000 C 
ATOM     21  C   UNL     1      32.278  -2.348  35.436  0.00  0.00    +0.000 C 
ENDBRANCH  13  16
TORSDOF 1
ENDMDL
MODEL 5
REMARK VINA RESULT:      -7.3      4.314      7.644
REMARK  Name = 
REMARK  1 active torsions:
REMARK  status: ('A' for Active; 'I' for Inactive)
REMARK    1  A    between atoms: C_13  and  C_14
REMARK                            x       y       z     vdW  Elec       q    Type
REMARK                         _______ _______ _______ _____ _____    ______ ____
ROOT
ATOM      1  O   UNL     1      19.620   6.424  42.685  0.00  0.00    +0.000 OA
ATOM      2  N   UNL     1      19.363   7.134  41.532  0.00  0.00    +0.000 NA
ATOM      3  C   UNL     1      18.323   7.896  41.447  0.00  0.00    +0.000 C 
ATOM      4  C   UNL     1      17.373   8.037  42.576  0.00  0.00    +0.000 C 
ATOM      5  C   UNL     1      16.666   9.364  42.508  0.00  0.00    +0.000 C 
ATOM      6  C   UNL     1      15.869   9.461  41.203  0.00  0.00    +0.000 C 
ATOM      7  C   UNL     1      16.867   9.407  40.107  0.00  0.00    +0.000 A 
ATOM      8  C   UNL     1      18.024   8.668  40.224  0.00  0.00    +0.000 A 
ATOM      9  N   UNL     1      18.699   8.825  39.084  0.00  0.00    +0.000 NA
ATOM     10  C   UNL     1      18.015   9.632  38.253  0.00  0.00    +0.000 A 
ATOM     11  C   UNL     1      18.301  10.080  36.987  0.00  0.00    +0.000 A 
ATOM     12  C   UNL     1      17.405  10.912  36.361  0.00  0.00    +0.000 A 
ATOM     13  C   UNL     1      16.240  11.307  36.962  0.00  0.00    +0.000 A 
ATOM     14  C   UNL     1      15.946  10.865  38.224  0.00  0.00    +0.000 A 
ATOM     15  C   UNL     1      16.827  10.033  38.867  0.00  0.00    +0.000 A 
ENDROOT
BRANCH  13  16
ATOM     16  C   UNL     1      15.341  12.211  36.193  0.00  0.00    +0.000 C 
ATOM     17  C   UNL     1      15.135  11.710  34.800  0.00  0.00    +0.000 C 
ATOM     18  C   UNL     1      14.446  12.792  33.981  0.00  0.00    +0.000 C 
ATOM     19  C   UNL     1      13.857  13.829  34.944  0.00  0.00    +0.000 C 
ATOM     20  C   UNL     1      13.079  13.095  36.034  0.00  0.00    +0.000 C 
ATOM     21  C   UNL     1      14.020  12.285  36.917  0.00  0.00    +0.000 C 
ENDBRANCH  13  16
TORSDOF 1
ENDMDL
MODEL 6
REMARK VINA RESULT:      -7.0     20.998     23.158
REMARK  Name = 
REMARK  1 active torsions:
REMARK  status: ('A' for Active; 'I' for Inactive)
REMARK    1  A    between atoms: C_13  and  C_14
REMARK                            x       y       z     vdW  Elec       q    Type
REMARK                         _______ _______ _______ _____ _____    ______ ____
ROOT
ATOM      1  O   UNL     1      16.748  -5.869  27.486  0.00  0.00    +0.000 OA
ATOM      2  N   UNL     1      17.931  -5.863  26.779  0.00  0.00    +0.000 NA
ATOM      3  C   UNL     1      18.666  -6.924  26.720  0.00  0.00    +0.000 C 
ATOM      4  C   UNL     1      18.271  -8.178  27.403  0.00  0.00    +0.000 C 
ATOM      5  C   UNL     1      18.881  -9.369  26.714  0.00  0.00    +0.000 C 
ATOM      6  C   UNL     1      20.409  -9.268  26.757  0.00  0.00    +0.000 C 
ATOM      7  C   UNL     1      20.762  -8.050  25.986  0.00  0.00    +0.000 A 
ATOM      8  C   UNL     1      19.939  -6.945  25.970  0.00  0.00    +0.000 A 
ATOM      9  N   UNL     1      20.532  -6.034  25.196  0.00  0.00    +0.000 NA
ATOM     10  C   UNL     1      21.694  -6.518  24.725  0.00  0.00    +0.000 A 
ATOM     11  C   UNL     1      22.641  -5.959  23.902  0.00  0.00    +0.000 A 
ATOM     12  C   UNL     1      23.753  -6.696  23.577  0.00  0.00    +0.000 A 
ATOM     13  C   UNL     1      23.944  -7.968  24.047  0.00  0.00    +0.000 A 
ATOM     14  C   UNL     1      23.006  -8.534  24.868  0.00  0.00    +0.000 A 
ATOM     15  C   UNL     1      21.888  -7.815  25.206  0.00  0.00    +0.000 A 
ENDROOT
BRANCH  13  16
ATOM     16  C   UNL     1      25.186  -8.676  23.631  0.00  0.00    +0.000 C 
ATOM     17  C   UNL     1      24.910  -9.645  22.526  0.00  0.00    +0.000 C 
ATOM     18  C   UNL     1      26.133 -10.529  22.326  0.00  0.00    +0.000 C 
ATOM     19  C   UNL     1      27.327  -9.872  23.027  0.00  0.00    +0.000 C 
ATOM     20  C   UNL     1      27.383  -8.401  22.619  0.00  0.00    +0.000 C 
ATOM     21  C   UNL     1      26.184  -7.642  23.173  0.00  0.00    +0.000 C 
ENDBRANCH  13  16
TORSDOF 1
ENDMDL
MODEL 7
REMARK VINA RESULT:      -6.9      1.461      2.213
REMARK  Name = 
REMARK  1 active torsions:
REMARK  status: ('A' for Active; 'I' for Inactive)
REMARK    1  A    between atoms: C_13  and  C_14
REMARK                            x       y       z     vdW  Elec       q    Type
REMARK                         _______ _______ _______ _____ _____    ______ ____
ROOT
ATOM      1  O   UNL     1      13.936  13.595  33.100  0.00  0.00    +0.000 OA
ATOM      2  N   UNL     1      14.857  12.841  33.794  0.00  0.00    +0.000 NA
ATOM      3  C   UNL     1      14.642  12.508  35.023  0.00  0.00    +0.000 C 
ATOM      4  C   UNL     1      13.406  12.919  35.731  0.00  0.00    +0.000 C 
ATOM      5  C   UNL     1      13.085  11.951  36.838  0.00  0.00    +0.000 C 
ATOM      6  C   UNL     1      14.229  11.929  37.856  0.00  0.00    +0.000 C 
ATOM      7  C   UNL     1      15.420  11.426  37.127  0.00  0.00    +0.000 A 
ATOM      8  C   UNL     1      15.613  11.700  35.790  0.00  0.00    +0.000 A 
ATOM      9  N   UNL     1      16.758  11.114  35.438  0.00  0.00    +0.000 NA
ATOM     10  C   UNL     1      17.295  10.483  36.497  0.00  0.00    +0.000 A 
ATOM     11  C   UNL     1      18.450   9.751  36.625  0.00  0.00    +0.000 A 
ATOM     12  C   UNL     1      18.758   9.209  37.848  0.00  0.00    +0.000 A 
ATOM     13  C   UNL     1      17.949   9.375  38.940  0.00  0.00    +0.000 A 
ATOM     14  C   UNL     1      16.796  10.103  38.823  0.00  0.00    +0.000 A 
ATOM     15  C   UNL     1      16.469  10.654  37.610  0.00  0.00    +0.000 A 
ENDROOT
BRANCH  13  16
ATOM     16  C   UNL     1      18.379   8.744  40.217  0.00  0.00    +0.000 C 
ATOM     17  C   UNL     1      18.923   7.370  39.985  0.00  0.00    +0.000 C 
ATOM     18  C   UNL     1      19.089   6.670  41.326  0.00  0.00    +0.000 C 
ATOM     19  C   UNL     1      19.028   7.725  42.436  0.00  0.00    +0.000 C 
ATOM     20  C   UNL     1      19.959   8.877  42.064  0.00  0.00    +0.000 C 
ATOM     21  C   UNL     1      19.437   9.619  40.841  0.00  0.00    +0.000 C 
ENDBRANCH  13  16
TORSDOF 1
ENDMDL
MODEL 8
REMARK VINA RESULT:      -6.8     18.837     20.380
REMARK  Name = 
REMARK  1 active torsions:
REMARK  status: ('A' for Active; 'I' for Inactive)
REMARK    1  A    between atoms: C_13  and  C_14
REMARK                            x       y       z     vdW  Elec       q    Type
REMARK                         _______ _______ _______ _____ _____    ______ ____
ROOT
ATOM      1  O   UNL     1      32.595  -3.479  35.900  0.00  0.00    +0.000 OA
ATOM      2  N   UNL     1      32.739  -2.197  35.417  0.00  0.00    +0.000 NA
ATOM      3  C   UNL     1      33.214  -1.260  36.169  0.00  0.00    +0.000 C 
ATOM      4  C   UNL     1      33.621  -1.524  37.570  0.00  0.00    +0.000 C 
ATOM      5  C   UNL     1      34.671  -0.539  38.009  0.00  0.00    +0.000 C 
ATOM      6  C   UNL     1      34.108   0.884  37.940  0.00  0.00    +0.000 C 
ATOM      7  C   UNL     1      33.800   1.136  36.511  0.00  0.00    +0.000 A 
ATOM      8  C   UNL     1      33.378   0.123  35.677  0.00  0.00    +0.000 A 
ATOM      9  N   UNL     1      33.189   0.668  34.474  0.00  0.00    +0.000 NA
ATOM     10  C   UNL     1      33.473   1.981  34.515  0.00  0.00    +0.000 A 
ATOM     11  C   UNL     1      33.429   2.949  33.541  0.00  0.00    +0.000 A 
ATOM     12  C   UNL     1      33.780   4.235  33.869  0.00  0.00    +0.000 A 
ATOM     13  C   UNL     1      34.172   4.580  35.135  0.00  0.00    +0.000 A 
ATOM     14  C   UNL     1      34.219   3.623  36.113  0.00  0.00    +0.000 A 
ATOM     15  C   UNL     1      33.872   2.332  35.807  0.00  0.00    +0.000 A 
ENDROOT
BRANCH  13  16
ATOM     16  C   UNL     1      34.532   6.003  35.379  0.00  0.00    +0.000 C 
ATOM     17  C   UNL     1      34.133   6.432  36.755  0.00  0.00    +0.000 C 
ATOM     18  C   UNL     1      34.266   7.944  36.861  0.00  0.00    +0.000 C 
ATOM     19  C   UNL     1      35.122   8.439  35.690  0.00  0.00    +0.000 C 
ATOM     20  C   UNL     1      36.377   7.574  35.604  0.00  0.00    +0.000 C 
ATOM     21  C   UNL     1      36.023   6.147  35.206  0.00  0.00    +0.000 C 
ENDBRANCH  13  16
TORSDOF 1
ENDMDL
MODEL 9
REMARK VINA RESULT:      -6.7     18.585     20.333
REMARK  Name = 
REMARK  1 active torsions:
REMARK  status: ('A' for Active; 'I' for Inactive)
REMARK    1  A    between atoms: C_13  and  C_14
REMARK                            x       y       z     vdW  Elec       q    Type
REMARK                         _______ _______ _______ _____ _____    ______ ____
ROOT
ATOM      1  O   UNL     1      31.703  21.630  33.603  0.00  0.00    +0.000 OA
ATOM      2  N   UNL     1      30.754  21.938  32.653  0.00  0.00    +0.000 NA
ATOM      3  C   UNL     1      31.073  22.011  31.404  0.00  0.00    +0.000 C 
ATOM      4  C   UNL     1      32.461  21.768  30.944  0.00  0.00    +0.000 C 
ATOM      5  C   UNL     1      32.469  21.292  29.516  0.00  0.00    +0.000 C 
ATOM      6  C   UNL     1      31.850  22.361  28.610  0.00  0.00    +0.000 C 
ATOM      7  C   UNL     1      30.439  22.505  29.047  0.00  0.00    +0.000 A 
ATOM      8  C   UNL     1      30.075  22.340  30.365  0.00  0.00    +0.000 A 
ATOM      9  N   UNL     1      28.756  22.532  30.427  0.00  0.00    +0.000 NA
ATOM     10  C   UNL     1      28.275  22.812  29.204  0.00  0.00    +0.000 A 
ATOM     11  C   UNL     1      26.999  23.082  28.772  0.00  0.00    +0.000 A 
ATOM     12  C   UNL     1      26.792  23.338  27.439  0.00  0.00    +0.000 A 
ATOM     13  C   UNL     1      27.817  23.332  26.531  0.00  0.00    +0.000 A 
ATOM     14  C   UNL     1      29.092  23.065  26.952  0.00  0.00    +0.000 A 
ATOM     15  C   UNL     1      29.321  22.807  28.279  0.00  0.00    +0.000 A 
ENDROOT
BRANCH  13  16
ATOM     16  C   UNL     1      27.479  23.623  25.111  0.00  0.00    +0.000 C 
ATOM     17  C   UNL     1      28.497  23.041  24.183  0.00  0.00    +0.000 C 
ATOM     18  C   UNL     1      28.264  23.591  22.784  0.00  0.00    +0.000 C 
ATOM     19  C   UNL     1      26.863  24.211  22.733  0.00  0.00    +0.000 C 
ATOM     20  C   UNL     1      25.869  23.219  23.331  0.00  0.00    +0.000 C 
ATOM     21  C   UNL     1      26.121  23.034  24.822  0.00  0.00    +0.000 C 
ENDBRANCH  13  16
TORSDOF 1
ENDMDL
MODEL 10
REMARK VINA RESULT:      -6.7     29.979     32.086
REMARK  Name = 
REMARK  1 active torsions:
REMARK  status: ('A' for Active; 'I' for Inactive)
REMARK    1  A    between atoms: C_13  and  C_14
REMARK                            x       y       z     vdW  Elec       q    Type
REMARK                         _______ _______ _______ _____ _____    ______ ____
ROOT
ATOM      1  O   UNL     1      37.837  20.627   8.386  0.00  0.00    +0.000 OA
ATOM      2  N   UNL     1      36.755  20.558   9.237  0.00  0.00    +0.000 NA
ATOM      3  C   UNL     1      35.741  21.341   9.075  0.00  0.00    +0.000 C 
ATOM      4  C   UNL     1      35.699  22.337   7.978  0.00  0.00    +0.000 C 
ATOM      5  C   UNL     1      34.276  22.653   7.606  0.00  0.00    +0.000 C 
ATOM      6  C   UNL     1      33.544  23.248   8.813  0.00  0.00    +0.000 C 
ATOM      7  C   UNL     1      33.531  22.187   9.850  0.00  0.00    +0.000 A 
ATOM      8  C   UNL     1      34.568  21.288   9.972  0.00  0.00    +0.000 A 
ATOM      9  N   UNL     1      34.257  20.475  10.983  0.00  0.00    +0.000 NA
ATOM     10  C   UNL     1      33.068  20.824  11.504  0.00  0.00    +0.000 A 
ATOM     11  C   UNL     1      32.342  20.293  12.542  0.00  0.00    +0.000 A 
ATOM     12  C   UNL     1      31.134  20.861  12.864  0.00  0.00    +0.000 A 
ATOM     13  C   UNL     1      30.633  21.937  12.181  0.00  0.00    +0.000 A 
ATOM     14  C   UNL     1      31.349  22.474  11.145  0.00  0.00    +0.000 A 
ATOM     15  C   UNL     1      32.558  21.923  10.807  0.00  0.00    +0.000 A 
ENDROOT
BRANCH  13  16
ATOM     16  C   UNL     1      29.314  22.473  12.614  0.00  0.00    +0.000 C 
ATOM     17  C   UNL     1      29.452  23.840  13.203  0.00  0.00    +0.000 C 
ATOM     18  C   UNL     1      28.141  24.226  13.872  0.00  0.00    +0.000 C 
ATOM     19  C   UNL     1      27.044  23.280  13.373  0.00  0.00    +0.000 C 
ATOM     20  C   UNL     1      27.121  23.204  11.851  0.00  0.00    +0.000 C 
ATOM     21  C   UNL     1      28.408  22.519  11.409  0.00  0.00    +0.000 C 
ENDBRANCH  13  16
TORSDOF 1
ENDMDL
