MODEL 1
REMARK VINA RESULT:      -8.5      0.000      0.000
REMARK  Name = 
REMARK  0 active torsions:
REMARK  status: ('A' for Active; 'I' for Inactive)
REMARK                            x       y       z     vdW  Elec       q    Type
REMARK                         _______ _______ _______ _____ _____    ______ ____
ROOT
ATOM      1  O   UNL     1      14.372  12.508  37.026  0.00  0.00    +0.000 OA
ATOM      2  C   UNL     1      14.880  12.186  35.927  0.00  0.00    +0.000 A 
ATOM      3  O   UNL     1      14.395  12.678  34.815  0.00  0.00    +0.000 OA
ATOM      4  C   UNL     1      14.876  12.386  33.623  0.00  0.00    +0.000 A 
ATOM      5  C   UNL     1      14.332  12.930  32.476  0.00  0.00    +0.000 A 
ATOM      6  C   UNL     1      14.909  12.560  31.280  0.00  0.00    +0.000 A 
ATOM      7  O   UNL     1      14.435  13.052  30.070  0.00  0.00    +0.000 OA
ATOM      8  C   UNL     1      15.984  11.686  31.221  0.00  0.00    +0.000 A 
ATOM      9  C   UNL     1      16.502  11.162  32.385  0.00  0.00    +0.000 A 
ATOM     10  C   UNL     1      15.942  11.518  33.585  0.00  0.00    +0.000 A 
ATOM     11  C   UNL     1      16.502  10.962  34.728  0.00  0.00    +0.000 A 
ATOM     12  O   UNL     1      17.473  10.144  34.999  0.00  0.00    +0.000 OA
ATOM     13  C   UNL     1      17.599   9.931  36.285  0.00  0.00    +0.000 A 
ATOM     14  C   UNL     1      18.455   9.163  37.073  0.00  0.00    +0.000 A 
ATOM     15  C   UNL     1      18.345   9.135  38.449  0.00  0.00    +0.000 A 
ATOM     16  O   UNL     1      19.221   8.352  39.221  0.00  0.00    +0.000 OA
ATOM     17  C   UNL     1      17.369   9.881  39.077  0.00  0.00    +0.000 A 
ATOM     18  C   UNL     1      16.515  10.645  38.311  0.00  0.00    +0.000 A 
ATOM     19  C   UNL     1      16.627  10.671  36.930  0.00  0.00    +0.000 A 
ATOM     20  C   UNL     1      15.937  11.323  35.926  0.00  0.00    +0.000 A 
ENDROOT
TORSDOF 0
ENDMDL
MODEL 2
REMARK VINA RESULT:      -8.2      0.856      6.146
REMARK  Name = 
REMARK  0 active torsions:
REMARK  status: ('A' for Active; 'I' for Inactive)
REMARK                            x       y       z     vdW  Elec       q    Type
REMARK                         _______ _______ _______ _____ _____    ______ ____
ROOT
ATOM      1  O   UNL     1      13.705  12.777  36.563  0.00  0.00    +0.000 OA
ATOM      2  C   UNL     1      14.739  12.071  36.507  0.00  0.00    +0.000 A 
ATOM      3  O   UNL     1      15.220  11.530  37.597  0.00  0.00    +0.000 OA
ATOM      4  C   UNL     1      16.300  10.776  37.616  0.00  0.00    +0.000 A 
ATOM      5  C   UNL     1      16.771  10.225  38.791  0.00  0.00    +0.000 A 
ATOM      6  C   UNL     1      17.909   9.452  38.702  0.00  0.00    +0.000 A 
ATOM      7  O   UNL     1      18.463   8.854  39.827  0.00  0.00    +0.000 OA
ATOM      8  C   UNL     1      18.556   9.232  37.496  0.00  0.00    +0.000 A 
ATOM      9  C   UNL     1      18.059   9.797  36.342  0.00  0.00    +0.000 A 
ATOM     10  C   UNL     1      16.928  10.569  36.409  0.00  0.00    +0.000 A 
ATOM     11  C   UNL     1      16.468  11.115  35.219  0.00  0.00    +0.000 A 
ATOM     12  O   UNL     1      16.833  11.099  33.973  0.00  0.00    +0.000 OA
ATOM     13  C   UNL     1      16.031  11.801  33.211  0.00  0.00    +0.000 A 
ATOM     14  C   UNL     1      15.980  12.095  31.849  0.00  0.00    +0.000 A 
ATOM     15  C   UNL     1      14.984  12.888  31.315  0.00  0.00    +0.000 A 
ATOM     16  O   UNL     1      14.955  13.170  29.939  0.00  0.00    +0.000 OA
ATOM     17  C   UNL     1      14.006  13.411  32.136  0.00  0.00    +0.000 A 
ATOM     18  C   UNL     1      14.044  13.128  33.485  0.00  0.00    +0.000 A 
ATOM     19  C   UNL     1      15.044  12.333  34.018  0.00  0.00    +0.000 A 
ATOM     20  C   UNL     1      15.335  11.887  35.293  0.00  0.00    +0.000 A 
ENDROOT
TORSDOF 0
ENDMDL
MODEL 3
REMARK VINA RESULT:      -7.7     21.056     22.510
REMARK  Name = 
REMARK  0 active torsions:
REMARK  status: ('A' for Active; 'I' for Inactive)
REMARK                            x       y       z     vdW  Elec       q    Type
REMARK                         _______ _______ _______ _____ _____    ______ ____
ROOT
ATOM      1  O   UNL     1      21.984 -10.527  25.526  0.00  0.00    +0.000 OA
ATOM      2  C   UNL     1      21.538  -9.358  25.575  0.00  0.00    +0.000 A 
ATOM      3  O   UNL     1      20.362  -9.129  26.100  0.00  0.00    +0.000 OA
ATOM      4  C   UNL     1      19.827  -7.927  26.186  0.00  0.00    +0.000 A 
ATOM      5  C   UNL     1      18.582  -7.734  26.750  0.00  0.00    +0.000 A 
ATOM      6  C   UNL     1      18.114  -6.437  26.791  0.00  0.00    +0.000 A 
ATOM      7  O   UNL     1      16.873  -6.138  27.339  0.00  0.00    +0.000 OA
ATOM      8  C   UNL     1      18.851  -5.374  26.294  0.00  0.00    +0.000 A 
ATOM      9  C   UNL     1      20.090  -5.603  25.738  0.00  0.00    +0.000 A 
ATOM     10  C   UNL     1      20.573  -6.885  25.687  0.00  0.00    +0.000 A 
ATOM     11  C   UNL     1      21.827  -7.061  25.117  0.00  0.00    +0.000 A 
ATOM     12  O   UNL     1      22.733  -6.302  24.581  0.00  0.00    +0.000 OA
ATOM     13  C   UNL     1      23.778  -6.982  24.180  0.00  0.00    +0.000 A 
ATOM     14  C   UNL     1      24.984  -6.654  23.562  0.00  0.00    +0.000 A 
ATOM     15  C   UNL     1      25.924  -7.615  23.250  0.00  0.00    +0.000 A 
ATOM     16  O   UNL     1      27.133  -7.259  22.627  0.00  0.00    +0.000 OA
ATOM     17  C   UNL     1      25.681  -8.940  23.551  0.00  0.00    +0.000 A 
ATOM     18  C   UNL     1      24.492  -9.279  24.162  0.00  0.00    +0.000 A 
ATOM     19  C   UNL     1      23.551  -8.312  24.473  0.00  0.00    +0.000 A 
ATOM     20  C   UNL     1      22.305  -8.348  25.070  0.00  0.00    +0.000 A 
ENDROOT
TORSDOF 0
ENDMDL
MODEL 4
REMARK VINA RESULT:      -7.5     18.595     20.498
REMARK  Name = 
REMARK  0 active torsions:
REMARK  status: ('A' for Active; 'I' for Inactive)
REMARK                            x       y       z     vdW  Elec       q    Type
REMARK                         _______ _______ _______ _____ _____    ______ ____
ROOT
ATOM      1  O   UNL     1      33.729   3.033  32.175  0.00  0.00    +0.000 OA
ATOM      2  C   UNL     1      33.769   2.187  33.098  0.00  0.00    +0.000 A 
ATOM      3  O   UNL     1      33.751   0.910  32.815  0.00  0.00    +0.000 OA
ATOM      4  C   UNL     1      33.791  -0.037  33.730  0.00  0.00    +0.000 A 
ATOM      5  C   UNL     1      33.771  -1.373  33.383  0.00  0.00    +0.000 A 
ATOM      6  C   UNL     1      33.816  -2.284  34.418  0.00  0.00    +0.000 A 
ATOM      7  O   UNL     1      33.800  -3.651  34.173  0.00  0.00    +0.000 OA
ATOM      8  C   UNL     1      33.879  -1.886  35.745  0.00  0.00    +0.000 A 
ATOM      9  C   UNL     1      33.898  -0.545  36.055  0.00  0.00    +0.000 A 
ATOM     10  C   UNL     1      33.853   0.376  35.041  0.00  0.00    +0.000 A 
ATOM     11  C   UNL     1      33.875   1.715  35.407  0.00  0.00    +0.000 A 
ATOM     12  O   UNL     1      33.928   2.387  36.517  0.00  0.00    +0.000 OA
ATOM     13  C   UNL     1      33.923   3.682  36.315  0.00  0.00    +0.000 A 
ATOM     14  C   UNL     1      33.965   4.804  37.142  0.00  0.00    +0.000 A 
ATOM     15  C   UNL     1      33.945   6.084  36.628  0.00  0.00    +0.000 A 
ATOM     16  O   UNL     1      33.988   7.199  37.483  0.00  0.00    +0.000 OA
ATOM     17  C   UNL     1      33.882   6.278  35.263  0.00  0.00    +0.000 A 
ATOM     18  C   UNL     1      33.840   5.178  34.434  0.00  0.00    +0.000 A 
ATOM     19  C   UNL     1      33.860   3.894  34.952  0.00  0.00    +0.000 A 
ATOM     20  C   UNL     1      33.831   2.633  34.387  0.00  0.00    +0.000 A 
ENDROOT
TORSDOF 0
ENDMDL
MODEL 5
REMARK VINA RESULT:      -7.5     21.156     22.660
REMARK  Name = 
REMARK  0 active torsions:
REMARK  status: ('A' for Active; 'I' for Inactive)
REMARK                            x       y       z     vdW  Elec       q    Type
REMARK                         _______ _______ _______ _____ _____    ______ ____
ROOT
ATOM      1  O   UNL     1      21.412 -10.617  26.118  0.00  0.00    +0.000 OA
ATOM      2  C   UNL     1      22.020  -9.649  25.605  0.00  0.00    +0.000 A 
ATOM      3  O   UNL     1      23.196  -9.831  25.061  0.00  0.00    +0.000 OA
ATOM      4  C   UNL     1      23.895  -8.864  24.503  0.00  0.00    +0.000 A 
ATOM      5  C   UNL     1      25.133  -9.103  23.940  0.00  0.00    +0.000 A 
ATOM      6  C   UNL     1      25.781  -8.021  23.383  0.00  0.00    +0.000 A 
ATOM      7  O   UNL     1      27.031  -8.159  22.792  0.00  0.00    +0.000 OA
ATOM      8  C   UNL     1      25.225  -6.752  23.381  0.00  0.00    +0.000 A 
ATOM      9  C   UNL     1      23.988  -6.548  23.951  0.00  0.00    +0.000 A 
ATOM     10  C   UNL     1      23.327  -7.610  24.511  0.00  0.00    +0.000 A 
ATOM     11  C   UNL     1      22.084  -7.352  25.072  0.00  0.00    +0.000 A 
ATOM     12  O   UNL     1      21.317  -6.315  25.226  0.00  0.00    +0.000 OA
ATOM     13  C   UNL     1      20.201  -6.610  25.845  0.00  0.00    +0.000 A 
ATOM     14  C   UNL     1      19.079  -5.884  26.244  0.00  0.00    +0.000 A 
ATOM     15  C   UNL     1      18.023  -6.483  26.899  0.00  0.00    +0.000 A 
ATOM     16  O   UNL     1      16.903  -5.729  27.291  0.00  0.00    +0.000 OA
ATOM     17  C   UNL     1      18.060  -7.835  27.175  0.00  0.00    +0.000 A 
ATOM     18  C   UNL     1      19.164  -8.565  26.787  0.00  0.00    +0.000 A 
ATOM     19  C   UNL     1      20.222  -7.961  26.130  0.00  0.00    +0.000 A 
ATOM     20  C   UNL     1      21.427  -8.420  25.631  0.00  0.00    +0.000 A 
ENDROOT
TORSDOF 0
ENDMDL
MODEL 6
REMARK VINA RESULT:      -7.2     18.612     20.130
REMARK  Name = 
REMARK  0 active torsions:
REMARK  status: ('A' for Active; 'I' for Inactive)
REMARK                            x       y       z     vdW  Elec       q    Type
REMARK                         _______ _______ _______ _____ _____    ______ ____
ROOT
ATOM      1  O   UNL     1      33.798   2.822  32.288  0.00  0.00    +0.000 OA
ATOM      2  C   UNL     1      33.834   3.168  33.492  0.00  0.00    +0.000 A 
ATOM      3  O   UNL     1      33.887   4.437  33.805  0.00  0.00    +0.000 OA
ATOM      4  C   UNL     1      33.927   4.876  35.047  0.00  0.00    +0.000 A 
ATOM      5  C   UNL     1      33.982   6.227  35.330  0.00  0.00    +0.000 A 
ATOM      6  C   UNL     1      34.020   6.580  36.662  0.00  0.00    +0.000 A 
ATOM      7  O   UNL     1      34.076   7.913  37.051  0.00  0.00    +0.000 OA
ATOM      8  C   UNL     1      34.004   5.634  37.675  0.00  0.00    +0.000 A 
ATOM      9  C   UNL     1      33.948   4.295  37.357  0.00  0.00    +0.000 A 
ATOM     10  C   UNL     1      33.910   3.922  36.038  0.00  0.00    +0.000 A 
ATOM     11  C   UNL     1      33.854   2.561  35.771  0.00  0.00    +0.000 A 
ATOM     12  O   UNL     1      33.827   1.465  36.468  0.00  0.00    +0.000 OA
ATOM     13  C   UNL     1      33.773   0.397  35.711  0.00  0.00    +0.000 A 
ATOM     14  C   UNL     1      33.727  -0.975  35.954  0.00  0.00    +0.000 A 
ATOM     15  C   UNL     1      33.674  -1.892  34.923  0.00  0.00    +0.000 A 
ATOM     16  O   UNL     1      33.628  -3.271  35.194  0.00  0.00    +0.000 OA
ATOM     17  C   UNL     1      33.665  -1.458  33.614  0.00  0.00    +0.000 A 
ATOM     18  C   UNL     1      33.711  -0.103  33.359  0.00  0.00    +0.000 A 
ATOM     19  C   UNL     1      33.764   0.815  34.395  0.00  0.00    +0.000 A 
ATOM     20  C   UNL     1      33.816   2.195  34.449  0.00  0.00    +0.000 A 
ENDROOT
TORSDOF 0
ENDMDL
MODEL 7
REMARK VINA RESULT:      -7.2     18.787     20.218
REMARK  Name = 
REMARK  0 active torsions:
REMARK  status: ('A' for Active; 'I' for Inactive)
REMARK                            x       y       z     vdW  Elec       q    Type
REMARK                         _______ _______ _______ _____ _____    ______ ____
ROOT
ATOM      1  O   UNL     1      31.924  23.342  24.470  0.00  0.00    +0.000 OA
ATOM      2  C   UNL     1      30.672  23.295  24.499  0.00  0.00    +0.000 A 
ATOM      3  O   UNL     1      29.987  23.418  23.391  0.00  0.00    +0.000 OA
ATOM      4  C   UNL     1      28.672  23.378  23.344  0.00  0.00    +0.000 A 
ATOM      5  C   UNL     1      27.991  23.511  22.150  0.00  0.00    +0.000 A 
ATOM      6  C   UNL     1      26.615  23.455  22.210  0.00  0.00    +0.000 A 
ATOM      7  O   UNL     1      25.839  23.579  21.064  0.00  0.00    +0.000 OA
ATOM      8  C   UNL     1      25.938  23.273  23.406  0.00  0.00    +0.000 A 
ATOM      9  C   UNL     1      26.648  23.143  24.579  0.00  0.00    +0.000 A 
ATOM     10  C   UNL     1      28.017  23.196  24.541  0.00  0.00    +0.000 A 
ATOM     11  C   UNL     1      28.685  23.060  25.750  0.00  0.00    +0.000 A 
ATOM     12  O   UNL     1      28.355  22.884  26.993  0.00  0.00    +0.000 OA
ATOM     13  C   UNL     1      29.401  22.817  27.780  0.00  0.00    +0.000 A 
ATOM     14  C   UNL     1      29.587  22.643  29.151  0.00  0.00    +0.000 A 
ATOM     15  C   UNL     1      30.847  22.613  29.713  0.00  0.00    +0.000 A 
ATOM     16  O   UNL     1      31.008  22.435  31.099  0.00  0.00    +0.000 OA
ATOM     17  C   UNL     1      31.962  22.757  28.914  0.00  0.00    +0.000 A 
ATOM     18  C   UNL     1      31.793  22.931  27.556  0.00  0.00    +0.000 A 
ATOM     19  C   UNL     1      30.528  22.961  26.995  0.00  0.00    +0.000 A 
ATOM     20  C   UNL     1      30.057  23.114  25.704  0.00  0.00    +0.000 A 
ENDROOT
TORSDOF 0
ENDMDL
MODEL 8
REMARK VINA RESULT:      -7.1     18.116     20.545
REMARK  Name = 
REMARK  0 active torsions:
REMARK  status: ('A' for Active; 'I' for Inactive)
REMARK                            x       y       z     vdW  Elec       q    Type
REMARK                         _______ _______ _______ _____ _____    ______ ____
ROOT
ATOM      1  O   UNL     1      25.185  26.295  25.016  0.00  0.00    +0.000 OA
ATOM      2  C   UNL     1      25.833  25.428  25.646  0.00  0.00    +0.000 A 
ATOM      3  O   UNL     1      25.480  25.105  26.864  0.00  0.00    +0.000 OA
ATOM      4  C   UNL     1      26.112  24.203  27.587  0.00  0.00    +0.000 A 
ATOM      5  C   UNL     1      25.703  23.895  28.869  0.00  0.00    +0.000 A 
ATOM      6  C   UNL     1      26.433  22.937  29.540  0.00  0.00    +0.000 A 
ATOM      7  O   UNL     1      26.102  22.557  30.835  0.00  0.00    +0.000 OA
ATOM      8  C   UNL     1      27.526  22.308  28.964  0.00  0.00    +0.000 A 
ATOM      9  C   UNL     1      27.907  22.640  27.683  0.00  0.00    +0.000 A 
ATOM     10  C   UNL     1      27.194  23.590  26.998  0.00  0.00    +0.000 A 
ATOM     11  C   UNL     1      27.619  23.888  25.711  0.00  0.00    +0.000 A 
ATOM     12  O   UNL     1      28.568  23.492  24.917  0.00  0.00    +0.000 OA
ATOM     13  C   UNL     1      28.537  24.107  23.761  0.00  0.00    +0.000 A 
ATOM     14  C   UNL     1      29.306  24.051  22.599  0.00  0.00    +0.000 A 
ATOM     15  C   UNL     1      29.026  24.844  21.505  0.00  0.00    +0.000 A 
ATOM     16  O   UNL     1      29.816  24.768  20.345  0.00  0.00    +0.000 OA
ATOM     17  C   UNL     1      27.962  25.722  21.544  0.00  0.00    +0.000 A 
ATOM     18  C   UNL     1      27.193  25.789  22.687  0.00  0.00    +0.000 A 
ATOM     19  C   UNL     1      27.476  24.991  23.783  0.00  0.00    +0.000 A 
ATOM     20  C   UNL     1      26.900  24.840  25.031  0.00  0.00    +0.000 A 
ENDROOT
TORSDOF 0
ENDMDL
MODEL 9
REMARK VINA RESULT:      -6.9     17.822     19.892
REMARK  Name = 
REMARK  0 active torsions:
REMARK  status: ('A' for Active; 'I' for Inactive)
REMARK                            x       y       z     vdW  Elec       q    Type
REMARK                         _______ _______ _______ _____ _____    ______ ____
ROOT
ATOM      1  O   UNL     1      26.091  23.296  28.503  0.00  0.00    +0.000 OA
ATOM      2  C   UNL     1      27.316  23.101  28.328  0.00  0.00    +0.000 A 
ATOM      3  O   UNL     1      28.106  22.943  29.359  0.00  0.00    +0.000 OA
ATOM      4  C   UNL     1      29.402  22.733  29.253  0.00  0.00    +0.000 A 
ATOM      5  C   UNL     1      30.198  22.572  30.370  0.00  0.00    +0.000 A 
ATOM      6  C   UNL     1      31.542  22.358  30.149  0.00  0.00    +0.000 A 
ATOM      7  O   UNL     1      32.426  22.184  31.208  0.00  0.00    +0.000 OA
ATOM      8  C   UNL     1      32.078  22.305  28.872  0.00  0.00    +0.000 A 
ATOM      9  C   UNL     1      31.256  22.470  27.780  0.00  0.00    +0.000 A 
ATOM     10  C   UNL     1      29.916  22.684  27.978  0.00  0.00    +0.000 A 
ATOM     11  C   UNL     1      29.131  22.844  26.844  0.00  0.00    +0.000 A 
ATOM     12  O   UNL     1      29.322  22.848  25.560  0.00  0.00    +0.000 OA
ATOM     13  C   UNL     1      28.212  23.049  24.893  0.00  0.00    +0.000 A 
ATOM     14  C   UNL     1      27.883  23.140  23.541  0.00  0.00    +0.000 A 
ATOM     15  C   UNL     1      26.586  23.364  23.124  0.00  0.00    +0.000 A 
ATOM     16  O   UNL     1      26.280  23.452  21.755  0.00  0.00    +0.000 OA
ATOM     17  C   UNL     1      25.577  23.504  24.056  0.00  0.00    +0.000 A 
ATOM     18  C   UNL     1      25.889  23.416  25.396  0.00  0.00    +0.000 A 
ATOM     19  C   UNL     1      27.191  23.191  25.811  0.00  0.00    +0.000 A 
ATOM     20  C   UNL     1      27.790  23.057  27.049  0.00  0.00    +0.000 A 
ENDROOT
TORSDOF 0
ENDMDL
MODEL 10
REMARK VINA RESULT:      -6.6     18.177     20.162
REMARK  Name = 
REMARK  0 active torsions:
REMARK  status: ('A' for Active; 'I' for Inactive)
REMARK                            x       y       z     vdW  Elec       q    Type
REMARK                         _______ _______ _______ _____ _____    ______ ____
ROOT
ATOM      1  O   UNL     1      26.973  22.962  28.741  0.00  0.00    +0.000 OA
ATOM      2  C   UNL     1      28.209  22.757  28.722  0.00  0.00    +0.000 A 
ATOM      3  O   UNL     1      28.858  22.575  29.843  0.00  0.00    +0.000 OA
ATOM      4  C   UNL     1      30.156  22.353  29.901  0.00  0.00    +0.000 A 
ATOM      5  C   UNL     1      30.799  22.167  31.109  0.00  0.00    +0.000 A 
ATOM      6  C   UNL     1      32.158  21.942  31.059  0.00  0.00    +0.000 A 
ATOM      7  O   UNL     1      32.897  21.743  32.220  0.00  0.00    +0.000 OA
ATOM      8  C   UNL     1      32.854  21.903  29.861  0.00  0.00    +0.000 A 
ATOM      9  C   UNL     1      32.181  22.093  28.675  0.00  0.00    +0.000 A 
ATOM     10  C   UNL     1      30.829  22.318  28.702  0.00  0.00    +0.000 A 
ATOM     11  C   UNL     1      30.198  22.503  27.480  0.00  0.00    +0.000 A 
ATOM     12  O   UNL     1      30.553  22.525  26.231  0.00  0.00    +0.000 OA
ATOM     13  C   UNL     1      29.540  22.747  25.430  0.00  0.00    +0.000 A 
ATOM     14  C   UNL     1      29.388  22.862  24.049  0.00  0.00    +0.000 A 
ATOM     15  C   UNL     1      28.158  23.106  23.472  0.00  0.00    +0.000 A 
ATOM     16  O   UNL     1      28.032  23.218  22.077  0.00  0.00    +0.000 OA
ATOM     17  C   UNL     1      27.039  23.242  24.268  0.00  0.00    +0.000 A 
ATOM     18  C   UNL     1      27.174  23.131  25.636  0.00  0.00    +0.000 A 
ATOM     19  C   UNL     1      28.410  22.886  26.211  0.00  0.00    +0.000 A 
ATOM     20  C   UNL     1      28.844  22.728  27.514  0.00  0.00    +0.000 A 
ENDROOT
TORSDOF 0
ENDMDL
