MODEL 1
REMARK VINA RESULT:      -5.7      0.000      0.000
REMARK  Name = 
REMARK  6 active torsions:
REMARK  status: ('A' for Active; 'I' for Inactive)
REMARK    1  A    between atoms: C_2  and  O_3
REMARK    2  A    between atoms: O_3  and  C_4
REMARK    3  A    between atoms: C_4  and  C_6
REMARK    4  A    between atoms: C_6  and  C_7
REMARK    5  A    between atoms: C_7  and  C_8
REMARK    6  A    between atoms: C_7  and  N_15
REMARK                            x       y       z     vdW  Elec       q    Type
REMARK                         _______ _______ _______ _____ _____    ______ ____
ROOT
ATOM      1  C   UNL     1      28.265  23.605  23.462  0.00  0.00    +0.000 C 
ENDROOT
BRANCH   1   2
ATOM      2  C   UNL     1      29.016  23.108  24.773  0.00  0.00    +0.000 A 
ATOM      3  C   UNL     1      28.440  22.634  25.849  0.00  0.00    +0.000 A 
ATOM      4  C   UNL     1      29.187  22.232  26.930  0.00  0.00    +0.000 A 
ATOM      5  C   UNL     1      30.536  22.328  26.877  0.00  0.00    +0.000 A 
ATOM      6  N   UNL     1      31.360  21.922  27.979  0.00  0.00    +0.000 NA
ATOM      7  C   UNL     1      31.173  22.826  25.755  0.00  0.00    +0.000 A 
ATOM      8  C   UNL     1      30.374  23.229  24.666  0.00  0.00    +0.000 A 
ENDBRANCH   1   2
BRANCH   1   9
ATOM      9  N   UNL     1      27.245  24.561  24.204  0.00  0.00    +0.000 N 
ATOM     10  C   UNL     1      27.517  25.639  24.870  0.00  0.00    +0.000 A 
ATOM     11  C   UNL     1      28.871  26.232  25.080  0.00  0.00    +0.000 C 
ATOM     12  C   UNL     1      26.301  26.124  25.341  0.00  0.00    +0.000 A 
ATOM     13  C   UNL     1      25.322  25.257  24.902  0.00  0.00    +0.000 A 
ATOM     14  C   UNL     1      25.932  24.259  24.175  0.00  0.00    +0.000 A 
ATOM     15  C   UNL     1      25.307  23.090  23.493  0.00  0.00    +0.000 C 
ENDBRANCH   1   9
BRANCH   1  16
ATOM     16  C   UNL     1      29.305  24.809  23.009  0.00  0.00    +0.000 C 
BRANCH  16  17
ATOM     17  C   UNL     1      29.038  24.982  21.555  0.00  0.00    +0.000 C 
ATOM     18  O   UNL     1      29.741  24.454  20.653  0.00  0.00    +0.000 OA
BRANCH  17  19
ATOM     19  O   UNL     1      27.954  25.769  21.189  0.00  0.00    +0.000 OA
BRANCH  19  21
ATOM     20  C   UNL     1      26.914  27.813  22.002  0.00  0.00    +0.000 C 
ATOM     21  C   UNL     1      28.065  27.180  21.243  0.00  0.00    +0.000 C 
ENDBRANCH  19  21
ENDBRANCH  17  19
ENDBRANCH  16  17
ENDBRANCH   1  16
TORSDOF 6
ENDMDL
MODEL 2
REMARK VINA RESULT:      -5.4      2.141      3.274
REMARK  Name = 
REMARK  6 active torsions:
REMARK  status: ('A' for Active; 'I' for Inactive)
REMARK    1  A    between atoms: C_2  and  O_3
REMARK    2  A    between atoms: O_3  and  C_4
REMARK    3  A    between atoms: C_4  and  C_6
REMARK    4  A    between atoms: C_6  and  C_7
REMARK    5  A    between atoms: C_7  and  C_8
REMARK    6  A    between atoms: C_7  and  N_15
REMARK                            x       y       z     vdW  Elec       q    Type
REMARK                         _______ _______ _______ _____ _____    ______ ____
ROOT
ATOM      1  C   UNL     1      27.005  22.977  25.006  0.00  0.00    +0.000 C 
ENDROOT
BRANCH   1   2
ATOM      2  C   UNL     1      28.445  23.652  24.997  0.00  0.00    +0.000 A 
ATOM      3  C   UNL     1      28.702  24.904  25.277  0.00  0.00    +0.000 A 
ATOM      4  C   UNL     1      29.988  25.386  25.238  0.00  0.00    +0.000 A 
ATOM      5  C   UNL     1      30.999  24.551  24.906  0.00  0.00    +0.000 A 
ATOM      6  N   UNL     1      32.359  25.005  24.851  0.00  0.00    +0.000 NA
ATOM      7  C   UNL     1      30.759  23.222  24.604  0.00  0.00    +0.000 A 
ATOM      8  C   UNL     1      29.427  22.765  24.654  0.00  0.00    +0.000 A 
ENDBRANCH   1   2
BRANCH   1   9
ATOM      9  N   UNL     1      26.523  23.624  26.368  0.00  0.00    +0.000 N 
ATOM     10  C   UNL     1      25.697  24.610  26.522  0.00  0.00    +0.000 A 
ATOM     11  C   UNL     1      24.998  25.358  25.437  0.00  0.00    +0.000 C 
ATOM     12  C   UNL     1      25.595  24.823  27.894  0.00  0.00    +0.000 A 
ATOM     13  C   UNL     1      26.413  23.897  28.508  0.00  0.00    +0.000 A 
ATOM     14  C   UNL     1      27.005  23.133  27.527  0.00  0.00    +0.000 A 
ATOM     15  C   UNL     1      27.967  22.005  27.679  0.00  0.00    +0.000 C 
ENDBRANCH   1   9
BRANCH   1  16
ATOM     16  C   UNL     1      26.209  24.052  24.033  0.00  0.00    +0.000 C 
BRANCH  16  17
ATOM     17  C   UNL     1      26.180  23.378  22.706  0.00  0.00    +0.000 C 
ATOM     18  O   UNL     1      25.210  22.683  22.303  0.00  0.00    +0.000 OA
BRANCH  17  19
ATOM     19  O   UNL     1      27.286  23.533  21.881  0.00  0.00    +0.000 OA
BRANCH  19  21
ATOM     20  C   UNL     1      29.266  24.878  21.447  0.00  0.00    +0.000 C 
ATOM     21  C   UNL     1      27.755  24.835  21.581  0.00  0.00    +0.000 C 
ENDBRANCH  19  21
ENDBRANCH  17  19
ENDBRANCH  16  17
ENDBRANCH   1  16
TORSDOF 6
ENDMDL
MODEL 3
REMARK VINA RESULT:      -5.3      3.966      6.316
REMARK  Name = 
REMARK  6 active torsions:
REMARK  status: ('A' for Active; 'I' for Inactive)
REMARK    1  A    between atoms: C_2  and  O_3
REMARK    2  A    between atoms: O_3  and  C_4
REMARK    3  A    between atoms: C_4  and  C_6
REMARK    4  A    between atoms: C_6  and  C_7
REMARK    5  A    between atoms: C_7  and  C_8
REMARK    6  A    between atoms: C_7  and  N_15
REMARK                            x       y       z     vdW  Elec       q    Type
REMARK                         _______ _______ _______ _____ _____    ______ ____
ROOT
ATOM      1  C   UNL     1      28.028  22.587  27.478  0.00  0.00    +0.000 C 
ENDROOT
BRANCH   1   2
ATOM      2  C   UNL     1      27.714  22.854  25.942  0.00  0.00    +0.000 A 
ATOM      3  C   UNL     1      28.606  23.000  24.995  0.00  0.00    +0.000 A 
ATOM      4  C   UNL     1      28.224  23.229  23.696  0.00  0.00    +0.000 A 
ATOM      5  C   UNL     1      26.907  23.302  23.394  0.00  0.00    +0.000 A 
ATOM      6  N   UNL     1      26.456  23.539  22.053  0.00  0.00    +0.000 NA
ATOM      7  C   UNL     1      25.940  23.153  24.373  0.00  0.00    +0.000 A 
ATOM      8  C   UNL     1      26.371  22.919  25.695  0.00  0.00    +0.000 A 
ENDBRANCH   1   2
BRANCH   1   9
ATOM      9  N   UNL     1      29.024  23.803  27.661  0.00  0.00    +0.000 N 
ATOM     10  C   UNL     1      28.735  25.066  27.647  0.00  0.00    +0.000 A 
ATOM     11  C   UNL     1      27.380  25.662  27.464  0.00  0.00    +0.000 C 
ATOM     12  C   UNL     1      29.935  25.743  27.840  0.00  0.00    +0.000 A 
ATOM     13  C   UNL     1      30.923  24.788  27.964  0.00  0.00    +0.000 A 
ATOM     14  C   UNL     1      30.334  23.548  27.849  0.00  0.00    +0.000 A 
ATOM     15  C   UNL     1      30.975  22.204  27.913  0.00  0.00    +0.000 C 
ENDBRANCH   1   9
BRANCH   1  16
ATOM     16  C   UNL     1      26.724  23.352  28.146  0.00  0.00    +0.000 C 
BRANCH  16  17
ATOM     17  C   UNL     1      26.587  22.719  29.486  0.00  0.00    +0.000 C 
ATOM     18  O   UNL     1      27.133  21.627  29.797  0.00  0.00    +0.000 OA
BRANCH  17  19
ATOM     19  O   UNL     1      25.814  23.377  30.434  0.00  0.00    +0.000 OA
BRANCH  19  21
ATOM     20  C   UNL     1      25.136  25.698  30.706  0.00  0.00    +0.000 C 
ATOM     21  C   UNL     1      26.218  24.652  30.900  0.00  0.00    +0.000 C 
ENDBRANCH  19  21
ENDBRANCH  17  19
ENDBRANCH  16  17
ENDBRANCH   1  16
TORSDOF 6
ENDMDL
MODEL 4
REMARK VINA RESULT:      -5.2      2.192      3.211
REMARK  Name = 
REMARK  6 active torsions:
REMARK  status: ('A' for Active; 'I' for Inactive)
REMARK    1  A    between atoms: C_2  and  O_3
REMARK    2  A    between atoms: O_3  and  C_4
REMARK    3  A    between atoms: C_4  and  C_6
REMARK    4  A    between atoms: C_6  and  C_7
REMARK    5  A    between atoms: C_7  and  C_8
REMARK    6  A    between atoms: C_7  and  N_15
REMARK                            x       y       z     vdW  Elec       q    Type
REMARK                         _______ _______ _______ _____ _____    ______ ____
ROOT
ATOM      1  C   UNL     1      25.642  24.043  24.987  0.00  0.00    +0.000 C 
ENDROOT
BRANCH   1   2
ATOM      2  C   UNL     1      26.171  23.648  26.433  0.00  0.00    +0.000 A 
ATOM      3  C   UNL     1      25.715  24.117  27.567  0.00  0.00    +0.000 A 
ATOM      4  C   UNL     1      26.247  23.707  28.766  0.00  0.00    +0.000 A 
ATOM      5  C   UNL     1      27.256  22.806  28.770  0.00  0.00    +0.000 A 
ATOM      6  N   UNL     1      27.845  22.345  29.994  0.00  0.00    +0.000 NA
ATOM      7  C   UNL     1      27.760  22.292  27.588  0.00  0.00    +0.000 A 
ATOM      8  C   UNL     1      27.189  22.737  26.379  0.00  0.00    +0.000 A 
ENDBRANCH   1   2
BRANCH   1   9
ATOM      9  N   UNL     1      26.036  25.574  25.075  0.00  0.00    +0.000 N 
ATOM     10  C   UNL     1      27.229  26.079  25.105  0.00  0.00    +0.000 A 
ATOM     11  C   UNL     1      28.513  25.321  25.054  0.00  0.00    +0.000 C 
ATOM     12  C   UNL     1      27.067  27.458  25.192  0.00  0.00    +0.000 A 
ATOM     13  C   UNL     1      25.710  27.705  25.208  0.00  0.00    +0.000 A 
ATOM     14  C   UNL     1      25.055  26.496  25.133  0.00  0.00    +0.000 A 
ATOM     15  C   UNL     1      23.589  26.231  25.117  0.00  0.00    +0.000 C 
ENDBRANCH   1   9
BRANCH   1  16
ATOM     16  C   UNL     1      26.961  23.593  24.097  0.00  0.00    +0.000 C 
BRANCH  16  17
ATOM     17  C   UNL     1      26.404  23.329  22.742  0.00  0.00    +0.000 C 
ATOM     18  O   UNL     1      25.278  22.797  22.547  0.00  0.00    +0.000 OA
BRANCH  17  19
ATOM     19  O   UNL     1      27.175  23.691  21.646  0.00  0.00    +0.000 OA
BRANCH  19  21
ATOM     20  C   UNL     1      29.045  25.192  21.234  0.00  0.00    +0.000 C 
ATOM     21  C   UNL     1      28.571  23.868  21.803  0.00  0.00    +0.000 C 
ENDBRANCH  19  21
ENDBRANCH  17  19
ENDBRANCH  16  17
ENDBRANCH   1  16
TORSDOF 6
ENDMDL
MODEL 5
REMARK VINA RESULT:      -5.0     19.852     21.892
REMARK  Name = 
REMARK  6 active torsions:
REMARK  status: ('A' for Active; 'I' for Inactive)
REMARK    1  A    between atoms: C_2  and  O_3
REMARK    2  A    between atoms: O_3  and  C_4
REMARK    3  A    between atoms: C_4  and  C_6
REMARK    4  A    between atoms: C_6  and  C_7
REMARK    5  A    between atoms: C_7  and  C_8
REMARK    6  A    between atoms: C_7  and  N_15
REMARK                            x       y       z     vdW  Elec       q    Type
REMARK                         _______ _______ _______ _____ _____    ______ ____
ROOT
ATOM      1  C   UNL     1      18.563   9.517  37.356  0.00  0.00    +0.000 C 
ENDROOT
BRANCH   1   2
ATOM      2  C   UNL     1      19.450  10.779  37.742  0.00  0.00    +0.000 A 
ATOM      3  C   UNL     1      18.995  11.973  38.028  0.00  0.00    +0.000 A 
ATOM      4  C   UNL     1      19.853  12.997  38.350  0.00  0.00    +0.000 A 
ATOM      5  C   UNL     1      21.186  12.764  38.369  0.00  0.00    +0.000 A 
ATOM      6  N   UNL     1      22.123  13.799  38.699  0.00  0.00    +0.000 NA
ATOM      7  C   UNL     1      21.697  11.513  38.071  0.00  0.00    +0.000 A 
ATOM      8  C   UNL     1      20.785  10.489  37.746  0.00  0.00    +0.000 A 
ENDBRANCH   1   2
BRANCH   1   9
ATOM      9  N   UNL     1      17.642   9.558  38.643  0.00  0.00    +0.000 N 
ATOM     10  C   UNL     1      16.519  10.187  38.787  0.00  0.00    +0.000 A 
ATOM     11  C   UNL     1      15.829  11.017  37.756  0.00  0.00    +0.000 C 
ATOM     12  C   UNL     1      16.092   9.931  40.087  0.00  0.00    +0.000 A 
ATOM     13  C   UNL     1      17.041   9.117  40.670  0.00  0.00    +0.000 A 
ATOM     14  C   UNL     1      18.031   8.882  39.742  0.00  0.00    +0.000 A 
ATOM     15  C   UNL     1      19.269   8.065  39.887  0.00  0.00    +0.000 C 
ENDBRANCH   1   9
BRANCH   1  16
ATOM     16  C   UNL     1      17.472  10.262  36.361  0.00  0.00    +0.000 C 
BRANCH  16  17
ATOM     17  C   UNL     1      17.692   9.612  35.040  0.00  0.00    +0.000 C 
ATOM     18  O   UNL     1      17.969   8.390  34.907  0.00  0.00    +0.000 OA
BRANCH  17  19
ATOM     19  O   UNL     1      17.582  10.405  33.906  0.00  0.00    +0.000 OA
BRANCH  19  21
ATOM     20  C   UNL     1      15.334  10.888  33.112  0.00  0.00    +0.000 C 
ATOM     21  C   UNL     1      16.568  11.391  33.838  0.00  0.00    +0.000 C 
ENDBRANCH  19  21
ENDBRANCH  17  19
ENDBRANCH  16  17
ENDBRANCH   1  16
TORSDOF 6
ENDMDL
MODEL 6
REMARK VINA RESULT:      -5.0     33.359     35.146
REMARK  Name = 
REMARK  6 active torsions:
REMARK  status: ('A' for Active; 'I' for Inactive)
REMARK    1  A    between atoms: C_2  and  O_3
REMARK    2  A    between atoms: O_3  and  C_4
REMARK    3  A    between atoms: C_4  and  C_6
REMARK    4  A    between atoms: C_6  and  C_7
REMARK    5  A    between atoms: C_7  and  C_8
REMARK    6  A    between atoms: C_7  and  N_15
REMARK                            x       y       z     vdW  Elec       q    Type
REMARK                         _______ _______ _______ _____ _____    ______ ____
ROOT
ATOM      1  C   UNL     1      17.180  -7.846  26.461  0.00  0.00    +0.000 C 
ENDROOT
BRANCH   1   2
ATOM      2  C   UNL     1      17.559  -8.822  27.659  0.00  0.00    +0.000 A 
ATOM      3  C   UNL     1      18.484  -8.601  28.559  0.00  0.00    +0.000 A 
ATOM      4  C   UNL     1      18.731  -9.515  29.555  0.00  0.00    +0.000 A 
ATOM      5  C   UNL     1      18.006 -10.656  29.603  0.00  0.00    +0.000 A 
ATOM      6  N   UNL     1      18.225 -11.641  30.622  0.00  0.00    +0.000 NA
ATOM      7  C   UNL     1      17.022 -10.918  28.665  0.00  0.00    +0.000 A 
ATOM      8  C   UNL     1      16.798  -9.957  27.659  0.00  0.00    +0.000 A 
ENDBRANCH   1   2
BRANCH   1   9
ATOM      9  N   UNL     1      18.660  -7.633  25.942  0.00  0.00    +0.000 N 
ATOM     10  C   UNL     1      19.428  -8.508  25.372  0.00  0.00    +0.000 A 
ATOM     11  C   UNL     1      19.079  -9.926  25.066  0.00  0.00    +0.000 C 
ATOM     12  C   UNL     1      20.629  -7.858  25.106  0.00  0.00    +0.000 A 
ATOM     13  C   UNL     1      20.496  -6.561  25.558  0.00  0.00    +0.000 A 
ATOM     14  C   UNL     1      19.234  -6.423  26.093  0.00  0.00    +0.000 A 
ATOM     15  C   UNL     1      18.611  -5.218  26.708  0.00  0.00    +0.000 C 
ENDBRANCH   1   9
BRANCH   1  16
ATOM     16  C   UNL     1      16.777  -8.977  25.324  0.00  0.00    +0.000 C 
BRANCH  16  17
ATOM     17  C   UNL     1      15.428  -8.552  24.861  0.00  0.00    +0.000 C 
ATOM     18  O   UNL     1      15.037  -8.666  23.668  0.00  0.00    +0.000 OA
BRANCH  17  19
ATOM     19  O   UNL     1      14.567  -8.004  25.802  0.00  0.00    +0.000 OA
BRANCH  19  21
ATOM     20  C   UNL     1      13.269  -9.922  26.545  0.00  0.00    +0.000 C 
ATOM     21  C   UNL     1      13.260  -8.530  25.943  0.00  0.00    +0.000 C 
ENDBRANCH  19  21
ENDBRANCH  17  19
ENDBRANCH  16  17
ENDBRANCH   1  16
TORSDOF 6
ENDMDL
MODEL 7
REMARK VINA RESULT:      -4.9     20.649     22.754
REMARK  Name = 
REMARK  6 active torsions:
REMARK  status: ('A' for Active; 'I' for Inactive)
REMARK    1  A    between atoms: C_2  and  O_3
REMARK    2  A    between atoms: O_3  and  C_4
REMARK    3  A    between atoms: C_4  and  C_6
REMARK    4  A    between atoms: C_6  and  C_7
REMARK    5  A    between atoms: C_7  and  C_8
REMARK    6  A    between atoms: C_7  and  N_15
REMARK                            x       y       z     vdW  Elec       q    Type
REMARK                         _______ _______ _______ _____ _____    ______ ____
ROOT
ATOM      1  C   UNL     1      17.986  10.857  38.286  0.00  0.00    +0.000 C 
ENDROOT
BRANCH   1   2
ATOM      2  C   UNL     1      17.869   9.548  39.182  0.00  0.00    +0.000 A 
ATOM      3  C   UNL     1      18.680   8.520  39.141  0.00  0.00    +0.000 A 
ATOM      4  C   UNL     1      18.486   7.436  39.962  0.00  0.00    +0.000 A 
ATOM      5  C   UNL     1      17.443   7.433  40.823  0.00  0.00    +0.000 A 
ATOM      6  N   UNL     1      17.198   6.326  41.700  0.00  0.00    +0.000 NA
ATOM      7  C   UNL     1      16.568   8.504  40.889  0.00  0.00    +0.000 A 
ATOM      8  C   UNL     1      16.799   9.598  40.031  0.00  0.00    +0.000 A 
ENDBRANCH   1   2
BRANCH   1   9
ATOM      9  N   UNL     1      19.392  10.503  37.652  0.00  0.00    +0.000 N 
ATOM     10  C   UNL     1      19.622   9.795  36.592  0.00  0.00    +0.000 A 
ATOM     11  C   UNL     1      18.598   9.156  35.715  0.00  0.00    +0.000 C 
ATOM     12  C   UNL     1      21.005   9.757  36.440  0.00  0.00    +0.000 A 
ATOM     13  C   UNL     1      21.545  10.487  37.478  0.00  0.00    +0.000 A 
ATOM     14  C   UNL     1      20.509  10.962  38.251  0.00  0.00    +0.000 A 
ATOM     15  C   UNL     1      20.574  11.799  39.482  0.00  0.00    +0.000 C 
ENDBRANCH   1   9
BRANCH   1  16
ATOM     16  C   UNL     1      17.098  10.359  36.983  0.00  0.00    +0.000 C 
BRANCH  16  17
ATOM     17  C   UNL     1      16.267  11.546  36.644  0.00  0.00    +0.000 C 
ATOM     18  O   UNL     1      16.434  12.682  37.164  0.00  0.00    +0.000 OA
BRANCH  17  19
ATOM     19  O   UNL     1      15.260  11.379  35.703  0.00  0.00    +0.000 OA
BRANCH  19  21
ATOM     20  C   UNL     1      15.918  10.766  33.443  0.00  0.00    +0.000 C 
ATOM     21  C   UNL     1      15.449  11.859  34.384  0.00  0.00    +0.000 C 
ENDBRANCH  19  21
ENDBRANCH  17  19
ENDBRANCH  16  17
ENDBRANCH   1  16
TORSDOF 6
ENDMDL
MODEL 8
REMARK VINA RESULT:      -4.9      2.772      4.461
REMARK  Name = 
REMARK  6 active torsions:
REMARK  status: ('A' for Active; 'I' for Inactive)
REMARK    1  A    between atoms: C_2  and  O_3
REMARK    2  A    between atoms: O_3  and  C_4
REMARK    3  A    between atoms: C_4  and  C_6
REMARK    4  A    between atoms: C_6  and  C_7
REMARK    5  A    between atoms: C_7  and  C_8
REMARK    6  A    between atoms: C_7  and  N_15
REMARK                            x       y       z     vdW  Elec       q    Type
REMARK                         _______ _______ _______ _____ _____    ______ ____
ROOT
ATOM      1  C   UNL     1      27.688  24.822  25.549  0.00  0.00    +0.000 C 
ENDROOT
BRANCH   1   2
ATOM      2  C   UNL     1      27.335  24.746  27.097  0.00  0.00    +0.000 A 
ATOM      3  C   UNL     1      28.066  25.226  28.071  0.00  0.00    +0.000 A 
ATOM      4  C   UNL     1      27.666  25.106  29.380  0.00  0.00    +0.000 A 
ATOM      5  C   UNL     1      26.499  24.482  29.662  0.00  0.00    +0.000 A 
ATOM      6  N   UNL     1      26.036  24.330  31.011  0.00  0.00    +0.000 NA
ATOM      7  C   UNL     1      25.704  23.964  28.654  0.00  0.00    +0.000 A 
ATOM      8  C   UNL     1      26.148  24.107  27.324  0.00  0.00    +0.000 A 
ENDBRANCH   1   2
BRANCH   1   9
ATOM      9  N   UNL     1      29.118  24.155  25.669  0.00  0.00    +0.000 N 
ATOM     10  C   UNL     1      29.402  22.977  26.128  0.00  0.00    +0.000 A 
ATOM     11  C   UNL     1      28.429  21.970  26.644  0.00  0.00    +0.000 C 
ATOM     12  C   UNL     1      30.784  22.846  26.040  0.00  0.00    +0.000 A 
ATOM     13  C   UNL     1      31.268  24.020  25.502  0.00  0.00    +0.000 A 
ATOM     14  C   UNL     1      30.198  24.855  25.267  0.00  0.00    +0.000 A 
ATOM     15  C   UNL     1      30.199  26.231  24.695  0.00  0.00    +0.000 C 
ENDBRANCH   1   9
BRANCH   1  16
ATOM     16  C   UNL     1      26.919  23.450  25.040  0.00  0.00    +0.000 C 
BRANCH  16  17
ATOM     17  C   UNL     1      26.590  23.732  23.616  0.00  0.00    +0.000 C 
ATOM     18  O   UNL     1      25.912  22.954  22.893  0.00  0.00    +0.000 OA
BRANCH  17  19
ATOM     19  O   UNL     1      27.061  24.918  23.069  0.00  0.00    +0.000 OA
BRANCH  19  21
ATOM     20  C   UNL     1      29.008  24.304  21.746  0.00  0.00    +0.000 C 
ATOM     21  C   UNL     1      27.619  24.914  21.768  0.00  0.00    +0.000 C 
ENDBRANCH  19  21
ENDBRANCH  17  19
ENDBRANCH  16  17
ENDBRANCH   1  16
TORSDOF 6
ENDMDL
MODEL 9
REMARK VINA RESULT:      -4.8      2.746      4.736
REMARK  Name = 
REMARK  6 active torsions:
REMARK  status: ('A' for Active; 'I' for Inactive)
REMARK    1  A    between atoms: C_2  and  O_3
REMARK    2  A    between atoms: O_3  and  C_4
REMARK    3  A    between atoms: C_4  and  C_6
REMARK    4  A    between atoms: C_6  and  C_7
REMARK    5  A    between atoms: C_7  and  C_8
REMARK    6  A    between atoms: C_7  and  N_15
REMARK                            x       y       z     vdW  Elec       q    Type
REMARK                         _______ _______ _______ _____ _____    ______ ____
ROOT
ATOM      1  C   UNL     1      29.039  24.631  25.782  0.00  0.00    +0.000 C 
ENDROOT
BRANCH   1   2
ATOM      2  C   UNL     1      28.246  24.436  27.146  0.00  0.00    +0.000 A 
ATOM      3  C   UNL     1      28.521  25.030  28.280  0.00  0.00    +0.000 A 
ATOM      4  C   UNL     1      27.769  24.787  29.404  0.00  0.00    +0.000 A 
ATOM      5  C   UNL     1      26.731  23.923  29.334  0.00  0.00    +0.000 A 
ATOM      6  N   UNL     1      25.916  23.636  30.479  0.00  0.00    +0.000 NA
ATOM      7  C   UNL     1      26.416  23.279  28.150  0.00  0.00    +0.000 A 
ATOM      8  C   UNL     1      27.211  23.553  27.019  0.00  0.00    +0.000 A 
ENDBRANCH   1   2
BRANCH   1   9
ATOM      9  N   UNL     1      30.485  24.452  26.398  0.00  0.00    +0.000 N 
ATOM     10  C   UNL     1      30.991  23.378  26.920  0.00  0.00    +0.000 A 
ATOM     11  C   UNL     1      30.316  22.053  27.047  0.00  0.00    +0.000 C 
ATOM     12  C   UNL     1      32.278  23.713  27.329  0.00  0.00    +0.000 A 
ATOM     13  C   UNL     1      32.473  25.040  27.008  0.00  0.00    +0.000 A 
ATOM     14  C   UNL     1      31.322  25.508  26.413  0.00  0.00    +0.000 A 
ATOM     15  C   UNL     1      31.034  26.873  25.889  0.00  0.00    +0.000 C 
ENDBRANCH   1   9
BRANCH   1  16
ATOM     16  C   UNL     1      28.927  23.090  25.194  0.00  0.00    +0.000 C 
BRANCH  16  17
ATOM     17  C   UNL     1      29.029  23.262  23.719  0.00  0.00    +0.000 C 
ATOM     18  O   UNL     1      30.065  23.684  23.140  0.00  0.00    +0.000 OA
BRANCH  17  19
ATOM     19  O   UNL     1      27.917  22.935  22.955  0.00  0.00    +0.000 OA
BRANCH  19  21
ATOM     20  C   UNL     1      25.594  23.270  23.596  0.00  0.00    +0.000 C 
ATOM     21  C   UNL     1      26.820  23.830  22.900  0.00  0.00    +0.000 C 
ENDBRANCH  19  21
ENDBRANCH  17  19
ENDBRANCH  16  17
ENDBRANCH   1  16
TORSDOF 6
ENDMDL
MODEL 10
REMARK VINA RESULT:      -4.8     19.958     22.018
REMARK  Name = 
REMARK  6 active torsions:
REMARK  status: ('A' for Active; 'I' for Inactive)
REMARK    1  A    between atoms: C_2  and  O_3
REMARK    2  A    between atoms: O_3  and  C_4
REMARK    3  A    between atoms: C_4  and  C_6
REMARK    4  A    between atoms: C_6  and  C_7
REMARK    5  A    between atoms: C_7  and  C_8
REMARK    6  A    between atoms: C_7  and  N_15
REMARK                            x       y       z     vdW  Elec       q    Type
REMARK                         _______ _______ _______ _____ _____    ______ ____
ROOT
ATOM      1  C   UNL     1      19.464   9.965  37.607  0.00  0.00    +0.000 C 
ENDROOT
BRANCH   1   2
ATOM      2  C   UNL     1      18.661   9.808  38.971  0.00  0.00    +0.000 A 
ATOM      3  C   UNL     1      17.369   9.630  39.079  0.00  0.00    +0.000 A 
ATOM      4  C   UNL     1      16.774   9.506  40.311  0.00  0.00    +0.000 A 
ATOM      5  C   UNL     1      17.539   9.567  41.426  0.00  0.00    +0.000 A 
ATOM      6  N   UNL     1      16.967   9.443  42.735  0.00  0.00    +0.000 NA
ATOM      7  C   UNL     1      18.908   9.755  41.344  0.00  0.00    +0.000 A 
ATOM      8  C   UNL     1      19.481   9.879  40.062  0.00  0.00    +0.000 A 
ENDBRANCH   1   2
BRANCH   1   9
ATOM      9  N   UNL     1      18.374  10.845  36.870  0.00  0.00    +0.000 N 
ATOM     10  C   UNL     1      18.100  12.094  37.075  0.00  0.00    +0.000 A 
ATOM     11  C   UNL     1      18.767  12.997  38.059  0.00  0.00    +0.000 C 
ATOM     12  C   UNL     1      17.069  12.417  36.198  0.00  0.00    +0.000 A 
ATOM     13  C   UNL     1      16.776  11.276  35.481  0.00  0.00    +0.000 A 
ATOM     14  C   UNL     1      17.614  10.272  35.916  0.00  0.00    +0.000 A 
ATOM     15  C   UNL     1      17.689   8.857  35.454  0.00  0.00    +0.000 C 
ENDBRANCH   1   9
BRANCH   1  16
ATOM     16  C   UNL     1      20.435  11.238  38.024  0.00  0.00    +0.000 C 
BRANCH  16  17
ATOM     17  C   UNL     1      21.813  10.720  37.810  0.00  0.00    +0.000 C 
ATOM     18  O   UNL     1      22.705  10.732  38.700  0.00  0.00    +0.000 OA
BRANCH  17  19
ATOM     19  O   UNL     1      22.119  10.198  36.560  0.00  0.00    +0.000 OA
BRANCH  19  21
ATOM     20  C   UNL     1      24.451   9.989  35.900  0.00  0.00    +0.000 C 
ATOM     21  C   UNL     1      23.205   9.300  36.425  0.00  0.00    +0.000 C 
ENDBRANCH  19  21
ENDBRANCH  17  19
ENDBRANCH  16  17
ENDBRANCH   1  16
TORSDOF 6
ENDMDL
