MODEL 1
REMARK VINA RESULT:      -5.9      0.000      0.000
REMARK  Name = 
REMARK  4 active torsions:
REMARK  status: ('A' for Active; 'I' for Inactive)
REMARK    1  A    between atoms: C_2  and  C_3
REMARK    2  A    between atoms: C_3  and  N_4
REMARK    3  A    between atoms: N_4  and  C_5
REMARK    4  A    between atoms: C_5  and  C_6
REMARK                            x       y       z     vdW  Elec       q    Type
REMARK                         _______ _______ _______ _____ _____    ______ ____
ROOT
ATOM      1  N   UNL     1      33.510  -3.902  33.802  0.00  0.00    +0.000 N 
ATOM      2  C   UNL     1      33.487  -2.524  34.156  0.00  0.00    +0.000 A 
ATOM      3  N   UNL     1      33.193  -2.113  35.409  0.00  0.00    +0.000 NA
ATOM      4  C   UNL     1      33.187  -0.780  35.684  0.00  0.00    +0.000 A 
ATOM      5  N   UNL     1      32.880  -0.325  36.997  0.00  0.00    +0.000 NA
ATOM      6  C   UNL     1      33.472   0.144  34.709  0.00  0.00    +0.000 A 
ATOM      7  C   UNL     1      33.483   1.507  34.921  0.00  0.00    +0.000 A 
ATOM      8  C   UNL     1      33.778   2.400  33.891  0.00  0.00    +0.000 A 
ATOM      9 CL   UNL     1      33.789   4.136  34.150  0.00  0.00    +0.000 Cl
ATOM     10  C   UNL     1      34.068   1.911  32.633  0.00  0.00    +0.000 A 
ATOM     11  C   UNL     1      34.067   0.550  32.380  0.00  0.00    +0.000 A 
ATOM     12  C   UNL     1      33.769  -0.300  33.429  0.00  0.00    +0.000 A 
ATOM     13  N   UNL     1      33.764  -1.614  33.209  0.00  0.00    +0.000 NA
ENDROOT
BRANCH   1  14
ATOM     14  C   UNL     1      33.843  -4.310  32.450  0.00  0.00    +0.000 C 
BRANCH  14  16
ATOM     15  C   UNL     1      35.373  -5.938  31.373  0.00  0.00    +0.000 C 
ATOM     16  C   UNL     1      34.639  -5.547  32.406  0.00  0.00    +0.000 C 
ENDBRANCH  14  16
ENDBRANCH   1  14
BRANCH   1  17
ATOM     17  C   UNL     1      33.211  -4.957  34.751  0.00  0.00    +0.000 C 
BRANCH  17  18
ATOM     18  C   UNL     1      31.730  -5.124  34.771  0.00  0.00    +0.000 C 
ATOM     19  C   UNL     1      31.266  -6.219  34.156  0.00  0.00    +0.000 C 
ENDBRANCH  17  18
ENDBRANCH   1  17
TORSDOF 4
ENDMDL
MODEL 2
REMARK VINA RESULT:      -5.7      2.450      4.172
REMARK  Name = 
REMARK  4 active torsions:
REMARK  status: ('A' for Active; 'I' for Inactive)
REMARK    1  A    between atoms: C_2  and  C_3
REMARK    2  A    between atoms: C_3  and  N_4
REMARK    3  A    between atoms: N_4  and  C_5
REMARK    4  A    between atoms: C_5  and  C_6
REMARK                            x       y       z     vdW  Elec       q    Type
REMARK                         _______ _______ _______ _____ _____    ______ ____
ROOT
ATOM      1  N   UNL     1      33.773  -0.860  34.670  0.00  0.00    +0.000 N 
ATOM      2  C   UNL     1      33.789   0.558  34.550  0.00  0.00    +0.000 A 
ATOM      3  N   UNL     1      33.700   1.176  33.352  0.00  0.00    +0.000 NA
ATOM      4  C   UNL     1      33.722   2.536  33.305  0.00  0.00    +0.000 A 
ATOM      5  N   UNL     1      33.630   3.206  32.053  0.00  0.00    +0.000 NA
ATOM      6  C   UNL     1      33.833   3.281  34.452  0.00  0.00    +0.000 A 
ATOM      7  C   UNL     1      33.860   4.660  34.475  0.00  0.00    +0.000 A 
ATOM      8  C   UNL     1      33.977   5.365  35.672  0.00  0.00    +0.000 A 
ATOM      9 CL   UNL     1      34.019   7.119  35.709  0.00  0.00    +0.000 Cl
ATOM     10  C   UNL     1      34.065   4.670  36.861  0.00  0.00    +0.000 A 
ATOM     11  C   UNL     1      34.041   3.287  36.881  0.00  0.00    +0.000 A 
ATOM     12  C   UNL     1      33.925   2.627  35.672  0.00  0.00    +0.000 A 
ATOM     13  N   UNL     1      33.899   1.294  35.668  0.00  0.00    +0.000 NA
ENDROOT
BRANCH   1  14
ATOM     14  C   UNL     1      33.856  -1.490  35.974  0.00  0.00    +0.000 C 
BRANCH  14  16
ATOM     15  C   UNL     1      36.053  -2.621  36.191  0.00  0.00    +0.000 C 
ATOM     16  C   UNL     1      35.239  -1.611  36.464  0.00  0.00    +0.000 C 
ENDBRANCH  14  16
ENDBRANCH   1  14
BRANCH   1  17
ATOM     17  C   UNL     1      33.674  -1.739  33.521  0.00  0.00    +0.000 C 
BRANCH  17  18
ATOM     18  C   UNL     1      33.047  -3.007  33.990  0.00  0.00    +0.000 C 
ATOM     19  C   UNL     1      33.412  -4.110  33.326  0.00  0.00    +0.000 C 
ENDBRANCH  17  18
ENDBRANCH   1  17
TORSDOF 4
ENDMDL
MODEL 3
REMARK VINA RESULT:      -5.6     19.703     21.868
REMARK  Name = 
REMARK  4 active torsions:
REMARK  status: ('A' for Active; 'I' for Inactive)
REMARK    1  A    between atoms: C_2  and  C_3
REMARK    2  A    between atoms: C_3  and  N_4
REMARK    3  A    between atoms: N_4  and  C_5
REMARK    4  A    between atoms: C_5  and  C_6
REMARK                            x       y       z     vdW  Elec       q    Type
REMARK                         _______ _______ _______ _____ _____    ______ ____
ROOT
ATOM      1  N   UNL     1      18.850  10.100  38.967  0.00  0.00    +0.000 N 
ATOM      2  C   UNL     1      17.608  10.490  38.392  0.00  0.00    +0.000 A 
ATOM      3  N   UNL     1      17.535  11.068  37.173  0.00  0.00    +0.000 NA
ATOM      4  C   UNL     1      16.316  11.419  36.679  0.00  0.00    +0.000 A 
ATOM      5  N   UNL     1      16.216  12.030  35.397  0.00  0.00    +0.000 NA
ATOM      6  C   UNL     1      15.170  11.194  37.400  0.00  0.00    +0.000 A 
ATOM      7  C   UNL     1      13.905  11.525  36.958  0.00  0.00    +0.000 A 
ATOM      8  C   UNL     1      12.775  11.274  37.736  0.00  0.00    +0.000 A 
ATOM      9 CL   UNL     1      11.164  11.697  37.184  0.00  0.00    +0.000 Cl
ATOM     10  C   UNL     1      12.923  10.681  38.974  0.00  0.00    +0.000 A 
ATOM     11  C   UNL     1      14.174  10.335  39.453  0.00  0.00    +0.000 A 
ATOM     12  C   UNL     1      15.267  10.601  38.651  0.00  0.00    +0.000 A 
ATOM     13  N   UNL     1      16.482  10.274  39.091  0.00  0.00    +0.000 NA
ENDROOT
BRANCH   1  14
ATOM     14  C   UNL     1      18.891   9.468  40.273  0.00  0.00    +0.000 C 
BRANCH  14  16
ATOM     15  C   UNL     1      18.739   7.021  39.898  0.00  0.00    +0.000 C 
ATOM     16  C   UNL     1      19.434   8.101  40.229  0.00  0.00    +0.000 C 
ENDBRANCH  14  16
ENDBRANCH   1  14
BRANCH   1  17
ATOM     17  C   UNL     1      20.119  10.304  38.297  0.00  0.00    +0.000 C 
BRANCH  17  18
ATOM     18  C   UNL     1      20.788  11.458  38.962  0.00  0.00    +0.000 C 
ATOM     19  C   UNL     1      20.641  12.639  38.351  0.00  0.00    +0.000 C 
ENDBRANCH  17  18
ENDBRANCH   1  17
TORSDOF 4
ENDMDL
MODEL 4
REMARK VINA RESULT:      -5.4     16.670     19.003
REMARK  Name = 
REMARK  4 active torsions:
REMARK  status: ('A' for Active; 'I' for Inactive)
REMARK    1  A    between atoms: C_2  and  C_3
REMARK    2  A    between atoms: C_3  and  N_4
REMARK    3  A    between atoms: N_4  and  C_5
REMARK    4  A    between atoms: C_5  and  C_6
REMARK                            x       y       z     vdW  Elec       q    Type
REMARK                         _______ _______ _______ _____ _____    ______ ____
ROOT
ATOM      1  N   UNL     1      17.900  10.055  36.847  0.00  0.00    +0.000 N 
ATOM      2  C   UNL     1      19.202  10.339  37.346  0.00  0.00    +0.000 A 
ATOM      3  N   UNL     1      19.396  11.087  38.453  0.00  0.00    +0.000 NA
ATOM      4  C   UNL     1      20.667  11.323  38.879  0.00  0.00    +0.000 A 
ATOM      5  N   UNL     1      20.894  12.110  40.044  0.00  0.00    +0.000 NA
ATOM      6  C   UNL     1      21.746  10.813  38.200  0.00  0.00    +0.000 A 
ATOM      7  C   UNL     1      23.057  11.013  38.578  0.00  0.00    +0.000 A 
ATOM      8  C   UNL     1      24.114  10.471  37.847  0.00  0.00    +0.000 A 
ATOM      9 CL   UNL     1      25.786  10.726  38.316  0.00  0.00    +0.000 Cl
ATOM     10  C   UNL     1      23.844   9.717  36.723  0.00  0.00    +0.000 A 
ATOM     11  C   UNL     1      22.542   9.493  36.312  0.00  0.00    +0.000 A 
ATOM     12  C   UNL     1      21.524  10.048  37.064  0.00  0.00    +0.000 A 
ATOM     13  N   UNL     1      20.262   9.844  36.687  0.00  0.00    +0.000 NA
ENDROOT
BRANCH   1  14
ATOM     14  C   UNL     1      17.727   9.236  35.662  0.00  0.00    +0.000 C 
BRANCH  14  16
ATOM     15  C   UNL     1      16.794  10.398  33.679  0.00  0.00    +0.000 C 
ATOM     16  C   UNL     1      17.827  10.008  34.413  0.00  0.00    +0.000 C 
ENDBRANCH  14  16
ENDBRANCH   1  14
BRANCH   1  17
ATOM     17  C   UNL     1      16.695  10.556  37.479  0.00  0.00    +0.000 C 
BRANCH  17  18
ATOM     18  C   UNL     1      16.505  11.960  37.016  0.00  0.00    +0.000 C 
ATOM     19  C   UNL     1      15.234  12.341  36.839  0.00  0.00    +0.000 C 
ENDBRANCH  17  18
ENDBRANCH   1  17
TORSDOF 4
ENDMDL
MODEL 5
REMARK VINA RESULT:      -5.4     15.370     16.819
REMARK  Name = 
REMARK  4 active torsions:
REMARK  status: ('A' for Active; 'I' for Inactive)
REMARK    1  A    between atoms: C_2  and  C_3
REMARK    2  A    between atoms: C_3  and  N_4
REMARK    3  A    between atoms: N_4  and  C_5
REMARK    4  A    between atoms: C_5  and  C_6
REMARK                            x       y       z     vdW  Elec       q    Type
REMARK                         _______ _______ _______ _____ _____    ______ ____
ROOT
ATOM      1  N   UNL     1      18.711  -8.349  26.418  0.00  0.00    +0.000 N 
ATOM      2  C   UNL     1      20.051  -8.473  25.956  0.00  0.00    +0.000 A 
ATOM      3  N   UNL     1      20.775  -9.596  26.156  0.00  0.00    +0.000 NA
ATOM      4  C   UNL     1      22.053  -9.652  25.691  0.00  0.00    +0.000 A 
ATOM      5  N   UNL     1      22.832 -10.826  25.891  0.00  0.00    +0.000 NA
ATOM      6  C   UNL     1      22.610  -8.588  25.026  0.00  0.00    +0.000 A 
ATOM      7  C   UNL     1      23.896  -8.580  24.529  0.00  0.00    +0.000 A 
ATOM      8  C   UNL     1      24.411  -7.468  23.863  0.00  0.00    +0.000 A 
ATOM      9 CL   UNL     1      26.049  -7.446  23.232  0.00  0.00    +0.000 Cl
ATOM     10  C   UNL     1      23.616  -6.352  23.695  0.00  0.00    +0.000 A 
ATOM     11  C   UNL     1      22.320  -6.321  24.178  0.00  0.00    +0.000 A 
ATOM     12  C   UNL     1      21.850  -7.444  24.833  0.00  0.00    +0.000 A 
ATOM     13  N   UNL     1      20.603  -7.437  25.306  0.00  0.00    +0.000 NA
ENDROOT
BRANCH   1  14
ATOM     14  C   UNL     1      17.957  -7.133  26.173  0.00  0.00    +0.000 C 
BRANCH  14  16
ATOM     15  C   UNL     1      18.792  -4.867  26.741  0.00  0.00    +0.000 C 
ATOM     16  C   UNL     1      18.306  -6.047  27.103  0.00  0.00    +0.000 C 
ENDBRANCH  14  16
ENDBRANCH   1  14
BRANCH   1  17
ATOM     17  C   UNL     1      18.033  -9.407  27.143  0.00  0.00    +0.000 C 
BRANCH  17  18
ATOM     18  C   UNL     1      17.922  -8.967  28.562  0.00  0.00    +0.000 C 
ATOM     19  C   UNL     1      18.897  -9.394  29.375  0.00  0.00    +0.000 C 
ENDBRANCH  17  18
ENDBRANCH   1  17
TORSDOF 4
ENDMDL
MODEL 6
REMARK VINA RESULT:      -5.3     18.005     20.192
REMARK  Name = 
REMARK  4 active torsions:
REMARK  status: ('A' for Active; 'I' for Inactive)
REMARK    1  A    between atoms: C_2  and  C_3
REMARK    2  A    between atoms: C_3  and  N_4
REMARK    3  A    between atoms: N_4  and  C_5
REMARK    4  A    between atoms: C_5  and  C_6
REMARK                            x       y       z     vdW  Elec       q    Type
REMARK                         _______ _______ _______ _____ _____    ______ ____
ROOT
ATOM      1  N   UNL     1      20.697   9.997  38.287  0.00  0.00    +0.000 N 
ATOM      2  C   UNL     1      19.294  10.229  38.288  0.00  0.00    +0.000 A 
ATOM      3  N   UNL     1      18.485   9.717  39.242  0.00  0.00    +0.000 NA
ATOM      4  C   UNL     1      17.150   9.975  39.186  0.00  0.00    +0.000 A 
ATOM      5  N   UNL     1      16.280   9.446  40.181  0.00  0.00    +0.000 NA
ATOM      6  C   UNL     1      16.620  10.743  38.179  0.00  0.00    +0.000 A 
ATOM      7  C   UNL     1      15.278  11.043  38.064  0.00  0.00    +0.000 A 
ATOM      8  C   UNL     1      14.796  11.827  37.017  0.00  0.00    +0.000 A 
ATOM      9 CL   UNL     1      13.090  12.208  36.860  0.00  0.00    +0.000 Cl
ATOM     10  C   UNL     1      15.679  12.316  36.075  0.00  0.00    +0.000 A 
ATOM     11  C   UNL     1      17.032  12.038  36.155  0.00  0.00    +0.000 A 
ATOM     12  C   UNL     1      17.468  11.257  37.208  0.00  0.00    +0.000 A 
ATOM     13  N   UNL     1      18.768  10.978  37.306  0.00  0.00    +0.000 NA
ENDROOT
BRANCH   1  14
ATOM     14  C   UNL     1      21.539  10.573  37.255  0.00  0.00    +0.000 C 
BRANCH  14  16
ATOM     15  C   UNL     1      23.544   9.666  36.111  0.00  0.00    +0.000 C 
ATOM     16  C   UNL     1      22.276   9.558  36.486  0.00  0.00    +0.000 C 
ENDBRANCH  14  16
ENDBRANCH   1  14
BRANCH   1  17
ATOM     17  C   UNL     1      21.357   9.189  39.296  0.00  0.00    +0.000 C 
BRANCH  17  18
ATOM     18  C   UNL     1      22.203  10.106  40.111  0.00  0.00    +0.000 C 
ATOM     19  C   UNL     1      21.575  10.728  41.116  0.00  0.00    +0.000 C 
ENDBRANCH  17  18
ENDBRANCH   1  17
TORSDOF 4
ENDMDL
MODEL 7
REMARK VINA RESULT:      -5.3     24.733     26.312
REMARK  Name = 
REMARK  4 active torsions:
REMARK  status: ('A' for Active; 'I' for Inactive)
REMARK    1  A    between atoms: C_2  and  C_3
REMARK    2  A    between atoms: C_3  and  N_4
REMARK    3  A    between atoms: N_4  and  C_5
REMARK    4  A    between atoms: C_5  and  C_6
REMARK                            x       y       z     vdW  Elec       q    Type
REMARK                         _______ _______ _______ _____ _____    ______ ____
ROOT
ATOM      1  N   UNL     1      27.687  24.013  26.090  0.00  0.00    +0.000 N 
ATOM      2  C   UNL     1      27.900  23.568  27.424  0.00  0.00    +0.000 A 
ATOM      3  N   UNL     1      26.877  23.369  28.284  0.00  0.00    +0.000 NA
ATOM      4  C   UNL     1      27.147  22.943  29.548  0.00  0.00    +0.000 A 
ATOM      5  N   UNL     1      26.084  22.728  30.470  0.00  0.00    +0.000 NA
ATOM      6  C   UNL     1      28.438  22.716  29.956  0.00  0.00    +0.000 A 
ATOM      7  C   UNL     1      28.781  22.284  31.221  0.00  0.00    +0.000 A 
ATOM      8  C   UNL     1      30.111  22.072  31.581  0.00  0.00    +0.000 A 
ATOM      9 CL   UNL     1      30.556  21.528  33.189  0.00  0.00    +0.000 Cl
ATOM     10  C   UNL     1      31.108  22.296  30.652  0.00  0.00    +0.000 A 
ATOM     11  C   UNL     1      30.805  22.730  29.374  0.00  0.00    +0.000 A 
ATOM     12  C   UNL     1      29.474  22.928  29.058  0.00  0.00    +0.000 A 
ATOM     13  N   UNL     1      29.159  23.344  27.832  0.00  0.00    +0.000 NA
ENDROOT
BRANCH   1  14
ATOM     14  C   UNL     1      28.807  24.202  25.188  0.00  0.00    +0.000 C 
BRANCH  14  16
ATOM     15  C   UNL     1      30.474  22.464  24.594  0.00  0.00    +0.000 C 
ATOM     16  C   UNL     1      29.242  22.952  24.545  0.00  0.00    +0.000 C 
ENDBRANCH  14  16
ENDBRANCH   1  14
BRANCH   1  17
ATOM     17  C   UNL     1      26.365  24.295  25.563  0.00  0.00    +0.000 C 
BRANCH  17  18
ATOM     18  C   UNL     1      25.882  23.053  24.896  0.00  0.00    +0.000 C 
ATOM     19  C   UNL     1      25.518  23.191  23.616  0.00  0.00    +0.000 C 
ENDBRANCH  17  18
ENDBRANCH   1  17
TORSDOF 4
ENDMDL
MODEL 8
REMARK VINA RESULT:      -5.3     15.172     17.550
REMARK  Name = 
REMARK  4 active torsions:
REMARK  status: ('A' for Active; 'I' for Inactive)
REMARK    1  A    between atoms: C_2  and  C_3
REMARK    2  A    between atoms: C_3  and  N_4
REMARK    3  A    between atoms: N_4  and  C_5
REMARK    4  A    between atoms: C_5  and  C_6
REMARK                            x       y       z     vdW  Elec       q    Type
REMARK                         _______ _______ _______ _____ _____    ______ ____
ROOT
ATOM      1  N   UNL     1      19.231   9.666  38.094  0.00  0.00    +0.000 N 
ATOM      2  C   UNL     1      20.640   9.524  38.229  0.00  0.00    +0.000 A 
ATOM      3  N   UNL     1      21.197   8.889  39.284  0.00  0.00    +0.000 NA
ATOM      4  C   UNL     1      22.553   8.788  39.355  0.00  0.00    +0.000 A 
ATOM      5  N   UNL     1      23.160   8.123  40.458  0.00  0.00    +0.000 NA
ATOM      6  C   UNL     1      23.354   9.319  38.375  0.00  0.00    +0.000 A 
ATOM      7  C   UNL     1      24.731   9.251  38.386  0.00  0.00    +0.000 A 
ATOM      8  C   UNL     1      25.495   9.813  37.363  0.00  0.00    +0.000 A 
ATOM      9 CL   UNL     1      27.248   9.736  37.372  0.00  0.00    +0.000 Cl
ATOM     10  C   UNL     1      24.860  10.449  36.316  0.00  0.00    +0.000 A 
ATOM     11  C   UNL     1      23.480  10.539  36.268  0.00  0.00    +0.000 A 
ATOM     12  C   UNL     1      22.761   9.969  37.302  0.00  0.00    +0.000 A 
ATOM     13  N   UNL     1      21.430  10.043  37.276  0.00  0.00    +0.000 NA
ENDROOT
BRANCH   1  14
ATOM     14  C   UNL     1      18.665  10.341  36.942  0.00  0.00    +0.000 C 
BRANCH  14  16
ATOM     15  C   UNL     1      17.567   8.789  35.349  0.00  0.00    +0.000 C 
ATOM     16  C   UNL     1      18.623   9.489  35.743  0.00  0.00    +0.000 C 
ENDBRANCH  14  16
ENDBRANCH   1  14
BRANCH   1  17
ATOM     17  C   UNL     1      18.297   9.153  39.078  0.00  0.00    +0.000 C 
BRANCH  17  18
ATOM     18  C   UNL     1      17.122  10.070  39.089  0.00  0.00    +0.000 C 
ATOM     19  C   UNL     1      16.195   9.807  40.019  0.00  0.00    +0.000 C 
ENDBRANCH  17  18
ENDBRANCH   1  17
TORSDOF 4
ENDMDL
MODEL 9
REMARK VINA RESULT:      -5.2     25.528     27.630
REMARK  Name = 
REMARK  4 active torsions:
REMARK  status: ('A' for Active; 'I' for Inactive)
REMARK    1  A    between atoms: C_2  and  C_3
REMARK    2  A    between atoms: C_3  and  N_4
REMARK    3  A    between atoms: N_4  and  C_5
REMARK    4  A    between atoms: C_5  and  C_6
REMARK                            x       y       z     vdW  Elec       q    Type
REMARK                         _______ _______ _______ _____ _____    ______ ____
ROOT
ATOM      1  N   UNL     1      27.192  23.564  23.416  0.00  0.00    +0.000 N 
ATOM      2  C   UNL     1      28.282  23.323  24.298  0.00  0.00    +0.000 A 
ATOM      3  N   UNL     1      29.557  23.259  23.858  0.00  0.00    +0.000 NA
ATOM      4  C   UNL     1      30.556  23.024  24.753  0.00  0.00    +0.000 A 
ATOM      5  N   UNL     1      31.906  22.952  24.310  0.00  0.00    +0.000 NA
ATOM      6  C   UNL     1      30.282  22.851  26.087  0.00  0.00    +0.000 A 
ATOM      7  C   UNL     1      31.245  22.610  27.045  0.00  0.00    +0.000 A 
ATOM      8  C   UNL     1      30.908  22.440  28.387  0.00  0.00    +0.000 A 
ATOM      9 CL   UNL     1      32.127  22.128  29.611  0.00  0.00    +0.000 Cl
ATOM     10  C   UNL     1      29.584  22.516  28.768  0.00  0.00    +0.000 A 
ATOM     11  C   UNL     1      28.588  22.756  27.837  0.00  0.00    +0.000 A 
ATOM     12  C   UNL     1      28.965  22.918  26.518  0.00  0.00    +0.000 A 
ATOM     13  N   UNL     1      28.023  23.152  25.604  0.00  0.00    +0.000 NA
ENDROOT
BRANCH   1  14
ATOM     14  C   UNL     1      25.835  23.641  23.924  0.00  0.00    +0.000 C 
BRANCH  14  16
ATOM     15  C   UNL     1      25.144  25.171  25.750  0.00  0.00    +0.000 C 
ATOM     16  C   UNL     1      25.511  24.959  24.493  0.00  0.00    +0.000 C 
ENDBRANCH  14  16
ENDBRANCH   1  14
BRANCH   1  17
ATOM     17  C   UNL     1      27.369  23.747  21.988  0.00  0.00    +0.000 C 
BRANCH  17  18
ATOM     18  C   UNL     1      27.602  25.200  21.755  0.00  0.00    +0.000 C 
ATOM     19  C   UNL     1      28.777  25.512  21.196  0.00  0.00    +0.000 C 
ENDBRANCH  17  18
ENDBRANCH   1  17
TORSDOF 4
ENDMDL
MODEL 10
REMARK VINA RESULT:      -5.1     24.205     26.356
REMARK  Name = 
REMARK  4 active torsions:
REMARK  status: ('A' for Active; 'I' for Inactive)
REMARK    1  A    between atoms: C_2  and  C_3
REMARK    2  A    between atoms: C_3  and  N_4
REMARK    3  A    between atoms: N_4  and  C_5
REMARK    4  A    between atoms: C_5  and  C_6
REMARK                            x       y       z     vdW  Elec       q    Type
REMARK                         _______ _______ _______ _____ _____    ______ ____
ROOT
ATOM      1  N   UNL     1      30.845  22.697  28.897  0.00  0.00    +0.000 N 
ATOM      2  C   UNL     1      30.288  22.846  27.597  0.00  0.00    +0.000 A 
ATOM      3  N   UNL     1      31.061  23.013  26.502  0.00  0.00    +0.000 NA
ATOM      4  C   UNL     1      30.466  23.152  25.286  0.00  0.00    +0.000 A 
ATOM      5  N   UNL     1      31.262  23.329  24.120  0.00  0.00    +0.000 NA
ATOM      6  C   UNL     1      29.099  23.125  25.161  0.00  0.00    +0.000 A 
ATOM      7  C   UNL     1      28.433  23.260  23.960  0.00  0.00    +0.000 A 
ATOM      8  C   UNL     1      27.041  23.227  23.894  0.00  0.00    +0.000 A 
ATOM      9 CL   UNL     1      26.185  23.403  22.371  0.00  0.00    +0.000 Cl
ATOM     10  C   UNL     1      26.311  23.055  25.053  0.00  0.00    +0.000 A 
ATOM     11  C   UNL     1      26.942  22.917  26.277  0.00  0.00    +0.000 A 
ATOM     12  C   UNL     1      28.323  22.955  26.299  0.00  0.00    +0.000 A 
ATOM     13  N   UNL     1      28.952  22.823  27.467  0.00  0.00    +0.000 NA
ENDROOT
BRANCH   1  14
ATOM     14  C   UNL     1      29.986  22.505  30.051  0.00  0.00    +0.000 C 
BRANCH  14  16
ATOM     15  C   UNL     1      30.375  23.412  32.326  0.00  0.00    +0.000 C 
ATOM     16  C   UNL     1      30.106  23.588  31.040  0.00  0.00    +0.000 C 
ENDBRANCH  14  16
ENDBRANCH   1  14
BRANCH   1  17
ATOM     17  C   UNL     1      32.275  22.724  29.142  0.00  0.00    +0.000 C 
BRANCH  17  18
ATOM     18  C   UNL     1      32.674  21.354  29.573  0.00  0.00    +0.000 C 
ATOM     19  C   UNL     1      33.400  21.292  30.695  0.00  0.00    +0.000 C 
ENDBRANCH  17  18
ENDBRANCH   1  17
TORSDOF 4
ENDMDL
