MODEL 1
REMARK VINA RESULT:      -7.2      0.000      0.000
REMARK  Name = 
REMARK  4 active torsions:
REMARK  status: ('A' for Active; 'I' for Inactive)
REMARK    1  A    between atoms: C_2  and  C_3
REMARK    2  A    between atoms: C_8  and  N_9
REMARK    3  A    between atoms: C_10  and  C_12
REMARK    4  A    between atoms: C_16  and  N_17
REMARK                            x       y       z     vdW  Elec       q    Type
REMARK                         _______ _______ _______ _____ _____    ______ ____
ROOT
ATOM      1  N   UNL     1      14.419  11.884  35.542  0.00  0.00    +0.000 NA
ATOM      2  C   UNL     1      15.469  12.130  36.459  0.00  0.00    +0.000 C 
ATOM      3  O   UNL     1      16.202  13.136  36.204  0.00  0.00    +0.000 OA
ENDROOT
BRANCH   2   4
ATOM      4  C   UNL     1      15.724  11.292  37.639  0.00  0.00    +0.000 A 
ATOM      5  C   UNL     1      14.698  11.029  38.523  0.00  0.00    +0.000 A 
ATOM      6  C   UNL     1      14.883  10.253  39.640  0.00  0.00    +0.000 A 
ATOM      7  C   UNL     1      16.122   9.734  39.870  0.00  0.00    +0.000 A 
ATOM      8  C   UNL     1      17.173   9.972  39.013  0.00  0.00    +0.000 A 
ATOM      9  C   UNL     1      16.952  10.759  37.896  0.00  0.00    +0.000 A 
ATOM     10  C   UNL     1      18.073  11.040  36.942  0.00  0.00    +0.000 C 
BRANCH   8  11
ATOM     11  N   UNL     1      18.473   9.442  39.233  0.00  0.00    +0.000 N 
ATOM     12  O   UNL     1      18.727   8.290  38.838  0.00  0.00    +0.000 OA
ATOM     13  O   UNL     1      19.479  10.133  39.860  0.00  0.00    +0.000 OA
ENDBRANCH   8  11
ENDBRANCH   2   4
BRANCH   1  19
ATOM     14  C   UNL     1      14.637  12.378  33.145  0.00  0.00    +0.000 A 
ATOM     15  C   UNL     1      14.442  13.176  32.044  0.00  0.00    +0.000 A 
ATOM     16  C   UNL     1      13.788  14.391  32.168  0.00  0.00    +0.000 A 
ATOM     17  C   UNL     1      13.354  14.749  33.427  0.00  0.00    +0.000 A 
ATOM     18  C   UNL     1      13.555  13.941  34.531  0.00  0.00    +0.000 A 
ATOM     19  C   UNL     1      14.208  12.725  34.407  0.00  0.00    +0.000 A 
BRANCH  14  21
ATOM     20  C   UNL     1      15.520  10.726  31.570  0.00  0.00    +0.000 C 
ATOM     21  C   UNL     1      15.344  11.055  33.035  0.00  0.00    +0.000 C 
ENDBRANCH  14  21
ENDBRANCH   1  19
TORSDOF 4
ENDMDL
MODEL 2
REMARK VINA RESULT:      -7.2      1.477      2.207
REMARK  Name = 
REMARK  4 active torsions:
REMARK  status: ('A' for Active; 'I' for Inactive)
REMARK    1  A    between atoms: C_2  and  C_3
REMARK    2  A    between atoms: C_8  and  N_9
REMARK    3  A    between atoms: C_10  and  C_12
REMARK    4  A    between atoms: C_16  and  N_17
REMARK                            x       y       z     vdW  Elec       q    Type
REMARK                         _______ _______ _______ _____ _____    ______ ____
ROOT
ATOM      1  N   UNL     1      15.700  11.221  35.623  0.00  0.00    +0.000 NA
ATOM      2  C   UNL     1      16.776  11.647  36.438  0.00  0.00    +0.000 C 
ATOM      3  O   UNL     1      17.126  12.861  36.304  0.00  0.00    +0.000 OA
ENDROOT
BRANCH   2   4
ATOM      4  C   UNL     1      17.469  10.764  37.387  0.00  0.00    +0.000 A 
ATOM      5  C   UNL     1      18.763  10.362  37.123  0.00  0.00    +0.000 A 
ATOM      6  C   UNL     1      19.455   9.538  37.977  0.00  0.00    +0.000 A 
ATOM      7  C   UNL     1      18.834   9.113  39.113  0.00  0.00    +0.000 A 
ATOM      8  C   UNL     1      17.544   9.492  39.413  0.00  0.00    +0.000 A 
ATOM      9  C   UNL     1      16.874  10.322  38.531  0.00  0.00    +0.000 A 
ATOM     10  C   UNL     1      15.470  10.754  38.825  0.00  0.00    +0.000 C 
BRANCH   8  11
ATOM     11  N   UNL     1      16.876   9.061  40.591  0.00  0.00    +0.000 N 
ATOM     12  O   UNL     1      16.464   7.888  40.653  0.00  0.00    +0.000 OA
ATOM     13  O   UNL     1      16.657   9.868  41.678  0.00  0.00    +0.000 OA
ENDBRANCH   8  11
ENDBRANCH   2   4
BRANCH   1  19
ATOM     14  C   UNL     1      15.198  12.002  33.349  0.00  0.00    +0.000 A 
ATOM     15  C   UNL     1      14.585  12.853  32.461  0.00  0.00    +0.000 A 
ATOM     16  C   UNL     1      13.780  13.881  32.922  0.00  0.00    +0.000 A 
ATOM     17  C   UNL     1      13.630  14.004  34.286  0.00  0.00    +0.000 A 
ATOM     18  C   UNL     1      14.250  13.144  35.175  0.00  0.00    +0.000 A 
ATOM     19  C   UNL     1      15.056  12.114  34.714  0.00  0.00    +0.000 A 
BRANCH  14  21
ATOM     20  C   UNL     1      15.892  10.725  31.380  0.00  0.00    +0.000 C 
ATOM     21  C   UNL     1      16.077  10.878  32.872  0.00  0.00    +0.000 C 
ENDBRANCH  14  21
ENDBRANCH   1  19
TORSDOF 4
ENDMDL
MODEL 3
REMARK VINA RESULT:      -7.1      0.729      2.045
REMARK  Name = 
REMARK  4 active torsions:
REMARK  status: ('A' for Active; 'I' for Inactive)
REMARK    1  A    between atoms: C_2  and  C_3
REMARK    2  A    between atoms: C_8  and  N_9
REMARK    3  A    between atoms: C_10  and  C_12
REMARK    4  A    between atoms: C_16  and  N_17
REMARK                            x       y       z     vdW  Elec       q    Type
REMARK                         _______ _______ _______ _____ _____    ______ ____
ROOT
ATOM      1  N   UNL     1      14.925  11.480  34.881  0.00  0.00    +0.000 NA
ATOM      2  C   UNL     1      15.907  11.795  35.851  0.00  0.00    +0.000 C 
ATOM      3  O   UNL     1      16.754  12.680  35.514  0.00  0.00    +0.000 OA
ENDROOT
BRANCH   2   4
ATOM      4  C   UNL     1      15.971  11.157  37.173  0.00  0.00    +0.000 A 
ATOM      5  C   UNL     1      14.859  11.166  37.989  0.00  0.00    +0.000 A 
ATOM      6  C   UNL     1      14.866  10.584  39.233  0.00  0.00    +0.000 A 
ATOM      7  C   UNL     1      16.012   9.984  39.661  0.00  0.00    +0.000 A 
ATOM      8  C   UNL     1      17.144   9.952  38.877  0.00  0.00    +0.000 A 
ATOM      9  C   UNL     1      17.103  10.549  37.628  0.00  0.00    +0.000 A 
ATOM     10  C   UNL     1      18.316  10.535  36.749  0.00  0.00    +0.000 C 
BRANCH   8  11
ATOM     11  N   UNL     1      18.351   9.333  39.302  0.00  0.00    +0.000 N 
ATOM     12  O   UNL     1      18.511   8.119  39.083  0.00  0.00    +0.000 OA
ATOM     13  O   UNL     1      19.362  10.001  39.944  0.00  0.00    +0.000 OA
ENDBRANCH   8  11
ENDBRANCH   2   4
BRANCH   1  19
ATOM     14  C   UNL     1      14.214  13.301  33.393  0.00  0.00    +0.000 A 
ATOM     15  C   UNL     1      14.181  13.935  32.175  0.00  0.00    +0.000 A 
ATOM     16  C   UNL     1      14.857  13.400  31.090  0.00  0.00    +0.000 A 
ATOM     17  C   UNL     1      15.548  12.225  31.294  0.00  0.00    +0.000 A 
ATOM     18  C   UNL     1      15.576  11.592  32.523  0.00  0.00    +0.000 A 
ATOM     19  C   UNL     1      14.901  12.127  33.608  0.00  0.00    +0.000 A 
BRANCH  14  21
ATOM     20  C   UNL     1      12.983  15.243  34.231  0.00  0.00    +0.000 C 
ATOM     21  C   UNL     1      13.488  13.862  34.585  0.00  0.00    +0.000 C 
ENDBRANCH  14  21
ENDBRANCH   1  19
TORSDOF 4
ENDMDL
MODEL 4
REMARK VINA RESULT:      -6.9     18.219     19.817
REMARK  Name = 
REMARK  4 active torsions:
REMARK  status: ('A' for Active; 'I' for Inactive)
REMARK    1  A    between atoms: C_2  and  C_3
REMARK    2  A    between atoms: C_8  and  N_9
REMARK    3  A    between atoms: C_10  and  C_12
REMARK    4  A    between atoms: C_16  and  N_17
REMARK                            x       y       z     vdW  Elec       q    Type
REMARK                         _______ _______ _______ _____ _____    ______ ____
ROOT
ATOM      1  N   UNL     1      28.442  23.067  25.352  0.00  0.00    +0.000 NA
ATOM      2  C   UNL     1      28.656  23.935  26.450  0.00  0.00    +0.000 C 
ATOM      3  O   UNL     1      28.799  25.165  26.163  0.00  0.00    +0.000 OA
ENDROOT
BRANCH   2   4
ATOM      4  C   UNL     1      28.717  23.476  27.844  0.00  0.00    +0.000 A 
ATOM      5  C   UNL     1      29.941  23.191  28.415  0.00  0.00    +0.000 A 
ATOM      6  C   UNL     1      30.053  22.758  29.714  0.00  0.00    +0.000 A 
ATOM      7  C   UNL     1      28.914  22.611  30.448  0.00  0.00    +0.000 A 
ATOM      8  C   UNL     1      27.674  22.885  29.916  0.00  0.00    +0.000 A 
ATOM      9  C   UNL     1      27.596  23.318  28.603  0.00  0.00    +0.000 A 
ATOM     10  C   UNL     1      26.263  23.625  27.991  0.00  0.00    +0.000 C 
BRANCH   8  11
ATOM     11  N   UNL     1      26.473  22.737  30.662  0.00  0.00    +0.000 N 
ATOM     12  O   UNL     1      25.950  23.749  31.163  0.00  0.00    +0.000 OA
ATOM     13  O   UNL     1      25.847  21.533  30.863  0.00  0.00    +0.000 OA
ENDBRANCH   8  11
ENDBRANCH   2   4
BRANCH   1  19
ATOM     14  C   UNL     1      27.204  23.720  23.334  0.00  0.00    +0.000 A 
ATOM     15  C   UNL     1      27.138  24.192  22.045  0.00  0.00    +0.000 A 
ATOM     16  C   UNL     1      28.296  24.530  21.365  0.00  0.00    +0.000 A 
ATOM     17  C   UNL     1      29.491  24.372  22.034  0.00  0.00    +0.000 A 
ATOM     18  C   UNL     1      29.550  23.896  23.332  0.00  0.00    +0.000 A 
ATOM     19  C   UNL     1      28.391  23.558  24.012  0.00  0.00    +0.000 A 
BRANCH  14  21
ATOM     20  C   UNL     1      25.326  24.612  24.625  0.00  0.00    +0.000 C 
ATOM     21  C   UNL     1      25.960  23.347  24.093  0.00  0.00    +0.000 C 
ENDBRANCH  14  21
ENDBRANCH   1  19
TORSDOF 4
ENDMDL
MODEL 5
REMARK VINA RESULT:      -6.8     20.935     23.438
REMARK  Name = 
REMARK  4 active torsions:
REMARK  status: ('A' for Active; 'I' for Inactive)
REMARK    1  A    between atoms: C_2  and  C_3
REMARK    2  A    between atoms: C_8  and  N_9
REMARK    3  A    between atoms: C_10  and  C_12
REMARK    4  A    between atoms: C_16  and  N_17
REMARK                            x       y       z     vdW  Elec       q    Type
REMARK                         _______ _______ _______ _____ _____    ______ ____
ROOT
ATOM      1  N   UNL     1      22.044  -6.720  23.944  0.00  0.00    +0.000 NA
ATOM      2  C   UNL     1      21.482  -7.218  25.144  0.00  0.00    +0.000 C 
ATOM      3  O   UNL     1      22.168  -8.098  25.752  0.00  0.00    +0.000 OA
ENDROOT
BRANCH   2   4
ATOM      4  C   UNL     1      20.189  -6.769  25.680  0.00  0.00    +0.000 A 
ATOM      5  C   UNL     1      20.047  -5.466  26.112  0.00  0.00    +0.000 A 
ATOM      6  C   UNL     1      18.861  -4.996  26.621  0.00  0.00    +0.000 A 
ATOM      7  C   UNL     1      17.803  -5.852  26.694  0.00  0.00    +0.000 A 
ATOM      8  C   UNL     1      17.904  -7.159  26.273  0.00  0.00    +0.000 A 
ATOM      9  C   UNL     1      19.114  -7.601  25.766  0.00  0.00    +0.000 A 
ATOM     10  C   UNL     1      19.260  -9.017  25.299  0.00  0.00    +0.000 C 
BRANCH   8  11
ATOM     11  N   UNL     1      16.815  -8.069  26.340  0.00  0.00    +0.000 N 
ATOM     12  O   UNL     1      15.895  -7.968  25.508  0.00  0.00    +0.000 OA
ATOM     13  O   UNL     1      16.716  -9.067  27.277  0.00  0.00    +0.000 OA
ENDBRANCH   8  11
ENDBRANCH   2   4
BRANCH   1  19
ATOM     14  C   UNL     1      23.408  -8.229  22.568  0.00  0.00    +0.000 A 
ATOM     15  C   UNL     1      24.613  -8.689  22.094  0.00  0.00    +0.000 A 
ATOM     16  C   UNL     1      25.797  -8.103  22.509  0.00  0.00    +0.000 A 
ATOM     17  C   UNL     1      25.705  -7.058  23.403  0.00  0.00    +0.000 A 
ATOM     18  C   UNL     1      24.489  -6.600  23.876  0.00  0.00    +0.000 A 
ATOM     19  C   UNL     1      23.304  -7.186  23.461  0.00  0.00    +0.000 A 
BRANCH  14  21
ATOM     20  C   UNL     1      21.971 -10.196  22.805  0.00  0.00    +0.000 C 
ATOM     21  C   UNL     1      22.109  -8.850  22.131  0.00  0.00    +0.000 C 
ENDBRANCH  14  21
ENDBRANCH   1  19
TORSDOF 4
ENDMDL
MODEL 6
REMARK VINA RESULT:      -6.7      2.239      3.380
REMARK  Name = 
REMARK  4 active torsions:
REMARK  status: ('A' for Active; 'I' for Inactive)
REMARK    1  A    between atoms: C_2  and  C_3
REMARK    2  A    between atoms: C_8  and  N_9
REMARK    3  A    between atoms: C_10  and  C_12
REMARK    4  A    between atoms: C_16  and  N_17
REMARK                            x       y       z     vdW  Elec       q    Type
REMARK                         _______ _______ _______ _____ _____    ______ ____
ROOT
ATOM      1  N   UNL     1      17.238  11.130  35.743  0.00  0.00    +0.000 NA
ATOM      2  C   UNL     1      17.562   9.912  36.389  0.00  0.00    +0.000 C 
ATOM      3  O   UNL     1      17.283   8.853  35.744  0.00  0.00    +0.000 OA
ENDROOT
BRANCH   2   4
ATOM      4  C   UNL     1      18.179   9.842  37.721  0.00  0.00    +0.000 A 
ATOM      5  C   UNL     1      17.376   9.819  38.843  0.00  0.00    +0.000 A 
ATOM      6  C   UNL     1      17.901   9.754  40.110  0.00  0.00    +0.000 A 
ATOM      7  C   UNL     1      19.257   9.712  40.248  0.00  0.00    +0.000 A 
ATOM      8  C   UNL     1      20.093   9.733  39.153  0.00  0.00    +0.000 A 
ATOM      9  C   UNL     1      19.530   9.799  37.890  0.00  0.00    +0.000 A 
ATOM     10  C   UNL     1      20.409   9.825  36.677  0.00  0.00    +0.000 C 
BRANCH   8  11
ATOM     11  N   UNL     1      21.508   9.691  39.272  0.00  0.00    +0.000 N 
ATOM     12  O   UNL     1      22.064   8.591  39.441  0.00  0.00    +0.000 OA
ATOM     13  O   UNL     1      22.309  10.803  39.210  0.00  0.00    +0.000 OA
ENDBRANCH   8  11
ENDBRANCH   2   4
BRANCH   1  19
ATOM     14  C   UNL     1      15.476  11.842  34.186  0.00  0.00    +0.000 A 
ATOM     15  C   UNL     1      14.888  11.871  32.946  0.00  0.00    +0.000 A 
ATOM     16  C   UNL     1      15.458  11.187  31.885  0.00  0.00    +0.000 A 
ATOM     17  C   UNL     1      16.621  10.491  32.134  0.00  0.00    +0.000 A 
ATOM     18  C   UNL     1      17.209  10.466  33.386  0.00  0.00    +0.000 A 
ATOM     19  C   UNL     1      16.638  11.150  34.448  0.00  0.00    +0.000 A 
BRANCH  14  21
ATOM     20  C   UNL     1      13.916  13.616  34.822  0.00  0.00    +0.000 C 
ATOM     21  C   UNL     1      14.876  12.577  35.353  0.00  0.00    +0.000 C 
ENDBRANCH  14  21
ENDBRANCH   1  19
TORSDOF 4
ENDMDL
MODEL 7
REMARK VINA RESULT:      -6.6     19.362     21.574
REMARK  Name = 
REMARK  4 active torsions:
REMARK  status: ('A' for Active; 'I' for Inactive)
REMARK    1  A    between atoms: C_2  and  C_3
REMARK    2  A    between atoms: C_8  and  N_9
REMARK    3  A    between atoms: C_10  and  C_12
REMARK    4  A    between atoms: C_16  and  N_17
REMARK                            x       y       z     vdW  Elec       q    Type
REMARK                         _______ _______ _______ _____ _____    ______ ____
ROOT
ATOM      1  N   UNL     1      28.315  22.592  26.630  0.00  0.00    +0.000 NA
ATOM      2  C   UNL     1      27.733  23.721  26.004  0.00  0.00    +0.000 C 
ATOM      3  O   UNL     1      27.496  24.713  26.762  0.00  0.00    +0.000 OA
ENDROOT
BRANCH   2   4
ATOM      4  C   UNL     1      27.409  23.774  24.572  0.00  0.00    +0.000 A 
ATOM      5  C   UNL     1      26.218  23.243  24.123  0.00  0.00    +0.000 A 
ATOM      6  C   UNL     1      25.867  23.267  22.795  0.00  0.00    +0.000 A 
ATOM      7  C   UNL     1      26.731  23.834  21.907  0.00  0.00    +0.000 A 
ATOM      8  C   UNL     1      27.930  24.375  22.314  0.00  0.00    +0.000 A 
ATOM      9  C   UNL     1      28.253  24.334  23.660  0.00  0.00    +0.000 A 
ATOM     10  C   UNL     1      29.550  24.912  24.139  0.00  0.00    +0.000 C 
BRANCH   8  11
ATOM     11  N   UNL     1      28.847  24.971  21.406  0.00  0.00    +0.000 N 
ATOM     12  O   UNL     1      29.719  24.257  20.879  0.00  0.00    +0.000 OA
ATOM     13  O   UNL     1      28.827  26.301  21.071  0.00  0.00    +0.000 OA
ENDBRANCH   8  11
ENDBRANCH   2   4
BRANCH   1  19
ATOM     14  C   UNL     1      29.889  22.777  28.507  0.00  0.00    +0.000 A 
ATOM     15  C   UNL     1      30.191  22.773  29.847  0.00  0.00    +0.000 A 
ATOM     16  C   UNL     1      29.195  22.572  30.788  0.00  0.00    +0.000 A 
ATOM     17  C   UNL     1      27.913  22.378  30.318  0.00  0.00    +0.000 A 
ATOM     18  C   UNL     1      27.616  22.383  28.967  0.00  0.00    +0.000 A 
ATOM     19  C   UNL     1      28.613  22.585  28.026  0.00  0.00    +0.000 A 
BRANCH  14  21
ATOM     20  C   UNL     1      31.291  24.467  27.427  0.00  0.00    +0.000 C 
ATOM     21  C   UNL     1      30.954  22.994  27.467  0.00  0.00    +0.000 C 
ENDBRANCH  14  21
ENDBRANCH   1  19
TORSDOF 4
ENDMDL
MODEL 8
REMARK VINA RESULT:      -6.5     18.244     19.919
REMARK  Name = 
REMARK  4 active torsions:
REMARK  status: ('A' for Active; 'I' for Inactive)
REMARK    1  A    between atoms: C_2  and  C_3
REMARK    2  A    between atoms: C_8  and  N_9
REMARK    3  A    between atoms: C_10  and  C_12
REMARK    4  A    between atoms: C_16  and  N_17
REMARK                            x       y       z     vdW  Elec       q    Type
REMARK                         _______ _______ _______ _____ _____    ______ ____
ROOT
ATOM      1  N   UNL     1      27.845  25.068  25.506  0.00  0.00    +0.000 NA
ATOM      2  C   UNL     1      26.632  24.540  26.012  0.00  0.00    +0.000 C 
ATOM      3  O   UNL     1      25.825  24.080  25.145  0.00  0.00    +0.000 OA
ENDROOT
BRANCH   2   4
ATOM      4  C   UNL     1      26.297  24.512  27.443  0.00  0.00    +0.000 A 
ATOM      5  C   UNL     1      25.589  25.559  27.996  0.00  0.00    +0.000 A 
ATOM      6  C   UNL     1      25.250  25.582  29.327  0.00  0.00    +0.000 A 
ATOM      7  C   UNL     1      25.632  24.535  30.111  0.00  0.00    +0.000 A 
ATOM      8  C   UNL     1      26.341  23.471  29.597  0.00  0.00    +0.000 A 
ATOM      9  C   UNL     1      26.666  23.479  28.252  0.00  0.00    +0.000 A 
ATOM     10  C   UNL     1      27.436  22.339  27.658  0.00  0.00    +0.000 C 
BRANCH   8  11
ATOM     11  N   UNL     1      26.750  22.369  30.395  0.00  0.00    +0.000 N 
ATOM     12  O   UNL     1      25.887  21.576  30.812  0.00  0.00    +0.000 OA
ATOM     13  O   UNL     1      28.056  22.122  30.736  0.00  0.00    +0.000 OA
ENDBRANCH   8  11
ENDBRANCH   2   4
BRANCH   1  19
ATOM     14  C   UNL     1      28.812  24.050  23.490  0.00  0.00    +0.000 A 
ATOM     15  C   UNL     1      29.092  24.042  22.145  0.00  0.00    +0.000 A 
ATOM     16  C   UNL     1      28.684  25.092  21.340  0.00  0.00    +0.000 A 
ATOM     17  C   UNL     1      27.999  26.124  21.946  0.00  0.00    +0.000 A 
ATOM     18  C   UNL     1      27.721  26.126  23.301  0.00  0.00    +0.000 A 
ATOM     19  C   UNL     1      28.128  25.075  24.107  0.00  0.00    +0.000 A 
BRANCH  14  21
ATOM     20  C   UNL     1      30.752  22.944  24.491  0.00  0.00    +0.000 C 
ATOM     21  C   UNL     1      29.244  22.921  24.385  0.00  0.00    +0.000 C 
ENDBRANCH  14  21
ENDBRANCH   1  19
TORSDOF 4
ENDMDL
MODEL 9
REMARK VINA RESULT:      -6.4     18.864     20.035
REMARK  Name = 
REMARK  4 active torsions:
REMARK  status: ('A' for Active; 'I' for Inactive)
REMARK    1  A    between atoms: C_2  and  C_3
REMARK    2  A    between atoms: C_8  and  N_9
REMARK    3  A    between atoms: C_10  and  C_12
REMARK    4  A    between atoms: C_16  and  N_17
REMARK                            x       y       z     vdW  Elec       q    Type
REMARK                         _______ _______ _______ _____ _____    ______ ____
ROOT
ATOM      1  N   UNL     1      29.702  22.001  27.025  0.00  0.00    +0.000 NA
ATOM      2  C   UNL     1      30.300  22.888  27.954  0.00  0.00    +0.000 C 
ATOM      3  O   UNL     1      30.108  24.126  27.739  0.00  0.00    +0.000 OA
ENDROOT
BRANCH   2   4
ATOM      4  C   UNL     1      31.100  22.438  29.101  0.00  0.00    +0.000 A 
ATOM      5  C   UNL     1      32.371  21.942  28.893  0.00  0.00    +0.000 A 
ATOM      6  C   UNL     1      33.160  21.508  29.930  0.00  0.00    +0.000 A 
ATOM      7  C   UNL     1      32.660  21.575  31.196  0.00  0.00    +0.000 A 
ATOM      8  C   UNL     1      31.396  22.062  31.446  0.00  0.00    +0.000 A 
ATOM      9  C   UNL     1      30.627  22.491  30.378  0.00  0.00    +0.000 A 
ATOM     10  C   UNL     1      29.248  23.027  30.613  0.00  0.00    +0.000 C 
BRANCH   8  11
ATOM     11  N   UNL     1      30.854  22.140  32.757  0.00  0.00    +0.000 N 
ATOM     12  O   UNL     1      30.232  21.162  33.209  0.00  0.00    +0.000 OA
ATOM     13  O   UNL     1      30.977  23.242  33.566  0.00  0.00    +0.000 OA
ENDBRANCH   8  11
ENDBRANCH   2   4
BRANCH   1  19
ATOM     14  C   UNL     1      29.499  22.773  24.702  0.00  0.00    +0.000 A 
ATOM     15  C   UNL     1      28.773  23.238  23.633  0.00  0.00    +0.000 A 
ATOM     16  C   UNL     1      27.407  23.437  23.749  0.00  0.00    +0.000 A 
ATOM     17  C   UNL     1      26.829  23.152  24.968  0.00  0.00    +0.000 A 
ATOM     18  C   UNL     1      27.567  22.684  26.041  0.00  0.00    +0.000 A 
ATOM     19  C   UNL     1      28.933  22.484  25.924  0.00  0.00    +0.000 A 
BRANCH  14  21
ATOM     20  C   UNL     1      31.668  23.895  24.531  0.00  0.00    +0.000 C 
ATOM     21  C   UNL     1      30.983  22.549  24.599  0.00  0.00    +0.000 C 
ENDBRANCH  14  21
ENDBRANCH   1  19
TORSDOF 4
ENDMDL
MODEL 10
REMARK VINA RESULT:      -6.4      1.824      3.134
REMARK  Name = 
REMARK  4 active torsions:
REMARK  status: ('A' for Active; 'I' for Inactive)
REMARK    1  A    between atoms: C_2  and  C_3
REMARK    2  A    between atoms: C_8  and  N_9
REMARK    3  A    between atoms: C_10  and  C_12
REMARK    4  A    between atoms: C_16  and  N_17
REMARK                            x       y       z     vdW  Elec       q    Type
REMARK                         _______ _______ _______ _____ _____    ______ ____
ROOT
ATOM      1  N   UNL     1      16.281  10.644  35.760  0.00  0.00    +0.000 NA
ATOM      2  C   UNL     1      17.221  11.193  36.666  0.00  0.00    +0.000 C 
ATOM      3  O   UNL     1      17.558  12.399  36.452  0.00  0.00    +0.000 OA
ENDROOT
BRANCH   2   4
ATOM      4  C   UNL     1      17.792  10.441  37.792  0.00  0.00    +0.000 A 
ATOM      5  C   UNL     1      19.119  10.063  37.756  0.00  0.00    +0.000 A 
ATOM      6  C   UNL     1      19.702   9.360  38.781  0.00  0.00    +0.000 A 
ATOM      7  C   UNL     1      18.935   9.031  39.859  0.00  0.00    +0.000 A 
ATOM      8  C   UNL     1      17.607   9.389  39.934  0.00  0.00    +0.000 A 
ATOM      9  C   UNL     1      17.051  10.098  38.883  0.00  0.00    +0.000 A 
ATOM     10  C   UNL     1      15.609  10.503  38.930  0.00  0.00    +0.000 C 
BRANCH   8  11
ATOM     11  N   UNL     1      16.788   9.058  41.047  0.00  0.00    +0.000 N 
ATOM     12  O   UNL     1      16.220   7.951  41.067  0.00  0.00    +0.000 OA
ATOM     13  O   UNL     1      16.584   9.894  42.116  0.00  0.00    +0.000 OA
ENDBRANCH   8  11
ENDBRANCH   2   4
BRANCH   1  19
ATOM     14  C   UNL     1      14.701  12.286  34.843  0.00  0.00    +0.000 A 
ATOM     15  C   UNL     1      14.182  13.032  33.813  0.00  0.00    +0.000 A 
ATOM     16  C   UNL     1      14.713  12.930  32.539  0.00  0.00    +0.000 A 
ATOM     17  C   UNL     1      15.766  12.058  32.362  0.00  0.00    +0.000 A 
ATOM     18  C   UNL     1      16.284  11.309  33.403  0.00  0.00    +0.000 A 
ATOM     19  C   UNL     1      15.753  11.413  34.679  0.00  0.00    +0.000 A 
BRANCH  14  21
ATOM     20  C   UNL     1      12.878  13.212  36.189  0.00  0.00    +0.000 C 
ATOM     21  C   UNL     1      14.140  12.381  36.236  0.00  0.00    +0.000 C 
ENDBRANCH  14  21
ENDBRANCH   1  19
TORSDOF 4
ENDMDL
