MODEL 1
REMARK VINA RESULT:      -5.5      0.000      0.000
REMARK  Name = 
REMARK  5 active torsions:
REMARK  status: ('A' for Active; 'I' for Inactive)
REMARK    1  A    between atoms: O_2  and  C_3
REMARK    2  A    between atoms: C_5  and  O_6
REMARK    3  A    between atoms: C_9  and  C_10
REMARK    4  A    between atoms: C_10  and  S_11
REMARK    5  A    between atoms: S_11  and  C_12
REMARK                            x       y       z     vdW  Elec       q    Type
REMARK                         _______ _______ _______ _____ _____    ______ ____
ROOT
ATOM      1  C   UNL     1      21.672  10.527  37.263  0.00  0.00    +0.000 A 
ATOM      2  C   UNL     1      21.653  11.720  37.976  0.00  0.00    +0.000 A 
ATOM      3  C   UNL     1      20.449  12.221  38.403  0.00  0.00    +0.000 A 
ATOM      4  N   UNL     1      19.337  11.528  38.111  0.00  0.00    +0.000 NA
ATOM      5  C   UNL     1      19.356  10.378  37.422  0.00  0.00    +0.000 A 
ATOM      6  N   UNL     1      20.518   9.882  37.002  0.00  0.00    +0.000 NA
ENDROOT
BRANCH   1   8
ATOM      7  C   UNL     1      23.538   9.056  37.621  0.00  0.00    +0.000 C 
ATOM      8  O   UNL     1      22.910  10.059  36.852  0.00  0.00    +0.000 OA
ENDBRANCH   1   8
BRANCH   3   9
ATOM      9  O   UNL     1      20.386  13.410  39.120  0.00  0.00    +0.000 OA
ATOM     10  C   UNL     1      21.368  14.399  39.071  0.00  0.00    +0.000 C 
ENDBRANCH   3   9
BRANCH   5  11
ATOM     11  C   UNL     1      18.063   9.699  37.156  0.00  0.00    +0.000 C 
BRANCH  11  12
ATOM     12  S   UNL     1      18.083   9.167  35.422  0.00  0.00    +0.000 S 
BRANCH  12  13
ATOM     13  C   UNL     1      17.013  10.260  34.489  0.00  0.00    +0.000 A 
ATOM     14  C   UNL     1      17.031  10.292  33.110  0.00  0.00    +0.000 A 
ATOM     15  C   UNL     1      16.209  11.132  32.390  0.00  0.00    +0.000 A 
ATOM     16  C   UNL     1      15.324  11.986  33.017  0.00  0.00    +0.000 A 
ATOM     17  N   UNL     1      14.465  12.862  32.290  0.00  0.00    +0.000 NA
ATOM     18  C   UNL     1      15.308  11.952  34.398  0.00  0.00    +0.000 A 
ATOM     19  C   UNL     1      16.130  11.112  35.120  0.00  0.00    +0.000 A 
ENDBRANCH  12  13
ENDBRANCH  11  12
ENDBRANCH   5  11
TORSDOF 5
ENDMDL
MODEL 2
REMARK VINA RESULT:      -5.3     21.231     22.581
REMARK  Name = 
REMARK  5 active torsions:
REMARK  status: ('A' for Active; 'I' for Inactive)
REMARK    1  A    between atoms: O_2  and  C_3
REMARK    2  A    between atoms: C_5  and  O_6
REMARK    3  A    between atoms: C_9  and  C_10
REMARK    4  A    between atoms: C_10  and  S_11
REMARK    5  A    between atoms: S_11  and  C_12
REMARK                            x       y       z     vdW  Elec       q    Type
REMARK                         _______ _______ _______ _____ _____    ______ ____
ROOT
ATOM      1  C   UNL     1      28.492  27.304  21.825  0.00  0.00    +0.000 A 
ATOM      2  C   UNL     1      29.276  27.569  20.709  0.00  0.00    +0.000 A 
ATOM      3  C   UNL     1      29.803  26.519  20.000  0.00  0.00    +0.000 A 
ATOM      4  N   UNL     1      29.532  25.273  20.423  0.00  0.00    +0.000 NA
ATOM      5  C   UNL     1      28.777  25.018  21.500  0.00  0.00    +0.000 A 
ATOM      6  N   UNL     1      28.260  26.029  22.195  0.00  0.00    +0.000 NA
ENDROOT
BRANCH   1   8
ATOM      7  C   UNL     1      27.205  28.160  23.665  0.00  0.00    +0.000 C 
ATOM      8  O   UNL     1      27.981  28.395  22.509  0.00  0.00    +0.000 OA
ENDBRANCH   1   8
BRANCH   3   9
ATOM      9  O   UNL     1      30.591  26.741  18.877  0.00  0.00    +0.000 OA
ATOM     10  C   UNL     1      30.205  27.542  17.804  0.00  0.00    +0.000 C 
ENDBRANCH   3   9
BRANCH   5  11
ATOM     11  C   UNL     1      28.545  23.600  21.873  0.00  0.00    +0.000 C 
BRANCH  11  12
ATOM     12  S   UNL     1      27.599  23.601  23.421  0.00  0.00    +0.000 S 
BRANCH  12  13
ATOM     13  C   UNL     1      28.693  23.090  24.745  0.00  0.00    +0.000 A 
ATOM     14  C   UNL     1      30.063  23.062  24.586  0.00  0.00    +0.000 A 
ATOM     15  C   UNL     1      30.907  22.670  25.604  0.00  0.00    +0.000 A 
ATOM     16  C   UNL     1      30.419  22.284  26.836  0.00  0.00    +0.000 A 
ATOM     17  N   UNL     1      31.276  21.875  27.901  0.00  0.00    +0.000 NA
ATOM     18  C   UNL     1      29.047  22.313  26.993  0.00  0.00    +0.000 A 
ATOM     19  C   UNL     1      28.201  22.705  25.976  0.00  0.00    +0.000 A 
ENDBRANCH  12  13
ENDBRANCH  11  12
ENDBRANCH   5  11
TORSDOF 5
ENDMDL
MODEL 3
REMARK VINA RESULT:      -5.3      1.203      2.952
REMARK  Name = 
REMARK  5 active torsions:
REMARK  status: ('A' for Active; 'I' for Inactive)
REMARK    1  A    between atoms: O_2  and  C_3
REMARK    2  A    between atoms: C_5  and  O_6
REMARK    3  A    between atoms: C_9  and  C_10
REMARK    4  A    between atoms: C_10  and  S_11
REMARK    5  A    between atoms: S_11  and  C_12
REMARK                            x       y       z     vdW  Elec       q    Type
REMARK                         _______ _______ _______ _____ _____    ______ ____
ROOT
ATOM      1  C   UNL     1      21.428  12.019  38.559  0.00  0.00    +0.000 A 
ATOM      2  C   UNL     1      22.563  11.519  37.932  0.00  0.00    +0.000 A 
ATOM      3  C   UNL     1      22.454  10.388  37.162  0.00  0.00    +0.000 A 
ATOM      4  N   UNL     1      21.245   9.815  37.048  0.00  0.00    +0.000 NA
ATOM      5  C   UNL     1      20.151  10.298  37.654  0.00  0.00    +0.000 A 
ATOM      6  N   UNL     1      20.244  11.394  38.405  0.00  0.00    +0.000 NA
ENDROOT
BRANCH   1   8
ATOM      7  C   UNL     1      20.967  14.354  38.891  0.00  0.00    +0.000 C 
ATOM      8  O   UNL     1      21.585  13.162  39.327  0.00  0.00    +0.000 OA
ENDBRANCH   1   8
BRANCH   3   9
ATOM      9  O   UNL     1      23.564   9.856  36.516  0.00  0.00    +0.000 OA
ATOM     10  C   UNL     1      24.674  10.608  36.134  0.00  0.00    +0.000 C 
ENDBRANCH   3   9
BRANCH   5  11
ATOM     11  C   UNL     1      18.867   9.580  37.458  0.00  0.00    +0.000 C 
BRANCH  11  12
ATOM     12  S   UNL     1      17.562  10.835  37.344  0.00  0.00    +0.000 S 
BRANCH  12  13
ATOM     13  C   UNL     1      17.013  10.917  35.640  0.00  0.00    +0.000 A 
ATOM     14  C   UNL     1      17.678  10.253  34.630  0.00  0.00    +0.000 A 
ATOM     15  C   UNL     1      17.256  10.315  33.318  0.00  0.00    +0.000 A 
ATOM     16  C   UNL     1      16.146  11.047  32.951  0.00  0.00    +0.000 A 
ATOM     17  N   UNL     1      15.695  11.123  31.600  0.00  0.00    +0.000 NA
ATOM     18  C   UNL     1      15.482  11.710  33.965  0.00  0.00    +0.000 A 
ATOM     19  C   UNL     1      15.901  11.650  35.278  0.00  0.00    +0.000 A 
ENDBRANCH  12  13
ENDBRANCH  11  12
ENDBRANCH   5  11
TORSDOF 5
ENDMDL
MODEL 4
REMARK VINA RESULT:      -5.2     17.838     19.214
REMARK  Name = 
REMARK  5 active torsions:
REMARK  status: ('A' for Active; 'I' for Inactive)
REMARK    1  A    between atoms: O_2  and  C_3
REMARK    2  A    between atoms: C_5  and  O_6
REMARK    3  A    between atoms: C_9  and  C_10
REMARK    4  A    between atoms: C_10  and  S_11
REMARK    5  A    between atoms: S_11  and  C_12
REMARK                            x       y       z     vdW  Elec       q    Type
REMARK                         _______ _______ _______ _____ _____    ______ ____
ROOT
ATOM      1  C   UNL     1      29.228  23.981  23.268  0.00  0.00    +0.000 A 
ATOM      2  C   UNL     1      29.812  23.061  24.130  0.00  0.00    +0.000 A 
ATOM      3  C   UNL     1      29.320  22.935  25.404  0.00  0.00    +0.000 A 
ATOM      4  N   UNL     1      28.286  23.715  25.762  0.00  0.00    +0.000 NA
ATOM      5  C   UNL     1      27.724  24.603  24.931  0.00  0.00    +0.000 A 
ATOM      6  N   UNL     1      28.193  24.734  23.691  0.00  0.00    +0.000 NA
ENDROOT
BRANCH   1   8
ATOM      7  C   UNL     1      29.280  25.091  21.138  0.00  0.00    +0.000 C 
ATOM      8  O   UNL     1      29.758  24.073  21.991  0.00  0.00    +0.000 OA
ENDBRANCH   1   8
BRANCH   3   9
ATOM      9  O   UNL     1      29.875  22.026  26.297  0.00  0.00    +0.000 OA
ATOM     10  C   UNL     1      30.955  22.316  27.130  0.00  0.00    +0.000 C 
ENDBRANCH   3   9
BRANCH   5  11
ATOM     11  C   UNL     1      26.587  25.412  25.436  0.00  0.00    +0.000 C 
BRANCH  11  12
ATOM     12  S   UNL     1      25.449  24.275  26.274  0.00  0.00    +0.000 S 
BRANCH  12  13
ATOM     13  C   UNL     1      25.565  24.566  28.038  0.00  0.00    +0.000 A 
ATOM     14  C   UNL     1      25.019  25.688  28.626  0.00  0.00    +0.000 A 
ATOM     15  C   UNL     1      25.107  25.914  29.984  0.00  0.00    +0.000 A 
ATOM     16  C   UNL     1      25.749  25.026  30.822  0.00  0.00    +0.000 A 
ATOM     17  N   UNL     1      25.850  25.243  32.229  0.00  0.00    +0.000 NA
ATOM     18  C   UNL     1      26.295  23.904  30.231  0.00  0.00    +0.000 A 
ATOM     19  C   UNL     1      26.208  23.675  28.873  0.00  0.00    +0.000 A 
ENDBRANCH  12  13
ENDBRANCH  11  12
ENDBRANCH   5  11
TORSDOF 5
ENDMDL
MODEL 5
REMARK VINA RESULT:      -5.1     29.421     30.803
REMARK  Name = 
REMARK  5 active torsions:
REMARK  status: ('A' for Active; 'I' for Inactive)
REMARK    1  A    between atoms: O_2  and  C_3
REMARK    2  A    between atoms: C_5  and  O_6
REMARK    3  A    between atoms: C_9  and  C_10
REMARK    4  A    between atoms: C_10  and  S_11
REMARK    5  A    between atoms: S_11  and  C_12
REMARK                            x       y       z     vdW  Elec       q    Type
REMARK                         _______ _______ _______ _____ _____    ______ ____
ROOT
ATOM      1  C   UNL     1      34.996  19.749   9.186  0.00  0.00    +0.000 A 
ATOM      2  C   UNL     1      35.259  21.050   8.772  0.00  0.00    +0.000 A 
ATOM      3  C   UNL     1      34.415  22.057   9.166  0.00  0.00    +0.000 A 
ATOM      4  N   UNL     1      33.366  21.736   9.940  0.00  0.00    +0.000 NA
ATOM      5  C   UNL     1      33.113  20.482  10.338  0.00  0.00    +0.000 A 
ATOM      6  N   UNL     1      33.924  19.496   9.963  0.00  0.00    +0.000 NA
ENDROOT
BRANCH   1   8
ATOM      7  C   UNL     1      37.175  18.745   9.314  0.00  0.00    +0.000 C 
ATOM      8  O   UNL     1      35.875  18.764   8.764  0.00  0.00    +0.000 OA
ENDBRANCH   1   8
BRANCH   3   9
ATOM      9  O   UNL     1      34.644  23.372   8.775  0.00  0.00    +0.000 OA
ATOM     10  C   UNL     1      34.981  24.397   9.657  0.00  0.00    +0.000 C 
ENDBRANCH   3   9
BRANCH   5  11
ATOM     11  C   UNL     1      31.923  20.246  11.193  0.00  0.00    +0.000 C 
BRANCH  11  12
ATOM     12  S   UNL     1      30.488  20.926  10.316  0.00  0.00    +0.000 S 
BRANCH  12  13
ATOM     13  C   UNL     1      29.592  21.987  11.447  0.00  0.00    +0.000 A 
ATOM     14  C   UNL     1      28.251  22.264  11.277  0.00  0.00    +0.000 A 
ATOM     15  C   UNL     1      27.560  23.080  12.147  0.00  0.00    +0.000 A 
ATOM     16  C   UNL     1      28.179  23.663  13.234  0.00  0.00    +0.000 A 
ATOM     17  N   UNL     1      27.481  24.511  14.145  0.00  0.00    +0.000 NA
ATOM     18  C   UNL     1      29.521  23.385  13.402  0.00  0.00    +0.000 A 
ATOM     19  C   UNL     1      30.215  22.568  12.533  0.00  0.00    +0.000 A 
ENDBRANCH  12  13
ENDBRANCH  11  12
ENDBRANCH   5  11
TORSDOF 5
ENDMDL
MODEL 6
REMARK VINA RESULT:      -5.1     20.730     22.602
REMARK  Name = 
REMARK  5 active torsions:
REMARK  status: ('A' for Active; 'I' for Inactive)
REMARK    1  A    between atoms: O_2  and  C_3
REMARK    2  A    between atoms: C_5  and  O_6
REMARK    3  A    between atoms: C_9  and  C_10
REMARK    4  A    between atoms: C_10  and  S_11
REMARK    5  A    between atoms: S_11  and  C_12
REMARK                            x       y       z     vdW  Elec       q    Type
REMARK                         _______ _______ _______ _____ _____    ______ ____
ROOT
ATOM      1  C   UNL     1      19.181  -6.832  25.767  0.00  0.00    +0.000 A 
ATOM      2  C   UNL     1      20.523  -6.473  25.729  0.00  0.00    +0.000 A 
ATOM      3  C   UNL     1      21.441  -7.378  25.259  0.00  0.00    +0.000 A 
ATOM      4  N   UNL     1      20.994  -8.578  24.853  0.00  0.00    +0.000 NA
ATOM      5  C   UNL     1      19.700  -8.923  24.891  0.00  0.00    +0.000 A 
ATOM      6  N   UNL     1      18.800  -8.053  25.345  0.00  0.00    +0.000 NA
ENDROOT
BRANCH   1   8
ATOM      7  C   UNL     1      18.789  -4.612  26.602  0.00  0.00    +0.000 C 
ATOM      8  O   UNL     1      18.290  -5.886  26.250  0.00  0.00    +0.000 OA
ENDBRANCH   1   8
BRANCH   3   9
ATOM      9  O   UNL     1      22.793  -7.059  25.203  0.00  0.00    +0.000 OA
ATOM     10  C   UNL     1      23.374  -6.322  24.172  0.00  0.00    +0.000 C 
ENDBRANCH   3   9
BRANCH   5  11
ATOM     11  C   UNL     1      19.322 -10.278  24.417  0.00  0.00    +0.000 C 
BRANCH  11  12
ATOM     12  S   UNL     1      20.037 -11.472  25.580  0.00  0.00    +0.000 S 
BRANCH  12  13
ATOM     13  C   UNL     1      19.696 -10.906  27.245  0.00  0.00    +0.000 A 
ATOM     14  C   UNL     1      18.422 -10.932  27.774  0.00  0.00    +0.000 A 
ATOM     15  C   UNL     1      18.157 -10.497  29.056  0.00  0.00    +0.000 A 
ATOM     16  C   UNL     1      19.157 -10.011  29.873  0.00  0.00    +0.000 A 
ATOM     17  N   UNL     1      18.902  -9.557  31.201  0.00  0.00    +0.000 NA
ATOM     18  C   UNL     1      20.431  -9.986  29.341  0.00  0.00    +0.000 A 
ATOM     19  C   UNL     1      20.699 -10.421  28.060  0.00  0.00    +0.000 A 
ENDBRANCH  12  13
ENDBRANCH  11  12
ENDBRANCH   5  11
TORSDOF 5
ENDMDL
MODEL 7
REMARK VINA RESULT:      -5.1     17.496     18.472
REMARK  Name = 
REMARK  5 active torsions:
REMARK  status: ('A' for Active; 'I' for Inactive)
REMARK    1  A    between atoms: O_2  and  C_3
REMARK    2  A    between atoms: C_5  and  O_6
REMARK    3  A    between atoms: C_9  and  C_10
REMARK    4  A    between atoms: C_10  and  S_11
REMARK    5  A    between atoms: S_11  and  C_12
REMARK                            x       y       z     vdW  Elec       q    Type
REMARK                         _______ _______ _______ _____ _____    ______ ____
ROOT
ATOM      1  C   UNL     1      28.240  23.483  30.407  0.00  0.00    +0.000 A 
ATOM      2  C   UNL     1      27.079  24.236  30.537  0.00  0.00    +0.000 A 
ATOM      3  C   UNL     1      26.221  24.326  29.470  0.00  0.00    +0.000 A 
ATOM      4  N   UNL     1      26.548  23.676  28.341  0.00  0.00    +0.000 NA
ATOM      5  C   UNL     1      27.668  22.952  28.216  0.00  0.00    +0.000 A 
ATOM      6  N   UNL     1      28.508  22.856  29.245  0.00  0.00    +0.000 NA
ENDROOT
BRANCH   1   8
ATOM      7  C   UNL     1      29.590  24.628  32.033  0.00  0.00    +0.000 C 
ATOM      8  O   UNL     1      29.076  23.421  31.511  0.00  0.00    +0.000 OA
ENDBRANCH   1   8
BRANCH   3   9
ATOM      9  O   UNL     1      25.049  25.067  29.558  0.00  0.00    +0.000 OA
ATOM     10  C   UNL     1      24.594  25.923  28.556  0.00  0.00    +0.000 C 
ENDBRANCH   3   9
BRANCH   5  11
ATOM     11  C   UNL     1      27.926  22.277  26.920  0.00  0.00    +0.000 C 
BRANCH  11  12
ATOM     12  S   UNL     1      26.699  22.900  25.737  0.00  0.00    +0.000 S 
BRANCH  12  13
ATOM     13  C   UNL     1      27.564  23.428  24.260  0.00  0.00    +0.000 A 
ATOM     14  C   UNL     1      28.939  23.531  24.220  0.00  0.00    +0.000 A 
ATOM     15  C   UNL     1      29.607  23.936  23.084  0.00  0.00    +0.000 A 
ATOM     16  C   UNL     1      28.929  24.260  21.927  0.00  0.00    +0.000 A 
ATOM     17  N   UNL     1      29.602  24.682  20.742  0.00  0.00    +0.000 NA
ATOM     18  C   UNL     1      27.552  24.156  21.968  0.00  0.00    +0.000 A 
ATOM     19  C   UNL     1      26.882  23.751  23.104  0.00  0.00    +0.000 A 
ENDBRANCH  12  13
ENDBRANCH  11  12
ENDBRANCH   5  11
TORSDOF 5
ENDMDL
MODEL 8
REMARK VINA RESULT:      -5.1      5.313      6.730
REMARK  Name = 
REMARK  5 active torsions:
REMARK  status: ('A' for Active; 'I' for Inactive)
REMARK    1  A    between atoms: O_2  and  C_3
REMARK    2  A    between atoms: C_5  and  O_6
REMARK    3  A    between atoms: C_9  and  C_10
REMARK    4  A    between atoms: C_10  and  S_11
REMARK    5  A    between atoms: S_11  and  C_12
REMARK                            x       y       z     vdW  Elec       q    Type
REMARK                         _______ _______ _______ _____ _____    ______ ____
ROOT
ATOM      1  C   UNL     1      16.463   7.139  43.350  0.00  0.00    +0.000 A 
ATOM      2  C   UNL     1      17.162   6.045  42.853  0.00  0.00    +0.000 A 
ATOM      3  C   UNL     1      17.639   6.088  41.567  0.00  0.00    +0.000 A 
ATOM      4  N   UNL     1      17.405   7.195  40.843  0.00  0.00    +0.000 NA
ATOM      5  C   UNL     1      16.730   8.248  41.322  0.00  0.00    +0.000 A 
ATOM      6  N   UNL     1      16.263   8.219  42.569  0.00  0.00    +0.000 NA
ENDROOT
BRANCH   1   8
ATOM      7  C   UNL     1      14.821   6.317  44.899  0.00  0.00    +0.000 C 
ATOM      8  O   UNL     1      16.001   7.052  44.653  0.00  0.00    +0.000 OA
ENDBRANCH   1   8
BRANCH   3   9
ATOM      9  O   UNL     1      18.344   5.016  41.032  0.00  0.00    +0.000 OA
ATOM     10  C   UNL     1      19.425   5.154  40.163  0.00  0.00    +0.000 C 
ENDBRANCH   3   9
BRANCH   5  11
ATOM     11  C   UNL     1      16.532   9.418  40.430  0.00  0.00    +0.000 C 
BRANCH  11  12
ATOM     12  S   UNL     1      18.078   9.663  39.515  0.00  0.00    +0.000 S 
BRANCH  12  13
ATOM     13  C   UNL     1      17.671   9.933  37.791  0.00  0.00    +0.000 A 
ATOM     14  C   UNL     1      16.609  10.727  37.411  0.00  0.00    +0.000 A 
ATOM     15  C   UNL     1      16.294  10.937  36.085  0.00  0.00    +0.000 A 
ATOM     16  C   UNL     1      17.029  10.360  35.070  0.00  0.00    +0.000 A 
ATOM     17  N   UNL     1      16.719  10.564  33.693  0.00  0.00    +0.000 NA
ATOM     18  C   UNL     1      18.092   9.565  35.453  0.00  0.00    +0.000 A 
ATOM     19  C   UNL     1      18.409   9.355  36.779  0.00  0.00    +0.000 A 
ENDBRANCH  12  13
ENDBRANCH  11  12
ENDBRANCH   5  11
TORSDOF 5
ENDMDL
MODEL 9
REMARK VINA RESULT:      -4.9     17.306     18.785
REMARK  Name = 
REMARK  5 active torsions:
REMARK  status: ('A' for Active; 'I' for Inactive)
REMARK    1  A    between atoms: O_2  and  C_3
REMARK    2  A    between atoms: C_5  and  O_6
REMARK    3  A    between atoms: C_9  and  C_10
REMARK    4  A    between atoms: C_10  and  S_11
REMARK    5  A    between atoms: S_11  and  C_12
REMARK                            x       y       z     vdW  Elec       q    Type
REMARK                         _______ _______ _______ _____ _____    ______ ____
ROOT
ATOM      1  C   UNL     1      25.398  26.518  29.218  0.00  0.00    +0.000 A 
ATOM      2  C   UNL     1      25.542  25.478  30.129  0.00  0.00    +0.000 A 
ATOM      3  C   UNL     1      25.747  24.205  29.660  0.00  0.00    +0.000 A 
ATOM      4  N   UNL     1      25.799  24.023  28.330  0.00  0.00    +0.000 NA
ATOM      5  C   UNL     1      25.659  25.026  27.453  0.00  0.00    +0.000 A 
ATOM      6  N   UNL     1      25.460  26.265  27.896  0.00  0.00    +0.000 NA
ENDROOT
BRANCH   1   8
ATOM      7  C   UNL     1      25.870  28.873  29.141  0.00  0.00    +0.000 C 
ATOM      8  O   UNL     1      25.194  27.786  29.737  0.00  0.00    +0.000 OA
ENDBRANCH   1   8
BRANCH   3   9
ATOM      9  O   UNL     1      25.897  23.138  30.538  0.00  0.00    +0.000 OA
ATOM     10  C   UNL     1      26.532  21.942  30.204  0.00  0.00    +0.000 C 
ENDBRANCH   3   9
BRANCH   5  11
ATOM     11  C   UNL     1      25.734  24.705  26.005  0.00  0.00    +0.000 C 
BRANCH  11  12
ATOM     12  S   UNL     1      26.309  22.991  25.864  0.00  0.00    +0.000 S 
BRANCH  12  13
ATOM     13  C   UNL     1      28.041  23.018  25.407  0.00  0.00    +0.000 A 
ATOM     14  C   UNL     1      29.032  22.637  26.288  0.00  0.00    +0.000 A 
ATOM     15  C   UNL     1      30.365  22.657  25.938  0.00  0.00    +0.000 A 
ATOM     16  C   UNL     1      30.775  23.061  24.684  0.00  0.00    +0.000 A 
ATOM     17  N   UNL     1      32.150  23.089  24.303  0.00  0.00    +0.000 NA
ATOM     18  C   UNL     1      29.782  23.442  23.803  0.00  0.00    +0.000 A 
ATOM     19  C   UNL     1      28.447  23.422  24.151  0.00  0.00    +0.000 A 
ENDBRANCH  12  13
ENDBRANCH  11  12
ENDBRANCH   5  11
TORSDOF 5
ENDMDL
MODEL 10
REMARK VINA RESULT:      -4.9     16.381     18.030
REMARK  Name = 
REMARK  5 active torsions:
REMARK  status: ('A' for Active; 'I' for Inactive)
REMARK    1  A    between atoms: O_2  and  C_3
REMARK    2  A    between atoms: C_5  and  O_6
REMARK    3  A    between atoms: C_9  and  C_10
REMARK    4  A    between atoms: C_10  and  S_11
REMARK    5  A    between atoms: S_11  and  C_12
REMARK                            x       y       z     vdW  Elec       q    Type
REMARK                         _______ _______ _______ _____ _____    ______ ____
ROOT
ATOM      1  C   UNL     1      25.347  25.397  31.276  0.00  0.00    +0.000 A 
ATOM      2  C   UNL     1      24.902  26.104  30.166  0.00  0.00    +0.000 A 
ATOM      3  C   UNL     1      25.099  25.573  28.916  0.00  0.00    +0.000 A 
ATOM      4  N   UNL     1      25.717  24.384  28.824  0.00  0.00    +0.000 NA
ATOM      5  C   UNL     1      26.147  23.704  29.896  0.00  0.00    +0.000 A 
ATOM      6  N   UNL     1      25.961  24.208  31.114  0.00  0.00    +0.000 NA
ENDROOT
BRANCH   1   8
ATOM      7  C   UNL     1      23.860  26.536  32.781  0.00  0.00    +0.000 C 
ATOM      8  O   UNL     1      25.127  25.971  32.518  0.00  0.00    +0.000 OA
ENDBRANCH   1   8
BRANCH   3   9
ATOM      9  O   UNL     1      24.668  26.248  27.779  0.00  0.00    +0.000 OA
ATOM     10  C   UNL     1      24.374  25.620  26.569  0.00  0.00    +0.000 C 
ENDBRANCH   3   9
BRANCH   5  11
ATOM     11  C   UNL     1      26.818  22.399  29.674  0.00  0.00    +0.000 C 
BRANCH  11  12
ATOM     12  S   UNL     1      28.604  22.682  29.822  0.00  0.00    +0.000 S 
BRANCH  12  13
ATOM     13  C   UNL     1      29.307  22.695  28.174  0.00  0.00    +0.000 A 
ATOM     14  C   UNL     1      30.664  22.826  27.964  0.00  0.00    +0.000 A 
ATOM     15  C   UNL     1      31.207  22.836  26.697  0.00  0.00    +0.000 A 
ATOM     16  C   UNL     1      30.416  22.716  25.573  0.00  0.00    +0.000 A 
ATOM     17  N   UNL     1      30.959  22.724  24.254  0.00  0.00    +0.000 NA
ATOM     18  C   UNL     1      29.058  22.584  25.785  0.00  0.00    +0.000 A 
ATOM     19  C   UNL     1      28.512  22.574  27.053  0.00  0.00    +0.000 A 
ENDBRANCH  12  13
ENDBRANCH  11  12
ENDBRANCH   5  11
TORSDOF 5
ENDMDL
