MODEL 1
REMARK VINA RESULT:      -8.1      0.000      0.000
REMARK  Name = 
REMARK  7 active torsions:
REMARK  status: ('A' for Active; 'I' for Inactive)
REMARK    1  A    between atoms: C_2  and  O_3
REMARK    2  A    between atoms: O_3  and  C_4
REMARK    3  A    between atoms: C_9  and  N_10
REMARK    4  A    between atoms: N_10  and  C_11
REMARK    5  A    between atoms: C_12  and  S_13
REMARK    6  A    between atoms: S_13  and  C_14
REMARK    7  A    between atoms: N_22  and  C_23
REMARK                            x       y       z     vdW  Elec       q    Type
REMARK                         _______ _______ _______ _____ _____    ______ ____
ROOT
ATOM      1  C   UNL     1      36.458   4.464  14.757  0.00  0.00    +0.000 C 
ATOM      2  C   UNL     1      37.758   4.257  14.997  0.00  0.00    +0.000 C 
ATOM      3  C   UNL     1      37.903   2.830  15.196  0.00  0.00    +0.000 C 
ATOM      4  O   UNL     1      38.959   2.214  15.446  0.00  0.00    +0.000 OA
ATOM      5  N   UNL     1      36.628   2.157  15.068  0.00  0.00    +0.000 N 
ATOM      6  C   UNL     1      35.726   3.209  14.790  0.00  0.00    +0.000 C 
ATOM      7  O   UNL     1      34.473   3.067  14.601  0.00  0.00    +0.000 OA
ENDROOT
BRANCH   5   8
ATOM      8  C   UNL     1      36.388   0.755  15.200  0.00  0.00    +0.000 A 
ATOM      9  C   UNL     1      35.765   0.282  16.338  0.00  0.00    +0.000 A 
ATOM     10  C   UNL     1      35.512  -1.062  16.509  0.00  0.00    +0.000 A 
ATOM     11  C   UNL     1      34.847  -1.507  17.742  0.00  0.00    +0.000 C 
ATOM     12  C   UNL     1      35.883  -1.963  15.535  0.00  0.00    +0.000 A 
ATOM     13  C   UNL     1      36.510  -1.460  14.396  0.00  0.00    +0.000 A 
ATOM     14  C   UNL     1      36.765  -0.131  14.215  0.00  0.00    +0.000 A 
ATOM     15  C   UNL     1      37.428   0.429  13.017  0.00  0.00    +0.000 C 
ENDBRANCH   5   8
BRANCH   1  16
ATOM     16  N   UNL     1      35.900   5.751  14.504  0.00  0.00    +0.000 NA
BRANCH  16  22
ATOM     17  C   UNL     1      34.332   6.904  13.050  0.00  0.00    +0.000 A 
ATOM     18  C   UNL     1      33.870   7.292  11.812  0.00  0.00    +0.000 A 
ATOM     19  C   UNL     1      34.532   6.906  10.666  0.00  0.00    +0.000 A 
ATOM     20  C   UNL     1      35.670   6.121  10.822  0.00  0.00    +0.000 A 
ATOM     21  C   UNL     1      36.134   5.732  12.061  0.00  0.00    +0.000 A 
ATOM     22  C   UNL     1      35.460   6.126  13.194  0.00  0.00    +0.000 A 
BRANCH  17  23
ATOM     23  O   UNL     1      33.623   7.324  14.163  0.00  0.00    +0.000 OA
BRANCH  23  25
ATOM     24  C   UNL     1      33.287   8.719  16.115  0.00  0.00    +0.000 C 
ATOM     25  C   UNL     1      33.719   8.617  14.682  0.00  0.00    +0.000 C 
ENDBRANCH  23  25
ENDBRANCH  17  23
ENDBRANCH  16  22
ENDBRANCH   1  16
BRANCH   2  26
ATOM     26  S   UNL     1      38.915   5.592  15.021  0.00  0.00    +0.000 S 
BRANCH  26  27
ATOM     27  C   UNL     1      39.648   5.848  16.598  0.00  0.00    +0.000 A 
ATOM     28  C   UNL     1      38.859   5.588  17.737  0.00  0.00    +0.000 A 
ATOM     29  C   UNL     1      39.309   5.748  19.012  0.00  0.00    +0.000 A 
ATOM     30  C   UNL     1      40.617   6.191  19.194  0.00  0.00    +0.000 A 
ATOM     31  C   UNL     1      41.417   6.454  18.098  0.00  0.00    +0.000 A 
ATOM     32  C   UNL     1      40.910   6.275  16.862  0.00  0.00    +0.000 A 
ENDBRANCH  26  27
ENDBRANCH   2  26
TORSDOF 7
ENDMDL
MODEL 2
REMARK VINA RESULT:      -8.0      1.615      6.384
REMARK  Name = 
REMARK  7 active torsions:
REMARK  status: ('A' for Active; 'I' for Inactive)
REMARK    1  A    between atoms: C_2  and  O_3
REMARK    2  A    between atoms: O_3  and  C_4
REMARK    3  A    between atoms: C_9  and  N_10
REMARK    4  A    between atoms: N_10  and  C_11
REMARK    5  A    between atoms: C_12  and  S_13
REMARK    6  A    between atoms: S_13  and  C_14
REMARK    7  A    between atoms: N_22  and  C_23
REMARK                            x       y       z     vdW  Elec       q    Type
REMARK                         _______ _______ _______ _____ _____    ______ ____
ROOT
ATOM      1  C   UNL     1      36.791   3.931  15.941  0.00  0.00    +0.000 C 
ATOM      2  C   UNL     1      37.739   4.875  15.903  0.00  0.00    +0.000 C 
ATOM      3  C   UNL     1      37.435   5.695  14.749  0.00  0.00    +0.000 C 
ATOM      4  O   UNL     1      38.074   6.690  14.351  0.00  0.00    +0.000 OA
ATOM      5  N   UNL     1      36.251   5.216  14.069  0.00  0.00    +0.000 N 
ATOM      6  C   UNL     1      35.858   4.098  14.840  0.00  0.00    +0.000 C 
ATOM      7  O   UNL     1      34.846   3.362  14.597  0.00  0.00    +0.000 OA
ENDROOT
BRANCH   5   8
ATOM      8  C   UNL     1      35.656   5.775  12.898  0.00  0.00    +0.000 A 
ATOM      9  C   UNL     1      36.206   5.495  11.662  0.00  0.00    +0.000 A 
ATOM     10  C   UNL     1      35.667   6.011  10.504  0.00  0.00    +0.000 A 
ATOM     11  C   UNL     1      36.297   5.679   9.218  0.00  0.00    +0.000 C 
ATOM     12  C   UNL     1      34.557   6.825  10.563  0.00  0.00    +0.000 A 
ATOM     13  C   UNL     1      34.020   7.092  11.822  0.00  0.00    +0.000 A 
ATOM     14  C   UNL     1      34.546   6.586  12.976  0.00  0.00    +0.000 A 
ATOM     15  C   UNL     1      33.996   6.853  14.324  0.00  0.00    +0.000 C 
ENDBRANCH   5   8
BRANCH   1  16
ATOM     16  N   UNL     1      36.733   2.916  16.941  0.00  0.00    +0.000 NA
BRANCH  16  22
ATOM     17  C   UNL     1      37.088   0.801  15.800  0.00  0.00    +0.000 A 
ATOM     18  C   UNL     1      36.727  -0.486  15.468  0.00  0.00    +0.000 A 
ATOM     19  C   UNL     1      35.560  -1.033  15.959  0.00  0.00    +0.000 A 
ATOM     20  C   UNL     1      34.783  -0.234  16.791  0.00  0.00    +0.000 A 
ATOM     21  C   UNL     1      35.143   1.055  17.125  0.00  0.00    +0.000 A 
ATOM     22  C   UNL     1      36.312   1.585  16.625  0.00  0.00    +0.000 A 
BRANCH  17  23
ATOM     23  O   UNL     1      38.271   1.293  15.275  0.00  0.00    +0.000 OA
BRANCH  23  25
ATOM     24  C   UNL     1      39.091   2.583  13.395  0.00  0.00    +0.000 C 
ATOM     25  C   UNL     1      38.561   1.277  13.909  0.00  0.00    +0.000 C 
ENDBRANCH  23  25
ENDBRANCH  17  23
ENDBRANCH  16  22
ENDBRANCH   1  16
BRANCH   2  26
ATOM     26  S   UNL     1      39.023   4.943  17.115  0.00  0.00    +0.000 S 
BRANCH  26  27
ATOM     27  C   UNL     1      38.814   6.248  18.274  0.00  0.00    +0.000 A 
ATOM     28  C   UNL     1      39.672   6.277  19.392  0.00  0.00    +0.000 A 
ATOM     29  C   UNL     1      39.611   7.233  20.360  0.00  0.00    +0.000 A 
ATOM     30  C   UNL     1      38.648   8.231  20.233  0.00  0.00    +0.000 A 
ATOM     31  C   UNL     1      37.791   8.233  19.149  0.00  0.00    +0.000 A 
ATOM     32  C   UNL     1      37.905   7.258  18.226  0.00  0.00    +0.000 A 
ENDBRANCH  26  27
ENDBRANCH   2  26
TORSDOF 7
ENDMDL
MODEL 3
REMARK VINA RESULT:      -7.9      1.567      5.699
REMARK  Name = 
REMARK  7 active torsions:
REMARK  status: ('A' for Active; 'I' for Inactive)
REMARK    1  A    between atoms: C_2  and  O_3
REMARK    2  A    between atoms: O_3  and  C_4
REMARK    3  A    between atoms: C_9  and  N_10
REMARK    4  A    between atoms: N_10  and  C_11
REMARK    5  A    between atoms: C_12  and  S_13
REMARK    6  A    between atoms: S_13  and  C_14
REMARK    7  A    between atoms: N_22  and  C_23
REMARK                            x       y       z     vdW  Elec       q    Type
REMARK                         _______ _______ _______ _____ _____    ______ ____
ROOT
ATOM      1  C   UNL     1      36.437   4.907  14.671  0.00  0.00    +0.000 C 
ATOM      2  C   UNL     1      36.914   3.660  14.759  0.00  0.00    +0.000 C 
ATOM      3  C   UNL     1      38.188   3.770  15.440  0.00  0.00    +0.000 C 
ATOM      4  O   UNL     1      38.965   2.836  15.726  0.00  0.00    +0.000 OA
ATOM      5  N   UNL     1      38.481   5.147  15.772  0.00  0.00    +0.000 N 
ATOM      6  C   UNL     1      37.360   5.852  15.277  0.00  0.00    +0.000 C 
ATOM      7  O   UNL     1      37.197   7.114  15.355  0.00  0.00    +0.000 OA
ENDROOT
BRANCH   5   8
ATOM      8  C   UNL     1      39.644   5.632  16.445  0.00  0.00    +0.000 A 
ATOM      9  C   UNL     1      39.623   5.762  17.820  0.00  0.00    +0.000 A 
ATOM     10  C   UNL     1      40.721   6.226  18.512  0.00  0.00    +0.000 A 
ATOM     11  C   UNL     1      40.639   6.345  19.975  0.00  0.00    +0.000 C 
ATOM     12  C   UNL     1      41.870   6.570  17.832  0.00  0.00    +0.000 A 
ATOM     13  C   UNL     1      41.865   6.428  16.446  0.00  0.00    +0.000 A 
ATOM     14  C   UNL     1      40.783   5.970  15.749  0.00  0.00    +0.000 A 
ATOM     15  C   UNL     1      40.752   5.811  14.278  0.00  0.00    +0.000 C 
ENDBRANCH   5   8
BRANCH   1  16
ATOM     16  N   UNL     1      35.189   5.230  14.062  0.00  0.00    +0.000 NA
BRANCH  16  22
ATOM     17  C   UNL     1      34.205   6.951  12.658  0.00  0.00    +0.000 A 
ATOM     18  C   UNL     1      34.110   7.668  11.486  0.00  0.00    +0.000 A 
ATOM     19  C   UNL     1      34.951   7.392  10.428  0.00  0.00    +0.000 A 
ATOM     20  C   UNL     1      35.881   6.373  10.603  0.00  0.00    +0.000 A 
ATOM     21  C   UNL     1      35.978   5.655  11.777  0.00  0.00    +0.000 A 
ATOM     22  C   UNL     1      35.130   5.944  12.822  0.00  0.00    +0.000 A 
BRANCH  17  23
ATOM     23  O   UNL     1      33.333   7.276  13.683  0.00  0.00    +0.000 OA
BRANCH  23  25
ATOM     24  C   UNL     1      34.086   9.446  14.453  0.00  0.00    +0.000 C 
ATOM     25  C   UNL     1      33.713   8.033  14.794  0.00  0.00    +0.000 C 
ENDBRANCH  23  25
ENDBRANCH  17  23
ENDBRANCH  16  22
ENDBRANCH   1  16
BRANCH   2  26
ATOM     26  S   UNL     1      36.017   2.281  14.114  0.00  0.00    +0.000 S 
BRANCH  26  27
ATOM     27  C   UNL     1      35.731   1.020  15.305  0.00  0.00    +0.000 A 
ATOM     28  C   UNL     1      36.266  -0.258  15.049  0.00  0.00    +0.000 A 
ATOM     29  C   UNL     1      36.113  -1.317  15.891  0.00  0.00    +0.000 A 
ATOM     30  C   UNL     1      35.391  -1.120  17.065  0.00  0.00    +0.000 A 
ATOM     31  C   UNL     1      34.854   0.121  17.348  0.00  0.00    +0.000 A 
ATOM     32  C   UNL     1      35.042   1.128  16.472  0.00  0.00    +0.000 A 
ENDBRANCH  26  27
ENDBRANCH   2  26
TORSDOF 7
ENDMDL
MODEL 4
REMARK VINA RESULT:      -7.9      4.767      8.318
REMARK  Name = 
REMARK  7 active torsions:
REMARK  status: ('A' for Active; 'I' for Inactive)
REMARK    1  A    between atoms: C_2  and  O_3
REMARK    2  A    between atoms: O_3  and  C_4
REMARK    3  A    between atoms: C_9  and  N_10
REMARK    4  A    between atoms: N_10  and  C_11
REMARK    5  A    between atoms: C_12  and  S_13
REMARK    6  A    between atoms: S_13  and  C_14
REMARK    7  A    between atoms: N_22  and  C_23
REMARK                            x       y       z     vdW  Elec       q    Type
REMARK                         _______ _______ _______ _____ _____    ______ ____
ROOT
ATOM      1  C   UNL     1      38.795  -2.158  14.774  0.00  0.00    +0.000 C 
ATOM      2  C   UNL     1      38.738  -1.097  13.960  0.00  0.00    +0.000 C 
ATOM      3  C   UNL     1      40.108  -0.801  13.599  0.00  0.00    +0.000 C 
ATOM      4  O   UNL     1      40.501   0.118  12.851  0.00  0.00    +0.000 OA
ATOM      5  N   UNL     1      41.023  -1.730  14.226  0.00  0.00    +0.000 N 
ATOM      6  C   UNL     1      40.172  -2.581  14.967  0.00  0.00    +0.000 C 
ATOM      7  O   UNL     1      40.561  -3.560  15.685  0.00  0.00    +0.000 OA
ENDROOT
BRANCH   5   8
ATOM      8  C   UNL     1      42.445  -1.743  14.097  0.00  0.00    +0.000 A 
ATOM      9  C   UNL     1      43.207  -0.972  14.953  0.00  0.00    +0.000 A 
ATOM     10  C   UNL     1      44.583  -0.953  14.867  0.00  0.00    +0.000 A 
ATOM     11  C   UNL     1      45.341  -0.112  15.804  0.00  0.00    +0.000 C 
ATOM     12  C   UNL     1      45.224  -1.713  13.913  0.00  0.00    +0.000 A 
ATOM     13  C   UNL     1      44.432  -2.483  13.063  0.00  0.00    +0.000 A 
ATOM     14  C   UNL     1      43.069  -2.510  13.138  0.00  0.00    +0.000 A 
ATOM     15  C   UNL     1      42.206  -3.317  12.249  0.00  0.00    +0.000 C 
ENDBRANCH   5   8
BRANCH   1  16
ATOM     16  N   UNL     1      37.643  -2.767  15.354  0.00  0.00    +0.000 NA
BRANCH  16  22
ATOM     17  C   UNL     1      35.504  -2.151  16.326  0.00  0.00    +0.000 A 
ATOM     18  C   UNL     1      34.725  -1.527  17.275  0.00  0.00    +0.000 A 
ATOM     19  C   UNL     1      35.310  -0.821  18.305  0.00  0.00    +0.000 A 
ATOM     20  C   UNL     1      36.700  -0.774  18.335  0.00  0.00    +0.000 A 
ATOM     21  C   UNL     1      37.481  -1.399  17.386  0.00  0.00    +0.000 A 
ATOM     22  C   UNL     1      36.879  -2.099  16.364  0.00  0.00    +0.000 A 
BRANCH  17  23
ATOM     23  O   UNL     1      34.856  -2.844  15.316  0.00  0.00    +0.000 OA
BRANCH  23  25
ATOM     24  C   UNL     1      33.725  -4.770  14.378  0.00  0.00    +0.000 C 
ATOM     25  C   UNL     1      33.952  -3.880  15.564  0.00  0.00    +0.000 C 
ENDBRANCH  23  25
ENDBRANCH  17  23
ENDBRANCH  16  22
ENDBRANCH   1  16
BRANCH   2  26
ATOM     26  S   UNL     1      37.197  -0.348  13.528  0.00  0.00    +0.000 S 
BRANCH  26  27
ATOM     27  C   UNL     1      36.755   0.988  14.581  0.00  0.00    +0.000 A 
ATOM     28  C   UNL     1      37.773   1.884  14.966  0.00  0.00    +0.000 A 
ATOM     29  C   UNL     1      37.560   2.956  15.778  0.00  0.00    +0.000 A 
ATOM     30  C   UNL     1      36.267   3.173  16.250  0.00  0.00    +0.000 A 
ATOM     31  C   UNL     1      35.246   2.314  15.891  0.00  0.00    +0.000 A 
ATOM     32  C   UNL     1      35.524   1.271  15.083  0.00  0.00    +0.000 A 
ENDBRANCH  26  27
ENDBRANCH   2  26
TORSDOF 7
ENDMDL
MODEL 5
REMARK VINA RESULT:      -7.8      1.901      7.698
REMARK  Name = 
REMARK  7 active torsions:
REMARK  status: ('A' for Active; 'I' for Inactive)
REMARK    1  A    between atoms: C_2  and  O_3
REMARK    2  A    between atoms: O_3  and  C_4
REMARK    3  A    between atoms: C_9  and  N_10
REMARK    4  A    between atoms: N_10  and  C_11
REMARK    5  A    between atoms: C_12  and  S_13
REMARK    6  A    between atoms: S_13  and  C_14
REMARK    7  A    between atoms: N_22  and  C_23
REMARK                            x       y       z     vdW  Elec       q    Type
REMARK                         _______ _______ _______ _____ _____    ______ ____
ROOT
ATOM      1  C   UNL     1      37.003   4.161  14.750  0.00  0.00    +0.000 C 
ATOM      2  C   UNL     1      36.584   5.432  14.728  0.00  0.00    +0.000 C 
ATOM      3  C   UNL     1      37.655   6.211  15.312  0.00  0.00    +0.000 C 
ATOM      4  O   UNL     1      37.672   7.448  15.482  0.00  0.00    +0.000 OA
ATOM      5  N   UNL     1      38.763   5.364  15.698  0.00  0.00    +0.000 N 
ATOM      6  C   UNL     1      38.330   4.069  15.333  0.00  0.00    +0.000 C 
ATOM      7  O   UNL     1      39.004   2.999  15.497  0.00  0.00    +0.000 OA
ENDROOT
BRANCH   5   8
ATOM      8  C   UNL     1      39.987   5.784  16.302  0.00  0.00    +0.000 A 
ATOM      9  C   UNL     1      41.068   6.086  15.497  0.00  0.00    +0.000 A 
ATOM     10  C   UNL     1      42.269   6.496  16.034  0.00  0.00    +0.000 A 
ATOM     11  C   UNL     1      43.385   6.801  15.128  0.00  0.00    +0.000 C 
ATOM     12  C   UNL     1      42.409   6.612  17.400  0.00  0.00    +0.000 A 
ATOM     13  C   UNL     1      41.303   6.303  18.190  0.00  0.00    +0.000 A 
ATOM     14  C   UNL     1      40.108   5.896  17.669  0.00  0.00    +0.000 A 
ATOM     15  C   UNL     1      38.920   5.562  18.485  0.00  0.00    +0.000 C 
ENDBRANCH   5   8
BRANCH   1  16
ATOM     16  N   UNL     1      36.228   3.070  14.257  0.00  0.00    +0.000 NA
BRANCH  16  22
ATOM     17  C   UNL     1      36.246   0.701  14.793  0.00  0.00    +0.000 A 
ATOM     18  C   UNL     1      35.910  -0.379  15.580  0.00  0.00    +0.000 A 
ATOM     19  C   UNL     1      35.156  -0.203  16.722  0.00  0.00    +0.000 A 
ATOM     20  C   UNL     1      34.762   1.094  17.031  0.00  0.00    +0.000 A 
ATOM     21  C   UNL     1      35.098   2.176  16.244  0.00  0.00    +0.000 A 
ATOM     22  C   UNL     1      35.851   1.982  15.107  0.00  0.00    +0.000 A 
BRANCH  17  23
ATOM     23  O   UNL     1      37.004   0.459  13.660  0.00  0.00    +0.000 OA
BRANCH  23  25
ATOM     24  C   UNL     1      38.515  -1.196  12.737  0.00  0.00    +0.000 C 
ATOM     25  C   UNL     1      38.295  -0.073  13.708  0.00  0.00    +0.000 C 
ENDBRANCH  23  25
ENDBRANCH  17  23
ENDBRANCH  16  22
ENDBRANCH   1  16
BRANCH   2  26
ATOM     26  S   UNL     1      35.003   5.872  14.073  0.00  0.00    +0.000 S 
BRANCH  26  27
ATOM     27  C   UNL     1      35.043   6.239  12.354  0.00  0.00    +0.000 A 
ATOM     28  C   UNL     1      34.031   7.073  11.838  0.00  0.00    +0.000 A 
ATOM     29  C   UNL     1      33.950   7.429  10.526  0.00  0.00    +0.000 A 
ATOM     30  C   UNL     1      34.921   6.941   9.655  0.00  0.00    +0.000 A 
ATOM     31  C   UNL     1      35.927   6.122  10.128  0.00  0.00    +0.000 A 
ATOM     32  C   UNL     1      35.950   5.807  11.439  0.00  0.00    +0.000 A 
ENDBRANCH  26  27
ENDBRANCH   2  26
TORSDOF 7
ENDMDL
MODEL 6
REMARK VINA RESULT:      -7.8      1.883      7.250
REMARK  Name = 
REMARK  7 active torsions:
REMARK  status: ('A' for Active; 'I' for Inactive)
REMARK    1  A    between atoms: C_2  and  O_3
REMARK    2  A    between atoms: O_3  and  C_4
REMARK    3  A    between atoms: C_9  and  N_10
REMARK    4  A    between atoms: N_10  and  C_11
REMARK    5  A    between atoms: C_12  and  S_13
REMARK    6  A    between atoms: S_13  and  C_14
REMARK    7  A    between atoms: N_22  and  C_23
REMARK                            x       y       z     vdW  Elec       q    Type
REMARK                         _______ _______ _______ _____ _____    ______ ____
ROOT
ATOM      1  C   UNL     1      36.973   4.105  14.772  0.00  0.00    +0.000 C 
ATOM      2  C   UNL     1      36.579   5.377  14.645  0.00  0.00    +0.000 C 
ATOM      3  C   UNL     1      37.599   6.174  15.295  0.00  0.00    +0.000 C 
ATOM      4  O   UNL     1      37.619   7.417  15.404  0.00  0.00    +0.000 OA
ATOM      5  N   UNL     1      38.648   5.335  15.832  0.00  0.00    +0.000 N 
ATOM      6  C   UNL     1      38.233   4.028  15.491  0.00  0.00    +0.000 C 
ATOM      7  O   UNL     1      38.870   2.961  15.774  0.00  0.00    +0.000 OA
ENDROOT
BRANCH   5   8
ATOM      8  C   UNL     1      39.812   5.772  16.536  0.00  0.00    +0.000 A 
ATOM      9  C   UNL     1      39.761   5.902  17.910  0.00  0.00    +0.000 A 
ATOM     10  C   UNL     1      40.858   6.320  18.631  0.00  0.00    +0.000 A 
ATOM     11  C   UNL     1      40.743   6.442  20.091  0.00  0.00    +0.000 C 
ATOM     12  C   UNL     1      42.037   6.617  17.982  0.00  0.00    +0.000 A 
ATOM     13  C   UNL     1      42.063   6.477  16.596  0.00  0.00    +0.000 A 
ATOM     14  C   UNL     1      40.983   6.064  15.871  0.00  0.00    +0.000 A 
ATOM     15  C   UNL     1      40.983   5.906  14.399  0.00  0.00    +0.000 C 
ENDBRANCH   5   8
BRANCH   1  16
ATOM     16  N   UNL     1      36.234   2.999  14.258  0.00  0.00    +0.000 NA
BRANCH  16  22
ATOM     17  C   UNL     1      36.326   0.640  14.830  0.00  0.00    +0.000 A 
ATOM     18  C   UNL     1      35.988  -0.444  15.610  0.00  0.00    +0.000 A 
ATOM     19  C   UNL     1      35.154  -0.291  16.697  0.00  0.00    +0.000 A 
ATOM     20  C   UNL     1      34.681   0.991  16.960  0.00  0.00    +0.000 A 
ATOM     21  C   UNL     1      35.018   2.077  16.180  0.00  0.00    +0.000 A 
ATOM     22  C   UNL     1      35.852   1.905  15.098  0.00  0.00    +0.000 A 
BRANCH  17  23
ATOM     23  O   UNL     1      37.167   0.420  13.752  0.00  0.00    +0.000 OA
BRANCH  23  25
ATOM     24  C   UNL     1      39.447  -0.164  14.325  0.00  0.00    +0.000 C 
ATOM     25  C   UNL     1      38.134  -0.587  13.736  0.00  0.00    +0.000 C 
ENDBRANCH  23  25
ENDBRANCH  17  23
ENDBRANCH  16  22
ENDBRANCH   1  16
BRANCH   2  26
ATOM     26  S   UNL     1      35.080   5.801  13.812  0.00  0.00    +0.000 S 
BRANCH  26  27
ATOM     27  C   UNL     1      34.785   7.533  13.752  0.00  0.00    +0.000 A 
ATOM     28  C   UNL     1      34.117   8.123  14.843  0.00  0.00    +0.000 A 
ATOM     29  C   UNL     1      33.828   9.452  14.916  0.00  0.00    +0.000 A 
ATOM     30  C   UNL     1      34.216  10.265  13.854  0.00  0.00    +0.000 A 
ATOM     31  C   UNL     1      34.874   9.718  12.768  0.00  0.00    +0.000 A 
ATOM     32  C   UNL     1      35.130   8.395  12.759  0.00  0.00    +0.000 A 
ENDBRANCH  26  27
ENDBRANCH   2  26
TORSDOF 7
ENDMDL
MODEL 7
REMARK VINA RESULT:      -7.8      2.830      8.099
REMARK  Name = 
REMARK  7 active torsions:
REMARK  status: ('A' for Active; 'I' for Inactive)
REMARK    1  A    between atoms: C_2  and  O_3
REMARK    2  A    between atoms: O_3  and  C_4
REMARK    3  A    between atoms: C_9  and  N_10
REMARK    4  A    between atoms: N_10  and  C_11
REMARK    5  A    between atoms: C_12  and  S_13
REMARK    6  A    between atoms: S_13  and  C_14
REMARK    7  A    between atoms: N_22  and  C_23
REMARK                            x       y       z     vdW  Elec       q    Type
REMARK                         _______ _______ _______ _____ _____    ______ ____
ROOT
ATOM      1  C   UNL     1      36.014   0.648  15.232  0.00  0.00    +0.000 C 
ATOM      2  C   UNL     1      36.840   0.627  14.180  0.00  0.00    +0.000 C 
ATOM      3  C   UNL     1      37.046   2.012  13.810  0.00  0.00    +0.000 C 
ATOM      4  O   UNL     1      37.753   2.438  12.874  0.00  0.00    +0.000 OA
ATOM      5  N   UNL     1      36.308   2.897  14.684  0.00  0.00    +0.000 N 
ATOM      6  C   UNL     1      35.660   2.014  15.578  0.00  0.00    +0.000 C 
ATOM      7  O   UNL     1      34.892   2.371  16.530  0.00  0.00    +0.000 OA
ENDROOT
BRANCH   5   8
ATOM      8  C   UNL     1      36.272   4.323  14.619  0.00  0.00    +0.000 A 
ATOM      9  C   UNL     1      35.195   4.945  14.018  0.00  0.00    +0.000 A 
ATOM     10  C   UNL     1      35.117   6.318  13.932  0.00  0.00    +0.000 A 
ATOM     11  C   UNL     1      33.947   6.923  13.280  0.00  0.00    +0.000 C 
ATOM     12  C   UNL     1      36.126   7.100  14.452  0.00  0.00    +0.000 A 
ATOM     13  C   UNL     1      37.201   6.448  15.054  0.00  0.00    +0.000 A 
ATOM     14  C   UNL     1      37.290   5.089  15.145  0.00  0.00    +0.000 A 
ATOM     15  C   UNL     1      38.419   4.372  15.778  0.00  0.00    +0.000 C 
ENDBRANCH   5   8
BRANCH   1  16
ATOM     16  N   UNL     1      35.564  -0.528  15.901  0.00  0.00    +0.000 NA
BRANCH  16  22
ATOM     17  C   UNL     1      36.744  -2.315  17.048  0.00  0.00    +0.000 A 
ATOM     18  C   UNL     1      37.407  -2.845  18.134  0.00  0.00    +0.000 A 
ATOM     19  C   UNL     1      37.590  -2.093  19.275  0.00  0.00    +0.000 A 
ATOM     20  C   UNL     1      37.081  -0.798  19.274  0.00  0.00    +0.000 A 
ATOM     21  C   UNL     1      36.418  -0.267  18.188  0.00  0.00    +0.000 A 
ATOM     22  C   UNL     1      36.244  -1.032  17.056  0.00  0.00    +0.000 A 
BRANCH  17  23
ATOM     23  O   UNL     1      36.592  -3.120  15.932  0.00  0.00    +0.000 OA
BRANCH  23  25
ATOM     24  C   UNL     1      34.489  -3.901  15.016  0.00  0.00    +0.000 C 
ATOM     25  C   UNL     1      35.685  -4.181  15.878  0.00  0.00    +0.000 C 
ENDBRANCH  23  25
ENDBRANCH  17  23
ENDBRANCH  16  22
ENDBRANCH   1  16
BRANCH   2  26
ATOM     26  S   UNL     1      37.454  -0.893  13.519  0.00  0.00    +0.000 S 
BRANCH  26  27
ATOM     27  C   UNL     1      39.132  -1.205  13.940  0.00  0.00    +0.000 A 
ATOM     28  C   UNL     1      40.068  -0.175  13.715  0.00  0.00    +0.000 A 
ATOM     29  C   UNL     1      41.395  -0.293  13.997  0.00  0.00    +0.000 A 
ATOM     30  C   UNL     1      41.844  -1.496  14.537  0.00  0.00    +0.000 A 
ATOM     31  C   UNL     1      40.953  -2.526  14.771  0.00  0.00    +0.000 A 
ATOM     32  C   UNL     1      39.652  -2.344  14.469  0.00  0.00    +0.000 A 
ENDBRANCH  26  27
ENDBRANCH   2  26
TORSDOF 7
ENDMDL
MODEL 8
REMARK VINA RESULT:      -7.7      4.359      8.258
REMARK  Name = 
REMARK  7 active torsions:
REMARK  status: ('A' for Active; 'I' for Inactive)
REMARK    1  A    between atoms: C_2  and  O_3
REMARK    2  A    between atoms: O_3  and  C_4
REMARK    3  A    between atoms: C_9  and  N_10
REMARK    4  A    between atoms: N_10  and  C_11
REMARK    5  A    between atoms: C_12  and  S_13
REMARK    6  A    between atoms: S_13  and  C_14
REMARK    7  A    between atoms: N_22  and  C_23
REMARK                            x       y       z     vdW  Elec       q    Type
REMARK                         _______ _______ _______ _____ _____    ______ ____
ROOT
ATOM      1  C   UNL     1      37.826  -1.227  14.917  0.00  0.00    +0.000 C 
ATOM      2  C   UNL     1      38.099  -2.240  15.748  0.00  0.00    +0.000 C 
ATOM      3  C   UNL     1      39.483  -2.589  15.506  0.00  0.00    +0.000 C 
ATOM      4  O   UNL     1      40.137  -3.488  16.074  0.00  0.00    +0.000 OA
ATOM      5  N   UNL     1      40.060  -1.744  14.483  0.00  0.00    +0.000 N 
ATOM      6  C   UNL     1      38.994  -0.888  14.123  0.00  0.00    +0.000 C 
ATOM      7  O   UNL     1      39.060   0.030  13.241  0.00  0.00    +0.000 OA
ENDROOT
BRANCH   5   8
ATOM      8  C   UNL     1      41.398  -1.799  13.987  0.00  0.00    +0.000 A 
ATOM      9  C   UNL     1      42.398  -1.134  14.669  0.00  0.00    +0.000 A 
ATOM     10  C   UNL     1      43.704  -1.158  14.228  0.00  0.00    +0.000 A 
ATOM     11  C   UNL     1      44.725  -0.430  14.995  0.00  0.00    +0.000 C 
ATOM     12  C   UNL     1      44.033  -1.857  13.087  0.00  0.00    +0.000 A 
ATOM     13  C   UNL     1      43.006  -2.520  12.418  0.00  0.00    +0.000 A 
ATOM     14  C   UNL     1      41.709  -2.503  12.845  0.00  0.00    +0.000 A 
ATOM     15  C   UNL     1      40.601  -3.198  12.154  0.00  0.00    +0.000 C 
ENDBRANCH   5   8
BRANCH   1  16
ATOM     16  N   UNL     1      36.552  -0.590  14.848  0.00  0.00    +0.000 NA
BRANCH  16  22
ATOM     17  C   UNL     1      36.456   1.412  16.221  0.00  0.00    +0.000 A 
ATOM     18  C   UNL     1      36.340   2.774  16.393  0.00  0.00    +0.000 A 
ATOM     19  C   UNL     1      36.186   3.606  15.304  0.00  0.00    +0.000 A 
ATOM     20  C   UNL     1      36.156   3.009  14.047  0.00  0.00    +0.000 A 
ATOM     21  C   UNL     1      36.273   1.646  13.873  0.00  0.00    +0.000 A 
ATOM     22  C   UNL     1      36.426   0.831  14.973  0.00  0.00    +0.000 A 
BRANCH  17  23
ATOM     23  O   UNL     1      36.608   0.631  17.354  0.00  0.00    +0.000 OA
BRANCH  23  25
ATOM     24  C   UNL     1      35.961  -0.504  19.395  0.00  0.00    +0.000 C 
ATOM     25  C   UNL     1      35.570   0.394  18.259  0.00  0.00    +0.000 C 
ENDBRANCH  23  25
ENDBRANCH  17  23
ENDBRANCH  16  22
ENDBRANCH   1  16
BRANCH   2  26
ATOM     26  S   UNL     1      36.878  -2.884  16.851  0.00  0.00    +0.000 S 
BRANCH  26  27
ATOM     27  C   UNL     1      35.697  -3.914  16.055  0.00  0.00    +0.000 A 
ATOM     28  C   UNL     1      35.866  -5.309  16.160  0.00  0.00    +0.000 A 
ATOM     29  C   UNL     1      35.022  -6.212  15.588  0.00  0.00    +0.000 A 
ATOM     30  C   UNL     1      33.937  -5.724  14.863  0.00  0.00    +0.000 A 
ATOM     31  C   UNL     1      33.741  -4.362  14.741  0.00  0.00    +0.000 A 
ATOM     32  C   UNL     1      34.614  -3.522  15.332  0.00  0.00    +0.000 A 
ENDBRANCH  26  27
ENDBRANCH   2  26
TORSDOF 7
ENDMDL
MODEL 9
REMARK VINA RESULT:      -7.7      2.220      5.711
REMARK  Name = 
REMARK  7 active torsions:
REMARK  status: ('A' for Active; 'I' for Inactive)
REMARK    1  A    between atoms: C_2  and  O_3
REMARK    2  A    between atoms: O_3  and  C_4
REMARK    3  A    between atoms: C_9  and  N_10
REMARK    4  A    between atoms: N_10  and  C_11
REMARK    5  A    between atoms: C_12  and  S_13
REMARK    6  A    between atoms: S_13  and  C_14
REMARK    7  A    between atoms: N_22  and  C_23
REMARK                            x       y       z     vdW  Elec       q    Type
REMARK                         _______ _______ _______ _____ _____    ______ ____
ROOT
ATOM      1  C   UNL     1      38.082   5.760  16.367  0.00  0.00    +0.000 C 
ATOM      2  C   UNL     1      37.522   5.919  15.162  0.00  0.00    +0.000 C 
ATOM      3  C   UNL     1      37.084   4.601  14.752  0.00  0.00    +0.000 C 
ATOM      4  O   UNL     1      36.509   4.303  13.685  0.00  0.00    +0.000 OA
ATOM      5  N   UNL     1      37.399   3.612  15.760  0.00  0.00    +0.000 N 
ATOM      6  C   UNL     1      38.031   4.366  16.775  0.00  0.00    +0.000 C 
ATOM      7  O   UNL     1      38.480   3.889  17.869  0.00  0.00    +0.000 OA
ENDROOT
BRANCH   5   8
ATOM      8  C   UNL     1      37.117   2.214  15.700  0.00  0.00    +0.000 A 
ATOM      9  C   UNL     1      36.015   1.718  16.368  0.00  0.00    +0.000 A 
ATOM     10  C   UNL     1      35.703   0.376  16.338  0.00  0.00    +0.000 A 
ATOM     11  C   UNL     1      34.518  -0.094  17.071  0.00  0.00    +0.000 C 
ATOM     12  C   UNL     1      36.497  -0.501  15.631  0.00  0.00    +0.000 A 
ATOM     13  C   UNL     1      37.603   0.024  14.964  0.00  0.00    +0.000 A 
ATOM     14  C   UNL     1      37.922   1.352  14.987  0.00  0.00    +0.000 A 
ATOM     15  C   UNL     1      39.088   1.935  14.289  0.00  0.00    +0.000 C 
ENDBRANCH   5   8
BRANCH   1  16
ATOM     16  N   UNL     1      38.641   6.833  17.121  0.00  0.00    +0.000 NA
BRANCH  16  22
ATOM     17  C   UNL     1      40.178   6.808  19.003  0.00  0.00    +0.000 A 
ATOM     18  C   UNL     1      41.439   6.740  19.552  0.00  0.00    +0.000 A 
ATOM     19  C   UNL     1      42.549   6.621  18.742  0.00  0.00    +0.000 A 
ATOM     20  C   UNL     1      42.332   6.574  17.369  0.00  0.00    +0.000 A 
ATOM     21  C   UNL     1      41.070   6.642  16.817  0.00  0.00    +0.000 A 
ATOM     22  C   UNL     1      39.973   6.760  17.642  0.00  0.00    +0.000 A 
BRANCH  17  23
ATOM     23  O   UNL     1      39.104   6.927  19.869  0.00  0.00    +0.000 OA
BRANCH  23  25
ATOM     24  C   UNL     1      37.668   8.840  20.256  0.00  0.00    +0.000 C 
ATOM     25  C   UNL     1      38.885   8.060  20.657  0.00  0.00    +0.000 C 
ENDBRANCH  23  25
ENDBRANCH  17  23
ENDBRANCH  16  22
ENDBRANCH   1  16
BRANCH   2  26
ATOM     26  S   UNL     1      37.426   7.506  14.391  0.00  0.00    +0.000 S 
BRANCH  26  27
ATOM     27  C   UNL     1      36.119   8.502  15.013  0.00  0.00    +0.000 A 
ATOM     28  C   UNL     1      34.800   8.147  14.666  0.00  0.00    +0.000 A 
ATOM     29  C   UNL     1      33.703   8.837  15.082  0.00  0.00    +0.000 A 
ATOM     30  C   UNL     1      33.901   9.952  15.893  0.00  0.00    +0.000 A 
ATOM     31  C   UNL     1      35.181  10.328  16.253  0.00  0.00    +0.000 A 
ATOM     32  C   UNL     1      36.224   9.600  15.807  0.00  0.00    +0.000 A 
ENDBRANCH  26  27
ENDBRANCH   2  26
TORSDOF 7
ENDMDL
MODEL 10
REMARK VINA RESULT:      -7.7      1.721      3.087
REMARK  Name = 
REMARK  7 active torsions:
REMARK  status: ('A' for Active; 'I' for Inactive)
REMARK    1  A    between atoms: C_2  and  O_3
REMARK    2  A    between atoms: O_3  and  C_4
REMARK    3  A    between atoms: C_9  and  N_10
REMARK    4  A    between atoms: N_10  and  C_11
REMARK    5  A    between atoms: C_12  and  S_13
REMARK    6  A    between atoms: S_13  and  C_14
REMARK    7  A    between atoms: N_22  and  C_23
REMARK                            x       y       z     vdW  Elec       q    Type
REMARK                         _______ _______ _______ _____ _____    ______ ____
ROOT
ATOM      1  C   UNL     1      37.332   4.940  14.425  0.00  0.00    +0.000 C 
ATOM      2  C   UNL     1      37.697   5.091  15.704  0.00  0.00    +0.000 C 
ATOM      3  C   UNL     1      37.617   3.772  16.297  0.00  0.00    +0.000 C 
ATOM      4  O   UNL     1      37.875   3.468  17.479  0.00  0.00    +0.000 OA
ATOM      5  N   UNL     1      37.186   2.792  15.325  0.00  0.00    +0.000 N 
ATOM      6  C   UNL     1      37.010   3.551  14.145  0.00  0.00    +0.000 C 
ATOM      7  O   UNL     1      36.630   3.082  13.023  0.00  0.00    +0.000 OA
ENDROOT
BRANCH   5   8
ATOM      8  C   UNL     1      36.996   1.394  15.551  0.00  0.00    +0.000 A 
ATOM      9  C   UNL     1      38.012   0.515  15.232  0.00  0.00    +0.000 A 
ATOM     10  C   UNL     1      37.875  -0.842  15.433  0.00  0.00    +0.000 A 
ATOM     11  C   UNL     1      38.990  -1.729  15.073  0.00  0.00    +0.000 C 
ATOM     12  C   UNL     1      36.706  -1.346  15.962  0.00  0.00    +0.000 A 
ATOM     13  C   UNL     1      35.696  -0.437  16.275  0.00  0.00    +0.000 A 
ATOM     14  C   UNL     1      35.821   0.909  16.081  0.00  0.00    +0.000 A 
ATOM     15  C   UNL     1      34.765   1.894  16.405  0.00  0.00    +0.000 C 
ENDBRANCH   5   8
BRANCH   1  16
ATOM     16  N   UNL     1      37.281   6.016  13.491  0.00  0.00    +0.000 NA
BRANCH  16  22
ATOM     17  C   UNL     1      35.924   6.420  11.516  0.00  0.00    +0.000 A 
ATOM     18  C   UNL     1      34.757   6.797  10.889  0.00  0.00    +0.000 A 
ATOM     19  C   UNL     1      33.661   7.188  11.630  0.00  0.00    +0.000 A 
ATOM     20  C   UNL     1      33.793   7.182  13.014  0.00  0.00    +0.000 A 
ATOM     21  C   UNL     1      34.961   6.805  13.643  0.00  0.00    +0.000 A 
ATOM     22  C   UNL     1      36.045   6.418  12.888  0.00  0.00    +0.000 A 
BRANCH  17  23
ATOM     23  O   UNL     1      36.989   6.038  10.718  0.00  0.00    +0.000 OA
BRANCH  23  25
ATOM     24  C   UNL     1      38.295   4.130   9.993  0.00  0.00    +0.000 C 
ATOM     25  C   UNL     1      36.987   4.865   9.959  0.00  0.00    +0.000 C 
ENDBRANCH  23  25
ENDBRANCH  17  23
ENDBRANCH  16  22
ENDBRANCH   1  16
BRANCH   2  26
ATOM     26  S   UNL     1      38.155   6.670  16.353  0.00  0.00    +0.000 S 
BRANCH  26  27
ATOM     27  C   UNL     1      39.370   6.574  17.619  0.00  0.00    +0.000 A 
ATOM     28  C   UNL     1      40.722   6.515  17.228  0.00  0.00    +0.000 A 
ATOM     29  C   UNL     1      41.756   6.436  18.111  0.00  0.00    +0.000 A 
ATOM     30  C   UNL     1      41.454   6.414  19.471  0.00  0.00    +0.000 A 
ATOM     31  C   UNL     1      40.138   6.472  19.889  0.00  0.00    +0.000 A 
ATOM     32  C   UNL     1      39.162   6.548  18.962  0.00  0.00    +0.000 A 
ENDBRANCH  26  27
ENDBRANCH   2  26
TORSDOF 7
ENDMDL
