MODEL 1
REMARK VINA RESULT:      -5.7      0.000      0.000
REMARK  Name = 
REMARK  2 active torsions:
REMARK  status: ('A' for Active; 'I' for Inactive)
REMARK    1  A    between atoms: C_6  and  C_7
REMARK    2  A    between atoms: N_11  and  C_12
REMARK                            x       y       z     vdW  Elec       q    Type
REMARK                         _______ _______ _______ _____ _____    ______ ____
ROOT
ATOM      1  C   UNL     1      22.668 -11.019  27.733  0.00  0.00    +0.000 C 
ATOM      2  C   UNL     1      21.599 -10.026  27.373  0.00  0.00    +0.000 A 
ATOM      3  C   UNL     1      20.400  -9.980  28.053  0.00  0.00    +0.000 A 
ATOM      4  C   UNL     1      19.400  -9.085  27.751  0.00  0.00    +0.000 A 
ATOM      5  C   UNL     1      18.106  -9.025  28.473  0.00  0.00    +0.000 C 
ATOM      6  C   UNL     1      19.630  -8.202  26.717  0.00  0.00    +0.000 A 
ATOM      7  C   UNL     1      20.843  -8.256  26.037  0.00  0.00    +0.000 A 
ATOM      8  N   UNL     1      21.049  -7.335  24.977  0.00  0.00    +0.000 NA
ATOM      9  N   UNL     1      21.799  -9.155  26.369  0.00  0.00    +0.000 NA
ENDROOT
BRANCH   8  10
ATOM     10  C   UNL     1      22.269  -7.367  24.270  0.00  0.00    +0.000 A 
ATOM     11  C   UNL     1      23.296  -6.550  24.676  0.00  0.00    +0.000 A 
ATOM     12  C   UNL     1      24.469  -6.597  23.977  0.00  0.00    +0.000 A 
ATOM     13  C   UNL     1      24.630  -7.430  22.899  0.00  0.00    +0.000 A 
ATOM     14  C   UNL     1      23.602  -8.258  22.477  0.00  0.00    +0.000 A 
ATOM     15 CL   UNL     1      23.816  -9.324  21.094  0.00  0.00    +0.000 Cl
ATOM     16  C   UNL     1      22.424  -8.216  23.175  0.00  0.00    +0.000 A 
ENDBRANCH   8  10
BRANCH   6  17
ATOM     17  C   UNL     1      18.645  -7.209  26.307  0.00  0.00    +0.000 C 
ATOM     18  N   UNL     1      18.677  -5.899  26.864  0.00  0.00    +0.000 NA
ATOM     19  O   UNL     1      17.745  -7.456  25.467  0.00  0.00    +0.000 OA
ENDBRANCH   6  17
TORSDOF 2
ENDMDL
MODEL 2
REMARK VINA RESULT:      -5.7     31.838     32.624
REMARK  Name = 
REMARK  2 active torsions:
REMARK  status: ('A' for Active; 'I' for Inactive)
REMARK    1  A    between atoms: C_6  and  C_7
REMARK    2  A    between atoms: N_11  and  C_12
REMARK                            x       y       z     vdW  Elec       q    Type
REMARK                         _______ _______ _______ _____ _____    ______ ____
ROOT
ATOM      1  C   UNL     1      31.297  23.140  27.032  0.00  0.00    +0.000 C 
ATOM      2  C   UNL     1      30.077  23.050  27.905  0.00  0.00    +0.000 A 
ATOM      3  C   UNL     1      30.171  22.742  29.245  0.00  0.00    +0.000 A 
ATOM      4  C   UNL     1      29.075  22.652  30.073  0.00  0.00    +0.000 A 
ATOM      5  C   UNL     1      29.161  22.320  31.516  0.00  0.00    +0.000 C 
ATOM      6  C   UNL     1      27.836  22.886  29.514  0.00  0.00    +0.000 A 
ATOM      7  C   UNL     1      27.753  23.197  28.160  0.00  0.00    +0.000 A 
ATOM      8  N   UNL     1      26.463  23.432  27.615  0.00  0.00    +0.000 NA
ATOM      9  N   UNL     1      28.858  23.275  27.383  0.00  0.00    +0.000 NA
ENDROOT
BRANCH   8  10
ATOM     10  C   UNL     1      26.347  23.750  26.245  0.00  0.00    +0.000 A 
ATOM     11  C   UNL     1      26.198  22.732  25.335  0.00  0.00    +0.000 A 
ATOM     12  C   UNL     1      26.087  23.061  24.014  0.00  0.00    +0.000 A 
ATOM     13  C   UNL     1      26.124  24.367  23.594  0.00  0.00    +0.000 A 
ATOM     14  C   UNL     1      26.276  25.404  24.500  0.00  0.00    +0.000 A 
ATOM     15 CL   UNL     1      26.322  27.076  23.954  0.00  0.00    +0.000 Cl
ATOM     16  C   UNL     1      26.387  25.080  25.826  0.00  0.00    +0.000 A 
ENDBRANCH   8  10
BRANCH   6  17
ATOM     17  C   UNL     1      26.606  22.819  30.292  0.00  0.00    +0.000 C 
ATOM     18  N   UNL     1      26.055  24.003  30.860  0.00  0.00    +0.000 NA
ATOM     19  O   UNL     1      25.991  21.743  30.493  0.00  0.00    +0.000 OA
ENDBRANCH   6  17
TORSDOF 2
ENDMDL
MODEL 3
REMARK VINA RESULT:      -5.4     14.414     17.209
REMARK  Name = 
REMARK  2 active torsions:
REMARK  status: ('A' for Active; 'I' for Inactive)
REMARK    1  A    between atoms: C_6  and  C_7
REMARK    2  A    between atoms: N_11  and  C_12
REMARK                            x       y       z     vdW  Elec       q    Type
REMARK                         _______ _______ _______ _____ _____    ______ ____
ROOT
ATOM      1  C   UNL     1      24.889   5.220  13.074  0.00  0.00    +0.000 C 
ATOM      2  C   UNL     1      25.779   5.494  14.253  0.00  0.00    +0.000 A 
ATOM      3  C   UNL     1      26.838   6.372  14.169  0.00  0.00    +0.000 A 
ATOM      4  C   UNL     1      27.673   6.646  15.228  0.00  0.00    +0.000 A 
ATOM      5  C   UNL     1      28.817   7.586  15.150  0.00  0.00    +0.000 C 
ATOM      6  C   UNL     1      27.417   6.002  16.420  0.00  0.00    +0.000 A 
ATOM      7  C   UNL     1      26.345   5.118  16.496  0.00  0.00    +0.000 A 
ATOM      8  N   UNL     1      26.108   4.471  17.737  0.00  0.00    +0.000 NA
ATOM      9  N   UNL     1      25.549   4.878  15.427  0.00  0.00    +0.000 NA
ENDROOT
BRANCH   8  10
ATOM     10  C   UNL     1      25.027   3.569  17.843  0.00  0.00    +0.000 A 
ATOM     11  C   UNL     1      23.775   4.060  18.120  0.00  0.00    +0.000 A 
ATOM     12  C   UNL     1      22.744   3.170  18.219  0.00  0.00    +0.000 A 
ATOM     13  C   UNL     1      22.939   1.822  18.049  0.00  0.00    +0.000 A 
ATOM     14  C   UNL     1      24.197   1.313  17.770  0.00  0.00    +0.000 A 
ATOM     15 CL   UNL     1      24.440  -0.416  17.554  0.00  0.00    +0.000 Cl
ATOM     16  C   UNL     1      25.235   2.201  17.670  0.00  0.00    +0.000 A 
ENDBRANCH   8  10
BRANCH   6  17
ATOM     17  C   UNL     1      28.232   6.213  17.610  0.00  0.00    +0.000 C 
ATOM     18  N   UNL     1      27.908   7.259  18.521  0.00  0.00    +0.000 NA
ATOM     19  O   UNL     1      29.231   5.502  17.880  0.00  0.00    +0.000 OA
ENDBRANCH   6  17
TORSDOF 2
ENDMDL
MODEL 4
REMARK VINA RESULT:      -5.4     22.230     23.817
REMARK  Name = 
REMARK  2 active torsions:
REMARK  status: ('A' for Active; 'I' for Inactive)
REMARK    1  A    between atoms: C_6  and  C_7
REMARK    2  A    between atoms: N_11  and  C_12
REMARK                            x       y       z     vdW  Elec       q    Type
REMARK                         _______ _______ _______ _____ _____    ______ ____
ROOT
ATOM      1  C   UNL     1      20.831  14.708  39.193  0.00  0.00    +0.000 C 
ATOM      2  C   UNL     1      21.466  13.442  38.693  0.00  0.00    +0.000 A 
ATOM      3  C   UNL     1      22.831  13.337  38.525  0.00  0.00    +0.000 A 
ATOM      4  C   UNL     1      23.445  12.193  38.070  0.00  0.00    +0.000 A 
ATOM      5  C   UNL     1      24.911  12.067  37.883  0.00  0.00    +0.000 C 
ATOM      6  C   UNL     1      22.639  11.114  37.776  0.00  0.00    +0.000 A 
ATOM      7  C   UNL     1      21.263  11.229  37.950  0.00  0.00    +0.000 A 
ATOM      8  N   UNL     1      20.460  10.100  37.638  0.00  0.00    +0.000 NA
ATOM      9  N   UNL     1      20.701  12.375  38.400  0.00  0.00    +0.000 NA
ENDROOT
BRANCH   8  10
ATOM     10  C   UNL     1      19.062  10.188  37.804  0.00  0.00    +0.000 A 
ATOM     11  C   UNL     1      18.289  10.595  36.744  0.00  0.00    +0.000 A 
ATOM     12  C   UNL     1      16.938  10.673  36.927  0.00  0.00    +0.000 A 
ATOM     13  C   UNL     1      16.356  10.358  38.129  0.00  0.00    +0.000 A 
ATOM     14  C   UNL     1      17.123   9.947  39.208  0.00  0.00    +0.000 A 
ATOM     15 CL   UNL     1      16.370   9.545  40.746  0.00  0.00    +0.000 Cl
ATOM     16  C   UNL     1      18.479   9.867  39.030  0.00  0.00    +0.000 A 
ENDBRANCH   8  10
BRANCH   6  17
ATOM     17  C   UNL     1      23.177   9.850  37.287  0.00  0.00    +0.000 C 
ATOM     18  N   UNL     1      23.586   8.844  38.208  0.00  0.00    +0.000 NA
ATOM     19  O   UNL     1      23.301   9.596  36.064  0.00  0.00    +0.000 OA
ENDBRANCH   6  17
TORSDOF 2
ENDMDL
MODEL 5
REMARK VINA RESULT:      -5.4     21.499     22.572
REMARK  Name = 
REMARK  2 active torsions:
REMARK  status: ('A' for Active; 'I' for Inactive)
REMARK    1  A    between atoms: C_6  and  C_7
REMARK    2  A    between atoms: N_11  and  C_12
REMARK                            x       y       z     vdW  Elec       q    Type
REMARK                         _______ _______ _______ _____ _____    ______ ____
ROOT
ATOM      1  C   UNL     1      21.277   9.271  41.913  0.00  0.00    +0.000 C 
ATOM      2  C   UNL     1      20.359   9.533  40.752  0.00  0.00    +0.000 A 
ATOM      3  C   UNL     1      18.988   9.511  40.898  0.00  0.00    +0.000 A 
ATOM      4  C   UNL     1      18.119   9.747  39.858  0.00  0.00    +0.000 A 
ATOM      5  C   UNL     1      16.643   9.725  40.001  0.00  0.00    +0.000 C 
ATOM      6  C   UNL     1      18.667  10.017  38.622  0.00  0.00    +0.000 A 
ATOM      7  C   UNL     1      20.051  10.037  38.485  0.00  0.00    +0.000 A 
ATOM      8  N   UNL     1      20.585  10.317  37.199  0.00  0.00    +0.000 NA
ATOM      9  N   UNL     1      20.870   9.799  39.536  0.00  0.00    +0.000 NA
ENDROOT
BRANCH   8  10
ATOM     10  C   UNL     1      21.985  10.345  37.030  0.00  0.00    +0.000 A 
ATOM     11  C   UNL     1      22.610   9.257  36.472  0.00  0.00    +0.000 A 
ATOM     12  C   UNL     1      23.966   9.304  36.317  0.00  0.00    +0.000 A 
ATOM     13  C   UNL     1      24.696  10.400  36.705  0.00  0.00    +0.000 A 
ATOM     14  C   UNL     1      24.079  11.504  37.271  0.00  0.00    +0.000 A 
ATOM     15 CL   UNL     1      25.021  12.906  37.765  0.00  0.00    +0.000 Cl
ATOM     16  C   UNL     1      22.719  11.462  37.427  0.00  0.00    +0.000 A 
ENDBRANCH   8  10
BRANCH   6  17
ATOM     17  C   UNL     1      17.846  10.282  37.448  0.00  0.00    +0.000 C 
ATOM     18  N   UNL     1      17.381  11.602  37.185  0.00  0.00    +0.000 NA
ATOM     19  O   UNL     1      17.518   9.383  36.634  0.00  0.00    +0.000 OA
ENDBRANCH   6  17
TORSDOF 2
ENDMDL
MODEL 6
REMARK VINA RESULT:      -5.4     13.152     15.386
REMARK  Name = 
REMARK  2 active torsions:
REMARK  status: ('A' for Active; 'I' for Inactive)
REMARK    1  A    between atoms: C_6  and  C_7
REMARK    2  A    between atoms: N_11  and  C_12
REMARK                            x       y       z     vdW  Elec       q    Type
REMARK                         _______ _______ _______ _____ _____    ______ ____
ROOT
ATOM      1  C   UNL     1      28.138   0.785  16.748  0.00  0.00    +0.000 C 
ATOM      2  C   UNL     1      26.684   1.156  16.839  0.00  0.00    +0.000 A 
ATOM      3  C   UNL     1      25.704   0.197  16.984  0.00  0.00    +0.000 A 
ATOM      4  C   UNL     1      24.365   0.501  17.070  0.00  0.00    +0.000 A 
ATOM      5  C   UNL     1      23.300  -0.520  17.225  0.00  0.00    +0.000 C 
ATOM      6  C   UNL     1      24.010   1.832  17.008  0.00  0.00    +0.000 A 
ATOM      7  C   UNL     1      25.007   2.792  16.862  0.00  0.00    +0.000 A 
ATOM      8  N   UNL     1      24.610   4.153  16.800  0.00  0.00    +0.000 NA
ATOM      9  N   UNL     1      26.314   2.447  16.780  0.00  0.00    +0.000 NA
ENDROOT
BRANCH   8  10
ATOM     10  C   UNL     1      25.599   5.149  16.652  0.00  0.00    +0.000 A 
ATOM     11  C   UNL     1      25.948   5.559  15.389  0.00  0.00    +0.000 A 
ATOM     12  C   UNL     1      26.907   6.524  15.268  0.00  0.00    +0.000 A 
ATOM     13  C   UNL     1      27.514   7.075  16.369  0.00  0.00    +0.000 A 
ATOM     14  C   UNL     1      27.174   6.669  17.649  0.00  0.00    +0.000 A 
ATOM     15 CL   UNL     1      27.956   7.380  19.056  0.00  0.00    +0.000 Cl
ATOM     16  C   UNL     1      26.212   5.703  17.776  0.00  0.00    +0.000 A 
ENDBRANCH   8  10
BRANCH   6  17
ATOM     17  C   UNL     1      22.624   2.273  17.089  0.00  0.00    +0.000 C 
ATOM     18  N   UNL     1      21.836   2.374  15.907  0.00  0.00    +0.000 NA
ATOM     19  O   UNL     1      22.073   2.577  18.176  0.00  0.00    +0.000 OA
ENDBRANCH   6  17
TORSDOF 2
ENDMDL
MODEL 7
REMARK VINA RESULT:      -5.3     13.691     15.007
REMARK  Name = 
REMARK  2 active torsions:
REMARK  status: ('A' for Active; 'I' for Inactive)
REMARK    1  A    between atoms: C_6  and  C_7
REMARK    2  A    between atoms: N_11  and  C_12
REMARK                            x       y       z     vdW  Elec       q    Type
REMARK                         _______ _______ _______ _____ _____    ______ ____
ROOT
ATOM      1  C   UNL     1      36.623  -7.653  33.903  0.00  0.00    +0.000 C 
ATOM      2  C   UNL     1      35.763  -6.421  33.938  0.00  0.00    +0.000 A 
ATOM      3  C   UNL     1      35.768  -5.569  35.022  0.00  0.00    +0.000 A 
ATOM      4  C   UNL     1      34.994  -4.433  35.087  0.00  0.00    +0.000 A 
ATOM      5  C   UNL     1      34.989  -3.509  36.247  0.00  0.00    +0.000 C 
ATOM      6  C   UNL     1      34.184  -4.154  34.006  0.00  0.00    +0.000 A 
ATOM      7  C   UNL     1      34.186  -5.020  32.918  0.00  0.00    +0.000 A 
ATOM      8  N   UNL     1      33.341  -4.706  31.821  0.00  0.00    +0.000 NA
ATOM      9  N   UNL     1      34.964  -6.128  32.896  0.00  0.00    +0.000 NA
ENDROOT
BRANCH   8  10
ATOM     10  C   UNL     1      33.322  -5.566  30.703  0.00  0.00    +0.000 A 
ATOM     11  C   UNL     1      34.204  -5.342  29.674  0.00  0.00    +0.000 A 
ATOM     12  C   UNL     1      34.169  -6.186  28.602  0.00  0.00    +0.000 A 
ATOM     13  C   UNL     1      33.283  -7.232  28.540  0.00  0.00    +0.000 A 
ATOM     14  C   UNL     1      32.386  -7.470  29.569  0.00  0.00    +0.000 A 
ATOM     15 CL   UNL     1      31.253  -8.813  29.482  0.00  0.00    +0.000 Cl
ATOM     16  C   UNL     1      32.417  -6.626  30.647  0.00  0.00    +0.000 A 
ENDBRANCH   8  10
BRANCH   6  17
ATOM     17  C   UNL     1      33.322  -2.980  33.963  0.00  0.00    +0.000 C 
ATOM     18  N   UNL     1      32.043  -3.010  34.590  0.00  0.00    +0.000 NA
ATOM     19  O   UNL     1      33.656  -1.916  33.386  0.00  0.00    +0.000 OA
ENDBRANCH   6  17
TORSDOF 2
ENDMDL
MODEL 8
REMARK VINA RESULT:      -5.2     32.192     34.190
REMARK  Name = 
REMARK  2 active torsions:
REMARK  status: ('A' for Active; 'I' for Inactive)
REMARK    1  A    between atoms: C_6  and  C_7
REMARK    2  A    between atoms: N_11  and  C_12
REMARK                            x       y       z     vdW  Elec       q    Type
REMARK                         _______ _______ _______ _____ _____    ______ ____
ROOT
ATOM      1  C   UNL     1      28.808  28.145  26.159  0.00  0.00    +0.000 C 
ATOM      2  C   UNL     1      28.778  27.177  25.010  0.00  0.00    +0.000 A 
ATOM      3  C   UNL     1      28.482  27.588  23.728  0.00  0.00    +0.000 A 
ATOM      4  C   UNL     1      28.446  26.729  22.654  0.00  0.00    +0.000 A 
ATOM      5  C   UNL     1      28.128  27.157  21.270  0.00  0.00    +0.000 C 
ATOM      6  C   UNL     1      28.724  25.400  22.895  0.00  0.00    +0.000 A 
ATOM      7  C   UNL     1      29.023  24.995  24.192  0.00  0.00    +0.000 A 
ATOM      8  N   UNL     1      29.304  23.620  24.407  0.00  0.00    +0.000 NA
ATOM      9  N   UNL     1      29.046  25.875  25.220  0.00  0.00    +0.000 NA
ENDROOT
BRANCH   8  10
ATOM     10  C   UNL     1      29.610  23.180  25.713  0.00  0.00    +0.000 A 
ATOM     11  C   UNL     1      30.922  22.960  26.051  0.00  0.00    +0.000 A 
ATOM     12  C   UNL     1      31.196  22.535  27.320  0.00  0.00    +0.000 A 
ATOM     13  C   UNL     1      30.198  22.329  28.239  0.00  0.00    +0.000 A 
ATOM     14  C   UNL     1      28.870  22.546  27.912  0.00  0.00    +0.000 A 
ATOM     15 CL   UNL     1      27.596  22.280  29.096  0.00  0.00    +0.000 Cl
ATOM     16  C   UNL     1      28.589  22.973  26.641  0.00  0.00    +0.000 A 
ENDBRANCH   8  10
BRANCH   6  17
ATOM     17  C   UNL     1      28.717  24.399  21.836  0.00  0.00    +0.000 C 
ATOM     18  N   UNL     1      27.567  23.583  21.632  0.00  0.00    +0.000 NA
ATOM     19  O   UNL     1      29.697  24.213  21.073  0.00  0.00    +0.000 OA
ENDBRANCH   6  17
TORSDOF 2
ENDMDL
MODEL 9
REMARK VINA RESULT:      -5.2      1.980      3.434
REMARK  Name = 
REMARK  2 active torsions:
REMARK  status: ('A' for Active; 'I' for Inactive)
REMARK    1  A    between atoms: C_6  and  C_7
REMARK    2  A    between atoms: N_11  and  C_12
REMARK                            x       y       z     vdW  Elec       q    Type
REMARK                         _______ _______ _______ _____ _____    ______ ____
ROOT
ATOM      1  C   UNL     1      18.633  -5.525  26.215  0.00  0.00    +0.000 C 
ATOM      2  C   UNL     1      18.978  -6.932  26.612  0.00  0.00    +0.000 A 
ATOM      3  C   UNL     1      18.363  -7.553  27.678  0.00  0.00    +0.000 A 
ATOM      4  C   UNL     1      18.654  -8.839  28.068  0.00  0.00    +0.000 A 
ATOM      5  C   UNL     1      18.000  -9.518  29.213  0.00  0.00    +0.000 C 
ATOM      6  C   UNL     1      19.608  -9.522  27.343  0.00  0.00    +0.000 A 
ATOM      7  C   UNL     1      20.223  -8.887  26.268  0.00  0.00    +0.000 A 
ATOM      8  N   UNL     1      21.202  -9.616  25.542  0.00  0.00    +0.000 NA
ATOM      9  N   UNL     1      19.906  -7.618  25.920  0.00  0.00    +0.000 NA
ENDROOT
BRANCH   8  10
ATOM     10  C   UNL     1      21.843  -8.998  24.447  0.00  0.00    +0.000 A 
ATOM     11  C   UNL     1      21.356  -9.214  23.182  0.00  0.00    +0.000 A 
ATOM     12  C   UNL     1      21.991  -8.607  22.136  0.00  0.00    +0.000 A 
ATOM     13  C   UNL     1      23.085  -7.802  22.331  0.00  0.00    +0.000 A 
ATOM     14  C   UNL     1      23.588  -7.575  23.602  0.00  0.00    +0.000 A 
ATOM     15 CL   UNL     1      24.992  -6.541  23.843  0.00  0.00    +0.000 Cl
ATOM     16  C   UNL     1      22.955  -8.182  24.654  0.00  0.00    +0.000 A 
ENDBRANCH   8  10
BRANCH   6  17
ATOM     17  C   UNL     1      19.999 -10.889  27.663  0.00  0.00    +0.000 C 
ATOM     18  N   UNL     1      21.063 -11.132  28.577  0.00  0.00    +0.000 NA
ATOM     19  O   UNL     1      19.431 -11.890  27.160  0.00  0.00    +0.000 OA
ENDBRANCH   6  17
TORSDOF 2
ENDMDL
MODEL 10
REMARK VINA RESULT:      -5.1     32.352     34.414
REMARK  Name = 
REMARK  2 active torsions:
REMARK  status: ('A' for Active; 'I' for Inactive)
REMARK    1  A    between atoms: C_6  and  C_7
REMARK    2  A    between atoms: N_11  and  C_12
REMARK                            x       y       z     vdW  Elec       q    Type
REMARK                         _______ _______ _______ _____ _____    ______ ____
ROOT
ATOM      1  C   UNL     1      29.792  28.273  26.091  0.00  0.00    +0.000 C 
ATOM      2  C   UNL     1      29.519  27.366  24.923  0.00  0.00    +0.000 A 
ATOM      3  C   UNL     1      29.493  27.844  23.630  0.00  0.00    +0.000 A 
ATOM      4  C   UNL     1      29.247  27.042  22.539  0.00  0.00    +0.000 A 
ATOM      5  C   UNL     1      29.215  27.543  21.144  0.00  0.00    +0.000 C 
ATOM      6  C   UNL     1      29.021  25.702  22.774  0.00  0.00    +0.000 A 
ATOM      7  C   UNL     1      29.050  25.230  24.083  0.00  0.00    +0.000 A 
ATOM      8  N   UNL     1      28.812  23.846  24.292  0.00  0.00    +0.000 NA
ATOM      9  N   UNL     1      29.295  26.056  25.127  0.00  0.00    +0.000 NA
ENDROOT
BRANCH   8  10
ATOM     10  C   UNL     1      28.835  23.339  25.608  0.00  0.00    +0.000 A 
ATOM     11  C   UNL     1      27.657  23.249  26.308  0.00  0.00    +0.000 A 
ATOM     12  C   UNL     1      27.702  22.755  27.581  0.00  0.00    +0.000 A 
ATOM     13  C   UNL     1      28.883  22.357  28.155  0.00  0.00    +0.000 A 
ATOM     14  C   UNL     1      30.079  22.443  27.461  0.00  0.00    +0.000 A 
ATOM     15 CL   UNL     1      31.589  21.931  28.205  0.00  0.00    +0.000 Cl
ATOM     16  C   UNL     1      30.040  22.937  26.185  0.00  0.00    +0.000 A 
ENDBRANCH   8  10
BRANCH   6  17
ATOM     17  C   UNL     1      28.750  24.758  21.698  0.00  0.00    +0.000 C 
ATOM     18  N   UNL     1      27.418  24.315  21.455  0.00  0.00    +0.000 NA
ATOM     19  O   UNL     1      29.653  24.304  20.953  0.00  0.00    +0.000 OA
ENDBRANCH   6  17
TORSDOF 2
ENDMDL
