MODEL 1
REMARK VINA RESULT:      -6.3      0.000      0.000
REMARK  Name = 
REMARK  3 active torsions:
REMARK  status: ('A' for Active; 'I' for Inactive)
REMARK    1  A    between atoms: C_5  and  C_6
REMARK    2  A    between atoms: N_8  and  C_9
REMARK    3  A    between atoms: C_11  and  C_12
REMARK                            x       y       z     vdW  Elec       q    Type
REMARK                         _______ _______ _______ _____ _____    ______ ____
ROOT
ATOM      1  C   UNL     1      27.149  24.755  22.346  0.00  0.00    +0.000 C 
ATOM      2  O   UNL     1      26.392  23.928  21.641  0.00  0.00    +0.000 OA
ATOM      3  N   UNL     1      27.068  24.551  23.685  0.00  0.00    +0.000 NA
ENDROOT
BRANCH   1   8
ATOM      4  C   UNL     1      29.951  28.551  19.157  0.00  0.00    +0.000 C 
ATOM      5  C   UNL     1      29.194  27.573  19.999  0.00  0.00    +0.000 A 
ATOM      6  C   UNL     1      28.000  27.877  20.573  0.00  0.00    +0.000 A 
ATOM      7  N   UNL     1      27.380  26.917  21.329  0.00  0.00    +0.000 NA
ATOM      8  C   UNL     1      27.883  25.685  21.538  0.00  0.00    +0.000 A 
ATOM      9  C   UNL     1      29.086  25.452  20.928  0.00  0.00    +0.000 A 
ATOM     10  N   UNL     1      29.689  24.179  21.095  0.00  0.00    +0.000 NA
ATOM     11  N   UNL     1      29.727  26.357  20.184  0.00  0.00    +0.000 NA
ENDBRANCH   1   8
BRANCH   3  12
ATOM     12  C   UNL     1      26.106  23.397  24.186  0.00  0.00    +0.000 C 
ATOM     13  C   UNL     1      26.039  23.898  25.883  0.00  0.00    +0.000 C 
ATOM     14  C   UNL     1      27.081  22.588  25.378  0.00  0.00    +0.000 C 
BRANCH  14  15
ATOM     15  C   UNL     1      28.465  23.288  25.394  0.00  0.00    +0.000 A 
ATOM     16  C   UNL     1      28.772  24.312  26.193  0.00  0.00    +0.000 A 
ATOM     17  C   UNL     1      30.008  24.897  26.170  0.00  0.00    +0.000 A 
ATOM     18  C   UNL     1      30.958  24.420  25.304  0.00  0.00    +0.000 A 
ATOM     19  C   UNL     1      30.668  23.370  24.477  0.00  0.00    +0.000 A 
ATOM     20  C   UNL     1      29.380  22.787  24.524  0.00  0.00    +0.000 A 
ENDBRANCH  14  15
ENDBRANCH   3  12
TORSDOF 3
ENDMDL
MODEL 2
REMARK VINA RESULT:      -6.1      1.086      1.189
REMARK  Name = 
REMARK  3 active torsions:
REMARK  status: ('A' for Active; 'I' for Inactive)
REMARK    1  A    between atoms: C_5  and  C_6
REMARK    2  A    between atoms: N_8  and  C_9
REMARK    3  A    between atoms: C_11  and  C_12
REMARK                            x       y       z     vdW  Elec       q    Type
REMARK                         _______ _______ _______ _____ _____    ______ ____
ROOT
ATOM      1  C   UNL     1      27.474  24.570  23.415  0.00  0.00    +0.000 C 
ATOM      2  O   UNL     1      26.409  23.904  22.997  0.00  0.00    +0.000 OA
ATOM      3  N   UNL     1      27.884  24.206  24.657  0.00  0.00    +0.000 NA
ENDROOT
BRANCH   1   8
ATOM      4  C   UNL     1      29.289  28.488  19.702  0.00  0.00    +0.000 C 
ATOM      5  C   UNL     1      28.794  27.478  20.688  0.00  0.00    +0.000 A 
ATOM      6  C   UNL     1      27.839  27.768  21.611  0.00  0.00    +0.000 A 
ATOM      7  N   UNL     1      27.450  26.779  22.475  0.00  0.00    +0.000 NA
ATOM      8  C   UNL     1      27.956  25.531  22.465  0.00  0.00    +0.000 A 
ATOM      9  C   UNL     1      28.911  25.314  21.509  0.00  0.00    +0.000 A 
ATOM     10  N   UNL     1      29.500  24.025  21.427  0.00  0.00    +0.000 NA
ATOM     11  N   UNL     1      29.323  26.247  20.647  0.00  0.00    +0.000 NA
ENDBRANCH   1   8
BRANCH   3  12
ATOM     12  C   UNL     1      27.049  23.083  25.395  0.00  0.00    +0.000 C 
ATOM     13  C   UNL     1      27.405  23.606  27.049  0.00  0.00    +0.000 C 
ATOM     14  C   UNL     1      28.266  22.265  26.331  0.00  0.00    +0.000 C 
BRANCH  14  15
ATOM     15  C   UNL     1      29.628  22.932  26.001  0.00  0.00    +0.000 A 
ATOM     16  C   UNL     1      30.184  23.894  26.739  0.00  0.00    +0.000 A 
ATOM     17  C   UNL     1      31.387  24.451  26.405  0.00  0.00    +0.000 A 
ATOM     18  C   UNL     1      32.040  24.012  25.283  0.00  0.00    +0.000 A 
ATOM     19  C   UNL     1      31.491  23.026  24.510  0.00  0.00    +0.000 A 
ATOM     20  C   UNL     1      30.245  22.469  24.882  0.00  0.00    +0.000 A 
ENDBRANCH  14  15
ENDBRANCH   3  12
TORSDOF 3
ENDMDL
MODEL 3
REMARK VINA RESULT:      -5.9      1.415      2.158
REMARK  Name = 
REMARK  3 active torsions:
REMARK  status: ('A' for Active; 'I' for Inactive)
REMARK    1  A    between atoms: C_5  and  C_6
REMARK    2  A    between atoms: N_8  and  C_9
REMARK    3  A    between atoms: C_11  and  C_12
REMARK                            x       y       z     vdW  Elec       q    Type
REMARK                         _______ _______ _______ _____ _____    ______ ____
ROOT
ATOM      1  C   UNL     1      27.608  24.019  23.809  0.00  0.00    +0.000 C 
ATOM      2  O   UNL     1      26.780  23.089  23.359  0.00  0.00    +0.000 OA
ATOM      3  N   UNL     1      27.875  23.907  25.134  0.00  0.00    +0.000 NA
ENDROOT
BRANCH   1   8
ATOM      4  C   UNL     1      29.393  27.571  19.730  0.00  0.00    +0.000 C 
ATOM      5  C   UNL     1      28.941  26.618  20.791  0.00  0.00    +0.000 A 
ATOM      6  C   UNL     1      29.393  25.338  20.860  0.00  0.00    +0.000 A 
ATOM      7  N   UNL     1      28.921  24.536  21.866  0.00  0.00    +0.000 NA
ATOM      8  C   UNL     1      28.034  24.941  22.796  0.00  0.00    +0.000 A 
ATOM      9  C   UNL     1      27.626  26.241  22.662  0.00  0.00    +0.000 A 
ATOM     10  N   UNL     1      26.691  26.751  23.599  0.00  0.00    +0.000 NA
ATOM     11  N   UNL     1      28.057  27.058  21.698  0.00  0.00    +0.000 NA
ENDBRANCH   1   8
BRANCH   3  12
ATOM     12  C   UNL     1      27.174  22.724  25.917  0.00  0.00    +0.000 C 
ATOM     13  C   UNL     1      27.647  23.237  27.545  0.00  0.00    +0.000 C 
ATOM     14  C   UNL     1      28.514  21.960  26.722  0.00  0.00    +0.000 C 
BRANCH  14  15
ATOM     15  C   UNL     1      29.801  22.711  26.287  0.00  0.00    +0.000 A 
ATOM     16  C   UNL     1      30.408  23.639  27.029  0.00  0.00    +0.000 A 
ATOM     17  C   UNL     1      31.541  24.273  26.601  0.00  0.00    +0.000 A 
ATOM     18  C   UNL     1      32.069  23.949  25.378  0.00  0.00    +0.000 A 
ATOM     19  C   UNL     1      31.466  23.000  24.600  0.00  0.00    +0.000 A 
ATOM     20  C   UNL     1      30.294  22.362  25.070  0.00  0.00    +0.000 A 
ENDBRANCH  14  15
ENDBRANCH   3  12
TORSDOF 3
ENDMDL
MODEL 4
REMARK VINA RESULT:      -5.9     19.350     21.817
REMARK  Name = 
REMARK  3 active torsions:
REMARK  status: ('A' for Active; 'I' for Inactive)
REMARK    1  A    between atoms: C_5  and  C_6
REMARK    2  A    between atoms: N_8  and  C_9
REMARK    3  A    between atoms: C_11  and  C_12
REMARK                            x       y       z     vdW  Elec       q    Type
REMARK                         _______ _______ _______ _____ _____    ______ ____
ROOT
ATOM      1  C   UNL     1      16.851  11.038  33.436  0.00  0.00    +0.000 C 
ATOM      2  O   UNL     1      17.169   9.954  32.744  0.00  0.00    +0.000 OA
ATOM      3  N   UNL     1      16.213  11.981  32.698  0.00  0.00    +0.000 NA
ENDROOT
BRANCH   1   8
ATOM      4  C   UNL     1      18.429  10.942  38.908  0.00  0.00    +0.000 C 
ATOM      5  C   UNL     1      18.008  10.995  37.473  0.00  0.00    +0.000 A 
ATOM      6  C   UNL     1      17.560  12.136  36.887  0.00  0.00    +0.000 A 
ATOM      7  N   UNL     1      17.196  12.089  35.567  0.00  0.00    +0.000 NA
ATOM      8  C   UNL     1      17.256  10.976  34.811  0.00  0.00    +0.000 A 
ATOM      9  C   UNL     1      17.717   9.867  35.469  0.00  0.00    +0.000 A 
ATOM     10  N   UNL     1      17.813   8.649  34.748  0.00  0.00    +0.000 NA
ATOM     11  N   UNL     1      18.082   9.866  36.753  0.00  0.00    +0.000 NA
ENDBRANCH   1   8
BRANCH   3  12
ATOM     12  C   UNL     1      15.960  11.656  31.170  0.00  0.00    +0.000 C 
ATOM     13  C   UNL     1      16.152  13.310  30.566  0.00  0.00    +0.000 C 
ATOM     14  C   UNL     1      14.561  12.624  30.807  0.00  0.00    +0.000 C 
BRANCH  14  15
ATOM     15  C   UNL     1      14.133  13.327  32.122  0.00  0.00    +0.000 A 
ATOM     16  C   UNL     1      14.153  12.740  33.320  0.00  0.00    +0.000 A 
ATOM     17  C   UNL     1      13.765  13.402  34.452  0.00  0.00    +0.000 A 
ATOM     18  C   UNL     1      13.344  14.703  34.356  0.00  0.00    +0.000 A 
ATOM     19  C   UNL     1      13.317  15.328  33.139  0.00  0.00    +0.000 A 
ATOM     20  C   UNL     1      13.723  14.616  31.986  0.00  0.00    +0.000 A 
ENDBRANCH  14  15
ENDBRANCH   3  12
TORSDOF 3
ENDMDL
MODEL 5
REMARK VINA RESULT:      -5.8      3.430      6.186
REMARK  Name = 
REMARK  3 active torsions:
REMARK  status: ('A' for Active; 'I' for Inactive)
REMARK    1  A    between atoms: C_5  and  C_6
REMARK    2  A    between atoms: N_8  and  C_9
REMARK    3  A    between atoms: C_11  and  C_12
REMARK                            x       y       z     vdW  Elec       q    Type
REMARK                         _______ _______ _______ _____ _____    ______ ____
ROOT
ATOM      1  C   UNL     1      28.030  23.305  27.156  0.00  0.00    +0.000 C 
ATOM      2  O   UNL     1      28.134  22.189  27.862  0.00  0.00    +0.000 OA
ATOM      3  N   UNL     1      29.045  23.481  26.272  0.00  0.00    +0.000 NA
ENDROOT
BRANCH   1   8
ATOM      4  C   UNL     1      23.493  26.432  28.593  0.00  0.00    +0.000 C 
ATOM      5  C   UNL     1      24.698  25.619  28.239  0.00  0.00    +0.000 A 
ATOM      6  C   UNL     1      25.796  25.560  29.037  0.00  0.00    +0.000 A 
ATOM      7  N   UNL     1      26.853  24.789  28.631  0.00  0.00    +0.000 NA
ATOM      8  C   UNL     1      26.870  24.082  27.485  0.00  0.00    +0.000 A 
ATOM      9  C   UNL     1      25.730  24.190  26.735  0.00  0.00    +0.000 A 
ATOM     10  N   UNL     1      25.661  23.477  25.510  0.00  0.00    +0.000 NA
ATOM     11  N   UNL     1      24.676  24.929  27.090  0.00  0.00    +0.000 NA
ENDBRANCH   1   8
BRANCH   3  12
ATOM     12  C   UNL     1      30.167  22.365  26.226  0.00  0.00    +0.000 C 
ATOM     13  C   UNL     1      31.509  23.431  25.781  0.00  0.00    +0.000 C 
ATOM     14  C   UNL     1      30.711  22.447  24.576  0.00  0.00    +0.000 C 
BRANCH  14  15
ATOM     15  C   UNL     1      29.840  23.511  23.856  0.00  0.00    +0.000 A 
ATOM     16  C   UNL     1      30.190  24.791  23.720  0.00  0.00    +0.000 A 
ATOM     17  C   UNL     1      29.387  25.692  23.077  0.00  0.00    +0.000 A 
ATOM     18  C   UNL     1      28.190  25.271  22.558  0.00  0.00    +0.000 A 
ATOM     19  C   UNL     1      27.810  23.963  22.684  0.00  0.00    +0.000 A 
ATOM     20  C   UNL     1      28.662  23.055  23.355  0.00  0.00    +0.000 A 
ENDBRANCH  14  15
ENDBRANCH   3  12
TORSDOF 3
ENDMDL
MODEL 6
REMARK VINA RESULT:      -5.8     33.430     35.694
REMARK  Name = 
REMARK  3 active torsions:
REMARK  status: ('A' for Active; 'I' for Inactive)
REMARK    1  A    between atoms: C_5  and  C_6
REMARK    2  A    between atoms: N_8  and  C_9
REMARK    3  A    between atoms: C_11  and  C_12
REMARK                            x       y       z     vdW  Elec       q    Type
REMARK                         _______ _______ _______ _____ _____    ______ ____
ROOT
ATOM      1  C   UNL     1      16.417  -9.997  24.993  0.00  0.00    +0.000 C 
ATOM      2  O   UNL     1      16.233 -11.306  25.075  0.00  0.00    +0.000 OA
ATOM      3  N   UNL     1      17.292  -9.517  25.913  0.00  0.00    +0.000 NA
ENDROOT
BRANCH   1   8
ATOM      4  C   UNL     1      13.461  -7.591  20.761  0.00  0.00    +0.000 C 
ATOM      5  C   UNL     1      14.256  -8.234  21.854  0.00  0.00    +0.000 A 
ATOM      6  C   UNL     1      15.359  -8.988  21.605  0.00  0.00    +0.000 A 
ATOM      7  N   UNL     1      16.023  -9.538  22.670  0.00  0.00    +0.000 NA
ATOM      8  C   UNL     1      15.648  -9.376  23.953  0.00  0.00    +0.000 A 
ATOM      9  C   UNL     1      14.530  -8.605  24.125  0.00  0.00    +0.000 A 
ATOM     10  N   UNL     1      14.064  -8.382  25.446  0.00  0.00    +0.000 NA
ATOM     11  N   UNL     1      13.851  -8.050  23.118  0.00  0.00    +0.000 NA
ENDBRANCH   1   8
BRANCH   3  12
ATOM     12  C   UNL     1      17.933 -10.560  26.916  0.00  0.00    +0.000 C 
ATOM     13  C   UNL     1      17.400  -9.772  28.410  0.00  0.00    +0.000 C 
ATOM     14  C   UNL     1      19.037  -9.573  27.829  0.00  0.00    +0.000 C 
BRANCH  14  15
ATOM     15  C   UNL     1      18.968  -8.139  27.240  0.00  0.00    +0.000 A 
ATOM     16  C   UNL     1      18.057  -7.231  27.596  0.00  0.00    +0.000 A 
ATOM     17  C   UNL     1      18.038  -5.979  27.046  0.00  0.00    +0.000 A 
ATOM     18  C   UNL     1      18.977  -5.645  26.105  0.00  0.00    +0.000 A 
ATOM     19  C   UNL     1      19.922  -6.559  25.725  0.00  0.00    +0.000 A 
ATOM     20  C   UNL     1      19.916  -7.846  26.311  0.00  0.00    +0.000 A 
ENDBRANCH  14  15
ENDBRANCH   3  12
TORSDOF 3
ENDMDL
MODEL 7
REMARK VINA RESULT:      -5.7     19.648     21.799
REMARK  Name = 
REMARK  3 active torsions:
REMARK  status: ('A' for Active; 'I' for Inactive)
REMARK    1  A    between atoms: C_5  and  C_6
REMARK    2  A    between atoms: N_8  and  C_9
REMARK    3  A    between atoms: C_11  and  C_12
REMARK                            x       y       z     vdW  Elec       q    Type
REMARK                         _______ _______ _______ _____ _____    ______ ____
ROOT
ATOM      1  C   UNL     1      21.211  12.702  38.816  0.00  0.00    +0.000 C 
ATOM      2  O   UNL     1      21.144  13.377  39.953  0.00  0.00    +0.000 OA
ATOM      3  N   UNL     1      22.466  12.635  38.303  0.00  0.00    +0.000 NA
ENDROOT
BRANCH   1   8
ATOM      4  C   UNL     1      16.143  10.827  37.019  0.00  0.00    +0.000 C 
ATOM      5  C   UNL     1      17.468  11.346  37.481  0.00  0.00    +0.000 A 
ATOM      6  C   UNL     1      17.860  12.630  37.272  0.00  0.00    +0.000 A 
ATOM      7  N   UNL     1      19.093  13.015  37.730  0.00  0.00    +0.000 NA
ATOM      8  C   UNL     1      19.943  12.195  38.377  0.00  0.00    +0.000 A 
ATOM      9  C   UNL     1      19.479  10.918  38.550  0.00  0.00    +0.000 A 
ATOM     10  N   UNL     1      20.311   9.986  39.223  0.00  0.00    +0.000 NA
ATOM     11  N   UNL     1      18.287  10.499  38.121  0.00  0.00    +0.000 NA
ENDBRANCH   1   8
BRANCH   3  12
ATOM     12  C   UNL     1      23.619  13.357  39.111  0.00  0.00    +0.000 C 
ATOM     13  C   UNL     1      24.654  13.725  37.722  0.00  0.00    +0.000 C 
ATOM     14  C   UNL     1      25.003  12.363  38.761  0.00  0.00    +0.000 C 
BRANCH  14  15
ATOM     15  C   UNL     1      24.512  11.185  37.877  0.00  0.00    +0.000 A 
ATOM     16  C   UNL     1      24.554  11.188  36.544  0.00  0.00    +0.000 A 
ATOM     17  C   UNL     1      24.109  10.124  35.808  0.00  0.00    +0.000 A 
ATOM     18  C   UNL     1      23.605   9.026  36.456  0.00  0.00    +0.000 A 
ATOM     19  C   UNL     1      23.553   8.999  37.823  0.00  0.00    +0.000 A 
ATOM     20  C   UNL     1      24.021  10.115  38.555  0.00  0.00    +0.000 A 
ENDBRANCH  14  15
ENDBRANCH   3  12
TORSDOF 3
ENDMDL
MODEL 8
REMARK VINA RESULT:      -5.6     20.778     22.155
REMARK  Name = 
REMARK  3 active torsions:
REMARK  status: ('A' for Active; 'I' for Inactive)
REMARK    1  A    between atoms: C_5  and  C_6
REMARK    2  A    between atoms: N_8  and  C_9
REMARK    3  A    between atoms: C_11  and  C_12
REMARK                            x       y       z     vdW  Elec       q    Type
REMARK                         _______ _______ _______ _____ _____    ______ ____
ROOT
ATOM      1  C   UNL     1      18.483  10.625  37.931  0.00  0.00    +0.000 C 
ATOM      2  O   UNL     1      17.622  10.165  38.825  0.00  0.00    +0.000 OA
ATOM      3  N   UNL     1      19.700  10.919  38.455  0.00  0.00    +0.000 NA
ENDROOT
BRANCH   1   8
ATOM      4  C   UNL     1      16.390  10.854  32.639  0.00  0.00    +0.000 C 
ATOM      5  C   UNL     1      16.953  10.770  34.023  0.00  0.00    +0.000 A 
ATOM      6  C   UNL     1      17.766   9.754  34.417  0.00  0.00    +0.000 A 
ATOM      7  N   UNL     1      18.233   9.760  35.705  0.00  0.00    +0.000 NA
ATOM      8  C   UNL     1      17.937  10.715  36.607  0.00  0.00    +0.000 A 
ATOM      9  C   UNL     1      17.115  11.704  36.138  0.00  0.00    +0.000 A 
ATOM     10  N   UNL     1      16.751  12.752  37.022  0.00  0.00    +0.000 NA
ATOM     11  N   UNL     1      16.635  11.739  34.892  0.00  0.00    +0.000 NA
ENDBRANCH   1   8
BRANCH   3  12
ATOM     12  C   UNL     1      19.896  10.681  40.007  0.00  0.00    +0.000 C 
ATOM     13  C   UNL     1      21.053  11.994  40.279  0.00  0.00    +0.000 C 
ATOM     14  C   UNL     1      21.598  10.340  40.122  0.00  0.00    +0.000 C 
BRANCH  14  15
ATOM     15  C   UNL     1      22.169  10.353  38.679  0.00  0.00    +0.000 A 
ATOM     16  C   UNL     1      21.854   9.453  37.747  0.00  0.00    +0.000 A 
ATOM     17  C   UNL     1      22.385   9.507  36.487  0.00  0.00    +0.000 A 
ATOM     18  C   UNL     1      23.265  10.511  36.174  0.00  0.00    +0.000 A 
ATOM     19  C   UNL     1      23.602  11.447  37.113  0.00  0.00    +0.000 A 
ATOM     20  C   UNL     1      23.036  11.364  38.407  0.00  0.00    +0.000 A 
ENDBRANCH  14  15
ENDBRANCH   3  12
TORSDOF 3
ENDMDL
MODEL 9
REMARK VINA RESULT:      -5.6      4.226      5.634
REMARK  Name = 
REMARK  3 active torsions:
REMARK  status: ('A' for Active; 'I' for Inactive)
REMARK    1  A    between atoms: C_5  and  C_6
REMARK    2  A    between atoms: N_8  and  C_9
REMARK    3  A    between atoms: C_11  and  C_12
REMARK                            x       y       z     vdW  Elec       q    Type
REMARK                         _______ _______ _______ _____ _____    ______ ____
ROOT
ATOM      1  C   UNL     1      27.752  23.625  28.008  0.00  0.00    +0.000 C 
ATOM      2  O   UNL     1      27.280  22.807  28.936  0.00  0.00    +0.000 OA
ATOM      3  N   UNL     1      29.107  23.634  27.936  0.00  0.00    +0.000 NA
ENDROOT
BRANCH   1   8
ATOM      4  C   UNL     1      23.677  26.499  25.258  0.00  0.00    +0.000 C 
ATOM      5  C   UNL     1      24.747  25.764  26.001  0.00  0.00    +0.000 A 
ATOM      6  C   UNL     1      25.253  26.210  27.181  0.00  0.00    +0.000 A 
ATOM      7  N   UNL     1      26.232  25.470  27.789  0.00  0.00    +0.000 NA
ATOM      8  C   UNL     1      26.726  24.322  27.287  0.00  0.00    +0.000 A 
ATOM      9  C   UNL     1      26.169  23.936  26.099  0.00  0.00    +0.000 A 
ATOM     10  N   UNL     1      26.630  22.737  25.497  0.00  0.00    +0.000 NA
ATOM     11  N   UNL     1      25.213  24.625  25.470  0.00  0.00    +0.000 NA
ENDBRANCH   1   8
BRANCH   3  12
ATOM     12  C   UNL     1      29.893  22.702  28.946  0.00  0.00    +0.000 C 
ATOM     13  C   UNL     1      31.384  23.655  28.999  0.00  0.00    +0.000 C 
ATOM     14  C   UNL     1      31.277  22.218  28.010  0.00  0.00    +0.000 C 
BRANCH  14  15
ATOM     15  C   UNL     1      31.120  22.843  26.598  0.00  0.00    +0.000 A 
ATOM     16  C   UNL     1      31.747  23.952  26.201  0.00  0.00    +0.000 A 
ATOM     17  C   UNL     1      31.575  24.464  24.945  0.00  0.00    +0.000 A 
ATOM     18  C   UNL     1      30.737  23.823  24.069  0.00  0.00    +0.000 A 
ATOM     19  C   UNL     1      30.084  22.683  24.452  0.00  0.00    +0.000 A 
ATOM     20  C   UNL     1      30.282  22.179  25.759  0.00  0.00    +0.000 A 
ENDBRANCH  14  15
ENDBRANCH   3  12
TORSDOF 3
ENDMDL
MODEL 10
REMARK VINA RESULT:      -5.6      2.220      3.090
REMARK  Name = 
REMARK  3 active torsions:
REMARK  status: ('A' for Active; 'I' for Inactive)
REMARK    1  A    between atoms: C_5  and  C_6
REMARK    2  A    between atoms: N_8  and  C_9
REMARK    3  A    between atoms: C_11  and  C_12
REMARK                            x       y       z     vdW  Elec       q    Type
REMARK                         _______ _______ _______ _____ _____    ______ ____
ROOT
ATOM      1  C   UNL     1      26.457  24.840  25.109  0.00  0.00    +0.000 C 
ATOM      2  O   UNL     1      25.157  25.065  24.998  0.00  0.00    +0.000 OA
ATOM      3  N   UNL     1      26.818  24.354  26.324  0.00  0.00    +0.000 NA
ENDROOT
BRANCH   1   8
ATOM      4  C   UNL     1      29.437  26.255  20.467  0.00  0.00    +0.000 C 
ATOM      5  C   UNL     1      28.663  25.907  21.699  0.00  0.00    +0.000 A 
ATOM      6  C   UNL     1      28.658  26.700  22.804  0.00  0.00    +0.000 A 
ATOM      7  N   UNL     1      27.920  26.299  23.886  0.00  0.00    +0.000 NA
ATOM      8  C   UNL     1      27.196  25.164  23.923  0.00  0.00    +0.000 A 
ATOM      9  C   UNL     1      27.249  24.419  22.776  0.00  0.00    +0.000 A 
ATOM     10  N   UNL     1      26.515  23.206  22.727  0.00  0.00    +0.000 NA
ATOM     11  N   UNL     1      27.955  24.769  21.697  0.00  0.00    +0.000 NA
ENDBRANCH   1   8
BRANCH   3  12
ATOM     12  C   UNL     1      25.668  24.144  27.391  0.00  0.00    +0.000 C 
ATOM     13  C   UNL     1      26.451  25.011  28.721  0.00  0.00    +0.000 C 
ATOM     14  C   UNL     1      26.482  23.265  28.652  0.00  0.00    +0.000 C 
BRANCH  14  15
ATOM     15  C   UNL     1      27.937  23.014  28.174  0.00  0.00    +0.000 A 
ATOM     16  C   UNL     1      28.260  22.196  27.171  0.00  0.00    +0.000 A 
ATOM     17  C   UNL     1      29.559  22.008  26.787  0.00  0.00    +0.000 A 
ATOM     18  C   UNL     1      30.557  22.677  27.448  0.00  0.00    +0.000 A 
ATOM     19  C   UNL     1      30.250  23.522  28.479  0.00  0.00    +0.000 A 
ATOM     20  C   UNL     1      28.897  23.695  28.853  0.00  0.00    +0.000 A 
ENDBRANCH  14  15
ENDBRANCH   3  12
TORSDOF 3
ENDMDL
