MODEL 1
REMARK VINA RESULT:      -8.0      0.000      0.000
REMARK  Name = 
REMARK  3 active torsions:
REMARK  status: ('A' for Active; 'I' for Inactive)
REMARK    1  A    between atoms: C_6  and  C_7
REMARK    2  A    between atoms: N_9  and  C_10
REMARK    3  A    between atoms: C_15  and  C_16
REMARK                            x       y       z     vdW  Elec       q    Type
REMARK                         _______ _______ _______ _____ _____    ______ ____
ROOT
ATOM      1  C   UNL     1      15.510  12.022  36.464  0.00  0.00    +0.000 C 
ATOM      2  O   UNL     1      15.946  13.224  36.412  0.00  0.00    +0.000 OA
ATOM      3  N   UNL     1      14.693  11.665  35.376  0.00  0.00    +0.000 NA
ENDROOT
BRANCH   1   9
ATOM      4  C   UNL     1      16.786   8.783  41.020  0.00  0.00    +0.000 C 
ATOM      5  C   UNL     1      16.512   9.622  39.815  0.00  0.00    +0.000 A 
ATOM      6  C   UNL     1      17.485   9.936  38.899  0.00  0.00    +0.000 A 
ATOM      7  C   UNL     1      17.156  10.724  37.800  0.00  0.00    +0.000 A 
ATOM      8  C   UNL     1      18.227  11.039  36.838  0.00  0.00    +0.000 C 
ATOM      9  C   UNL     1      15.893  11.206  37.587  0.00  0.00    +0.000 A 
ATOM     10  C   UNL     1      14.947  10.869  38.526  0.00  0.00    +0.000 A 
ATOM     11  C   UNL     1      13.558  11.358  38.359  0.00  0.00    +0.000 C 
ATOM     12  C   UNL     1      15.229  10.095  39.625  0.00  0.00    +0.000 A 
ENDBRANCH   1   9
BRANCH   3  13
ATOM     13  C   UNL     1      14.381  12.582  34.304  0.00  0.00    +0.000 A 
ATOM     14  C   UNL     1      13.730  13.737  34.672  0.00  0.00    +0.000 A 
ATOM     15  C   UNL     1      13.367  14.706  33.771  0.00  0.00    +0.000 A 
ATOM     16  C   UNL     1      13.698  14.448  32.445  0.00  0.00    +0.000 A 
ATOM     17  C   UNL     1      14.343  13.306  32.066  0.00  0.00    +0.000 A 
ATOM     18  C   UNL     1      14.691  12.358  33.007  0.00  0.00    +0.000 A 
BRANCH  18  19
ATOM     19  C   UNL     1      15.383  11.130  32.610  0.00  0.00    +0.000 C 
ATOM     20  N   UNL     1      14.718   9.997  32.076  0.00  0.00    +0.000 NA
ATOM     21  O   UNL     1      16.620  11.070  32.745  0.00  0.00    +0.000 OA
ENDBRANCH  18  19
ENDBRANCH   3  13
TORSDOF 3
ENDMDL
MODEL 2
REMARK VINA RESULT:      -7.3      1.785      3.337
REMARK  Name = 
REMARK  3 active torsions:
REMARK  status: ('A' for Active; 'I' for Inactive)
REMARK    1  A    between atoms: C_6  and  C_7
REMARK    2  A    between atoms: N_9  and  C_10
REMARK    3  A    between atoms: C_15  and  C_16
REMARK                            x       y       z     vdW  Elec       q    Type
REMARK                         _______ _______ _______ _____ _____    ______ ____
ROOT
ATOM      1  C   UNL     1      15.726  11.182  34.855  0.00  0.00    +0.000 C 
ATOM      2  O   UNL     1      15.033  10.341  34.183  0.00  0.00    +0.000 OA
ATOM      3  N   UNL     1      15.779  12.465  34.279  0.00  0.00    +0.000 NA
ENDROOT
BRANCH   1   9
ATOM      4  C   UNL     1      18.389   9.305  39.573  0.00  0.00    +0.000 C 
ATOM      5  C   UNL     1      17.651   9.816  38.379  0.00  0.00    +0.000 A 
ATOM      6  C   UNL     1      16.453  10.480  38.482  0.00  0.00    +0.000 A 
ATOM      7  C   UNL     1      15.822  10.927  37.325  0.00  0.00    +0.000 A 
ATOM      8  C   UNL     1      14.539  11.636  37.477  0.00  0.00    +0.000 C 
ATOM      9  C   UNL     1      16.344  10.735  36.076  0.00  0.00    +0.000 A 
ATOM     10  C   UNL     1      17.544  10.067  36.014  0.00  0.00    +0.000 A 
ATOM     11  C   UNL     1      18.168   9.823  34.693  0.00  0.00    +0.000 C 
ATOM     12  C   UNL     1      18.201   9.608  37.131  0.00  0.00    +0.000 A 
ENDBRANCH   1   9
BRANCH   3  13
ATOM     13  C   UNL     1      15.110  12.790  33.041  0.00  0.00    +0.000 A 
ATOM     14  C   UNL     1      15.637  12.218  31.905  0.00  0.00    +0.000 A 
ATOM     15  C   UNL     1      15.113  12.429  30.654  0.00  0.00    +0.000 A 
ATOM     16  C   UNL     1      14.004  13.266  30.600  0.00  0.00    +0.000 A 
ATOM     17  C   UNL     1      13.471  13.840  31.719  0.00  0.00    +0.000 A 
ATOM     18  C   UNL     1      14.030  13.599  32.959  0.00  0.00    +0.000 A 
BRANCH  18  19
ATOM     19  C   UNL     1      13.465  14.209  34.163  0.00  0.00    +0.000 C 
ATOM     20  N   UNL     1      13.047  15.563  34.231  0.00  0.00    +0.000 NA
ATOM     21  O   UNL     1      13.343  13.510  35.187  0.00  0.00    +0.000 OA
ENDBRANCH  18  19
ENDBRANCH   3  13
TORSDOF 3
ENDMDL
MODEL 3
REMARK VINA RESULT:      -6.8      3.756      7.056
REMARK  Name = 
REMARK  3 active torsions:
REMARK  status: ('A' for Active; 'I' for Inactive)
REMARK    1  A    between atoms: C_6  and  C_7
REMARK    2  A    between atoms: N_9  and  C_10
REMARK    3  A    between atoms: C_15  and  C_16
REMARK                            x       y       z     vdW  Elec       q    Type
REMARK                         _______ _______ _______ _____ _____    ______ ____
ROOT
ATOM      1  C   UNL     1      18.170  10.199  37.201  0.00  0.00    +0.000 C 
ATOM      2  O   UNL     1      18.375   8.971  36.906  0.00  0.00    +0.000 OA
ATOM      3  N   UNL     1      19.323  10.881  37.631  0.00  0.00    +0.000 NA
ENDROOT
BRANCH   1   9
ATOM      4  C   UNL     1      12.811  12.216  36.905  0.00  0.00    +0.000 C 
ATOM      5  C   UNL     1      14.215  11.705  36.923  0.00  0.00    +0.000 A 
ATOM      6  C   UNL     1      15.030  11.753  35.820  0.00  0.00    +0.000 A 
ATOM      7  C   UNL     1      16.327  11.257  35.912  0.00  0.00    +0.000 A 
ATOM      8  C   UNL     1      17.173  11.326  34.706  0.00  0.00    +0.000 C 
ATOM      9  C   UNL     1      16.835  10.721  37.063  0.00  0.00    +0.000 A 
ATOM     10  C   UNL     1      15.988  10.692  38.145  0.00  0.00    +0.000 A 
ATOM     11  C   UNL     1      16.471  10.124  39.426  0.00  0.00    +0.000 C 
ATOM     12  C   UNL     1      14.700  11.169  38.098  0.00  0.00    +0.000 A 
ENDBRANCH   1   9
BRANCH   3  13
ATOM     13  C   UNL     1      20.615  10.241  37.727  0.00  0.00    +0.000 A 
ATOM     14  C   UNL     1      21.316  10.123  36.549  0.00  0.00    +0.000 A 
ATOM     15  C   UNL     1      22.556   9.540  36.477  0.00  0.00    +0.000 A 
ATOM     16  C   UNL     1      23.070   9.068  37.679  0.00  0.00    +0.000 A 
ATOM     17  C   UNL     1      22.385   9.178  38.856  0.00  0.00    +0.000 A 
ATOM     18  C   UNL     1      21.139   9.774  38.883  0.00  0.00    +0.000 A 
BRANCH  18  19
ATOM     19  C   UNL     1      20.398   9.896  40.139  0.00  0.00    +0.000 C 
ATOM     20  N   UNL     1      20.492  11.024  40.995  0.00  0.00    +0.000 NA
ATOM     21  O   UNL     1      19.642   8.967  40.481  0.00  0.00    +0.000 OA
ENDBRANCH  18  19
ENDBRANCH   3  13
TORSDOF 3
ENDMDL
MODEL 4
REMARK VINA RESULT:      -6.7     18.552     20.066
REMARK  Name = 
REMARK  3 active torsions:
REMARK  status: ('A' for Active; 'I' for Inactive)
REMARK    1  A    between atoms: C_6  and  C_7
REMARK    2  A    between atoms: N_9  and  C_10
REMARK    3  A    between atoms: C_15  and  C_16
REMARK                            x       y       z     vdW  Elec       q    Type
REMARK                         _______ _______ _______ _____ _____    ______ ____
ROOT
ATOM      1  C   UNL     1      26.446  24.987  26.749  0.00  0.00    +0.000 C 
ATOM      2  O   UNL     1      27.430  25.772  26.515  0.00  0.00    +0.000 OA
ATOM      3  N   UNL     1      26.650  23.669  26.299  0.00  0.00    +0.000 NA
ENDROOT
BRANCH   1   9
ATOM      4  C   UNL     1      21.960  27.066  29.651  0.00  0.00    +0.000 C 
ATOM      5  C   UNL     1      23.100  26.538  28.843  0.00  0.00    +0.000 A 
ATOM      6  C   UNL     1      23.097  26.548  27.470  0.00  0.00    +0.000 A 
ATOM      7  C   UNL     1      24.195  26.039  26.784  0.00  0.00    +0.000 A 
ATOM      8  C   UNL     1      24.154  26.067  25.311  0.00  0.00    +0.000 C 
ATOM      9  C   UNL     1      25.290  25.522  27.419  0.00  0.00    +0.000 A 
ATOM     10  C   UNL     1      25.256  25.531  28.794  0.00  0.00    +0.000 A 
ATOM     11  C   UNL     1      26.409  24.986  29.548  0.00  0.00    +0.000 C 
ATOM     12  C   UNL     1      24.192  26.023  29.511  0.00  0.00    +0.000 A 
ENDBRANCH   1   9
BRANCH   3  13
ATOM     13  C   UNL     1      27.864  23.253  25.635  0.00  0.00    +0.000 A 
ATOM     14  C   UNL     1      28.856  22.759  26.450  0.00  0.00    +0.000 A 
ATOM     15  C   UNL     1      30.066  22.323  25.970  0.00  0.00    +0.000 A 
ATOM     16  C   UNL     1      30.232  22.411  24.593  0.00  0.00    +0.000 A 
ATOM     17  C   UNL     1      29.256  22.899  23.771  0.00  0.00    +0.000 A 
ATOM     18  C   UNL     1      28.053  23.327  24.298  0.00  0.00    +0.000 A 
BRANCH  18  19
ATOM     19  C   UNL     1      27.001  23.851  23.426  0.00  0.00    +0.000 C 
ATOM     20  N   UNL     1      25.990  23.041  22.848  0.00  0.00    +0.000 NA
ATOM     21  O   UNL     1      26.986  25.071  23.173  0.00  0.00    +0.000 OA
ENDBRANCH  18  19
ENDBRANCH   3  13
TORSDOF 3
ENDMDL
MODEL 5
REMARK VINA RESULT:      -6.7      2.581      6.695
REMARK  Name = 
REMARK  3 active torsions:
REMARK  status: ('A' for Active; 'I' for Inactive)
REMARK    1  A    between atoms: C_6  and  C_7
REMARK    2  A    between atoms: N_9  and  C_10
REMARK    3  A    between atoms: C_15  and  C_16
REMARK                            x       y       z     vdW  Elec       q    Type
REMARK                         _______ _______ _______ _____ _____    ______ ____
ROOT
ATOM      1  C   UNL     1      16.900  10.470  36.401  0.00  0.00    +0.000 C 
ATOM      2  O   UNL     1      16.978   9.193  36.378  0.00  0.00    +0.000 OA
ATOM      3  N   UNL     1      17.450  11.054  37.558  0.00  0.00    +0.000 NA
ENDROOT
BRANCH   1   9
ATOM      4  C   UNL     1      14.274  13.232  32.118  0.00  0.00    +0.000 C 
ATOM      5  C   UNL     1      14.996  12.489  33.193  0.00  0.00    +0.000 A 
ATOM      6  C   UNL     1      16.078  11.683  32.933  0.00  0.00    +0.000 A 
ATOM      7  C   UNL     1      16.701  11.021  33.986  0.00  0.00    +0.000 A 
ATOM      8  C   UNL     1      17.859  10.166  33.666  0.00  0.00    +0.000 C 
ATOM      9  C   UNL     1      16.284  11.136  35.283  0.00  0.00    +0.000 A 
ATOM     10  C   UNL     1      15.199  11.952  35.503  0.00  0.00    +0.000 A 
ATOM     11  C   UNL     1      14.692  12.122  36.885  0.00  0.00    +0.000 C 
ATOM     12  C   UNL     1      14.553  12.623  34.493  0.00  0.00    +0.000 A 
ENDBRANCH   1   9
BRANCH   3  13
ATOM     13  C   UNL     1      18.044  10.271  38.616  0.00  0.00    +0.000 A 
ATOM     14  C   UNL     1      17.178   9.804  39.578  0.00  0.00    +0.000 A 
ATOM     15  C   UNL     1      17.589   9.046  40.645  0.00  0.00    +0.000 A 
ATOM     16  C   UNL     1      18.951   8.774  40.700  0.00  0.00    +0.000 A 
ATOM     17  C   UNL     1      19.823   9.230  39.753  0.00  0.00    +0.000 A 
ATOM     18  C   UNL     1      19.365   9.989  38.694  0.00  0.00    +0.000 A 
BRANCH  18  19
ATOM     19  C   UNL     1      20.291  10.483  37.674  0.00  0.00    +0.000 C 
ATOM     20  N   UNL     1      20.602   9.767  36.489  0.00  0.00    +0.000 NA
ATOM     21  O   UNL     1      20.840  11.588  37.848  0.00  0.00    +0.000 OA
ENDBRANCH  18  19
ENDBRANCH   3  13
TORSDOF 3
ENDMDL
MODEL 6
REMARK VINA RESULT:      -6.7      1.890      3.092
REMARK  Name = 
REMARK  3 active torsions:
REMARK  status: ('A' for Active; 'I' for Inactive)
REMARK    1  A    between atoms: C_6  and  C_7
REMARK    2  A    between atoms: N_9  and  C_10
REMARK    3  A    between atoms: C_15  and  C_16
REMARK                            x       y       z     vdW  Elec       q    Type
REMARK                         _______ _______ _______ _____ _____    ______ ____
ROOT
ATOM      1  C   UNL     1      17.149  10.215  35.940  0.00  0.00    +0.000 C 
ATOM      2  O   UNL     1      16.754   9.154  35.344  0.00  0.00    +0.000 OA
ATOM      3  N   UNL     1      16.888  11.400  35.227  0.00  0.00    +0.000 NA
ENDROOT
BRANCH   1   9
ATOM      4  C   UNL     1      19.463   9.713  41.162  0.00  0.00    +0.000 C 
ATOM      5  C   UNL     1      18.915   9.834  39.778  0.00  0.00    +0.000 A 
ATOM      6  C   UNL     1      19.702   9.705  38.660  0.00  0.00    +0.000 A 
ATOM      7  C   UNL     1      19.122   9.830  37.402  0.00  0.00    +0.000 A 
ATOM      8  C   UNL     1      20.000   9.685  36.226  0.00  0.00    +0.000 C 
ATOM      9  C   UNL     1      17.789  10.079  37.223  0.00  0.00    +0.000 A 
ATOM     10  C   UNL     1      17.035  10.202  38.365  0.00  0.00    +0.000 A 
ATOM     11  C   UNL     1      15.583  10.472  38.247  0.00  0.00    +0.000 C 
ATOM     12  C   UNL     1      17.567  10.086  39.627  0.00  0.00    +0.000 A 
ENDBRANCH   1   9
BRANCH   3  13
ATOM     13  C   UNL     1      16.234  11.404  33.939  0.00  0.00    +0.000 A 
ATOM     14  C   UNL     1      16.857  10.682  32.947  0.00  0.00    +0.000 A 
ATOM     15  C   UNL     1      16.359  10.588  31.671  0.00  0.00    +0.000 A 
ATOM     16  C   UNL     1      15.174  11.275  31.436  0.00  0.00    +0.000 A 
ATOM     17  C   UNL     1      14.545  11.995  32.411  0.00  0.00    +0.000 A 
ATOM     18  C   UNL     1      15.080  12.062  33.682  0.00  0.00    +0.000 A 
BRANCH  18  19
ATOM     19  C   UNL     1      14.414  12.831  34.734  0.00  0.00    +0.000 C 
ATOM     20  N   UNL     1      13.864  14.122  34.528  0.00  0.00    +0.000 NA
ATOM     21  O   UNL     1      14.321  12.333  35.872  0.00  0.00    +0.000 OA
ENDBRANCH  18  19
ENDBRANCH   3  13
TORSDOF 3
ENDMDL
MODEL 7
REMARK VINA RESULT:      -6.7     18.335     19.778
REMARK  Name = 
REMARK  3 active torsions:
REMARK  status: ('A' for Active; 'I' for Inactive)
REMARK    1  A    between atoms: C_6  and  C_7
REMARK    2  A    between atoms: N_9  and  C_10
REMARK    3  A    between atoms: C_15  and  C_16
REMARK                            x       y       z     vdW  Elec       q    Type
REMARK                         _______ _______ _______ _____ _____    ______ ____
ROOT
ATOM      1  C   UNL     1      28.507  23.212  27.606  0.00  0.00    +0.000 C 
ATOM      2  O   UNL     1      28.294  24.448  27.348  0.00  0.00    +0.000 OA
ATOM      3  N   UNL     1      28.179  22.345  26.547  0.00  0.00    +0.000 NA
ENDROOT
BRANCH   1   9
ATOM      4  C   UNL     1      30.864  21.849  32.651  0.00  0.00    +0.000 C 
ATOM      5  C   UNL     1      30.195  22.201  31.363  0.00  0.00    +0.000 A 
ATOM      6  C   UNL     1      28.831  22.306  31.246  0.00  0.00    +0.000 A 
ATOM      7  C   UNL     1      28.278  22.638  30.013  0.00  0.00    +0.000 A 
ATOM      8  C   UNL     1      26.810  22.741  29.927  0.00  0.00    +0.000 C 
ATOM      9  C   UNL     1      29.038  22.867  28.899  0.00  0.00    +0.000 A 
ATOM     10  C   UNL     1      30.398  22.752  29.057  0.00  0.00    +0.000 A 
ATOM     11  C   UNL     1      31.283  22.986  27.891  0.00  0.00    +0.000 C 
ATOM     12  C   UNL     1      30.986  22.426  30.255  0.00  0.00    +0.000 A 
ENDBRANCH   1   9
BRANCH   3  13
ATOM     13  C   UNL     1      27.650  22.819  25.289  0.00  0.00    +0.000 A 
ATOM     14  C   UNL     1      26.278  22.842  25.185  0.00  0.00    +0.000 A 
ATOM     15  C   UNL     1      25.624  23.267  24.055  0.00  0.00    +0.000 A 
ATOM     16  C   UNL     1      26.441  23.677  23.007  0.00  0.00    +0.000 A 
ATOM     17  C   UNL     1      27.803  23.660  23.097  0.00  0.00    +0.000 A 
ATOM     18  C   UNL     1      28.420  23.226  24.254  0.00  0.00    +0.000 A 
BRANCH  18  19
ATOM     19  C   UNL     1      29.879  23.204  24.359  0.00  0.00    +0.000 C 
ATOM     20  N   UNL     1      30.672  24.374  24.477  0.00  0.00    +0.000 NA
ATOM     21  O   UNL     1      30.464  22.103  24.345  0.00  0.00    +0.000 OA
ENDBRANCH  18  19
ENDBRANCH   3  13
TORSDOF 3
ENDMDL
MODEL 8
REMARK VINA RESULT:      -6.6     18.205     20.608
REMARK  Name = 
REMARK  3 active torsions:
REMARK  status: ('A' for Active; 'I' for Inactive)
REMARK    1  A    between atoms: C_6  and  C_7
REMARK    2  A    between atoms: N_9  and  C_10
REMARK    3  A    between atoms: C_15  and  C_16
REMARK                            x       y       z     vdW  Elec       q    Type
REMARK                         _______ _______ _______ _____ _____    ______ ____
ROOT
ATOM      1  C   UNL     1      28.650  22.691  26.949  0.00  0.00    +0.000 C 
ATOM      2  O   UNL     1      28.444  21.495  27.357  0.00  0.00    +0.000 OA
ATOM      3  N   UNL     1      29.357  23.491  27.865  0.00  0.00    +0.000 NA
ENDROOT
BRANCH   1   9
ATOM      4  C   UNL     1      26.909  24.106  21.673  0.00  0.00    +0.000 C 
ATOM      5  C   UNL     1      27.307  23.754  23.068  0.00  0.00    +0.000 A 
ATOM      6  C   UNL     1      26.453  23.889  24.135  0.00  0.00    +0.000 A 
ATOM      7  C   UNL     1      26.895  23.541  25.407  0.00  0.00    +0.000 A 
ATOM      8  C   UNL     1      25.949  23.700  26.527  0.00  0.00    +0.000 C 
ATOM      9  C   UNL     1      28.154  23.063  25.650  0.00  0.00    +0.000 A 
ATOM     10  C   UNL     1      28.978  22.942  24.556  0.00  0.00    +0.000 A 
ATOM     11  C   UNL     1      30.357  22.431  24.745  0.00  0.00    +0.000 C 
ATOM     12  C   UNL     1      28.583  23.275  23.283  0.00  0.00    +0.000 A 
ENDBRANCH   1   9
BRANCH   3  13
ATOM     13  C   UNL     1      29.804  22.997  29.147  0.00  0.00    +0.000 A 
ATOM     14  C   UNL     1      31.088  22.505  29.186  0.00  0.00    +0.000 A 
ATOM     15  C   UNL     1      31.657  22.001  30.329  0.00  0.00    +0.000 A 
ATOM     16  C   UNL     1      30.848  22.015  31.460  0.00  0.00    +0.000 A 
ATOM     17  C   UNL     1      29.572  22.500  31.435  0.00  0.00    +0.000 A 
ATOM     18  C   UNL     1      29.039  22.999  30.263  0.00  0.00    +0.000 A 
BRANCH  18  19
ATOM     19  C   UNL     1      27.673  23.521  30.226  0.00  0.00    +0.000 C 
ATOM     20  N   UNL     1      26.530  22.705  30.022  0.00  0.00    +0.000 NA
ATOM     21  O   UNL     1      27.495  24.744  30.381  0.00  0.00    +0.000 OA
ENDBRANCH  18  19
ENDBRANCH   3  13
TORSDOF 3
ENDMDL
MODEL 9
REMARK VINA RESULT:      -6.6     18.977     21.306
REMARK  Name = 
REMARK  3 active torsions:
REMARK  status: ('A' for Active; 'I' for Inactive)
REMARK    1  A    between atoms: C_6  and  C_7
REMARK    2  A    between atoms: N_9  and  C_10
REMARK    3  A    between atoms: C_15  and  C_16
REMARK                            x       y       z     vdW  Elec       q    Type
REMARK                         _______ _______ _______ _____ _____    ______ ____
ROOT
ATOM      1  C   UNL     1      30.032  22.508  26.739  0.00  0.00    +0.000 C 
ATOM      2  O   UNL     1      30.127  21.245  26.919  0.00  0.00    +0.000 OA
ATOM      3  N   UNL     1      30.497  23.275  27.824  0.00  0.00    +0.000 NA
ENDROOT
BRANCH   1   9
ATOM      4  C   UNL     1      27.598  24.359  21.889  0.00  0.00    +0.000 C 
ATOM      5  C   UNL     1      28.287  23.884  23.126  0.00  0.00    +0.000 A 
ATOM      6  C   UNL     1      29.654  23.814  23.228  0.00  0.00    +0.000 A 
ATOM      7  C   UNL     1      30.226  23.361  24.413  0.00  0.00    +0.000 A 
ATOM      8  C   UNL     1      31.697  23.299  24.483  0.00  0.00    +0.000 C 
ATOM      9  C   UNL     1      29.481  22.980  25.495  0.00  0.00    +0.000 A 
ATOM     10  C   UNL     1      28.116  23.066  25.355  0.00  0.00    +0.000 A 
ATOM     11  C   UNL     1      27.247  22.669  26.488  0.00  0.00    +0.000 C 
ATOM     12  C   UNL     1      27.511  23.506  24.203  0.00  0.00    +0.000 A 
ENDBRANCH   1   9
BRANCH   3  13
ATOM     13  C   UNL     1      31.031  22.677  29.026  0.00  0.00    +0.000 A 
ATOM     14  C   UNL     1      32.325  22.217  28.944  0.00  0.00    +0.000 A 
ATOM     15  C   UNL     1      32.973  21.626  30.000  0.00  0.00    +0.000 A 
ATOM     16  C   UNL     1      32.234  21.517  31.173  0.00  0.00    +0.000 A 
ATOM     17  C   UNL     1      30.949  21.969  31.268  0.00  0.00    +0.000 A 
ATOM     18  C   UNL     1      30.336  22.559  30.180  0.00  0.00    +0.000 A 
BRANCH  18  19
ATOM     19  C   UNL     1      28.960  23.047  30.273  0.00  0.00    +0.000 C 
ATOM     20  N   UNL     1      28.625  24.374  30.644  0.00  0.00    +0.000 NA
ATOM     21  O   UNL     1      28.028  22.262  30.014  0.00  0.00    +0.000 OA
ENDBRANCH  18  19
ENDBRANCH   3  13
TORSDOF 3
ENDMDL
MODEL 10
REMARK VINA RESULT:      -6.6     20.491     22.640
REMARK  Name = 
REMARK  3 active torsions:
REMARK  status: ('A' for Active; 'I' for Inactive)
REMARK    1  A    between atoms: C_6  and  C_7
REMARK    2  A    between atoms: N_9  and  C_10
REMARK    3  A    between atoms: C_15  and  C_16
REMARK                            x       y       z     vdW  Elec       q    Type
REMARK                         _______ _______ _______ _____ _____    ______ ____
ROOT
ATOM      1  C   UNL     1      33.565   0.385  35.117  0.00  0.00    +0.000 C 
ATOM      2  O   UNL     1      32.374  -0.064  35.252  0.00  0.00    +0.000 OA
ATOM      3  N   UNL     1      34.519  -0.609  34.831  0.00  0.00    +0.000 NA
ENDROOT
BRANCH   1   9
ATOM      4  C   UNL     1      34.404   6.046  35.453  0.00  0.00    +0.000 C 
ATOM      5  C   UNL     1      34.191   4.568  35.427  0.00  0.00    +0.000 A 
ATOM      6  C   UNL     1      34.185   3.804  36.567  0.00  0.00    +0.000 A 
ATOM      7  C   UNL     1      33.980   2.432  36.465  0.00  0.00    +0.000 A 
ATOM      8  C   UNL     1      33.981   1.645  37.711  0.00  0.00    +0.000 C 
ATOM      9  C   UNL     1      33.781   1.800  35.268  0.00  0.00    +0.000 A 
ATOM     10  C   UNL     1      33.793   2.599  34.149  0.00  0.00    +0.000 A 
ATOM     11  C   UNL     1      33.585   1.983  32.818  0.00  0.00    +0.000 C 
ATOM     12  C   UNL     1      33.993   3.958  34.205  0.00  0.00    +0.000 A 
ENDBRANCH   1   9
BRANCH   3  13
ATOM     13  C   UNL     1      34.173  -2.006  34.704  0.00  0.00    +0.000 A 
ATOM     14  C   UNL     1      33.724  -2.403  33.466  0.00  0.00    +0.000 A 
ATOM     15  C   UNL     1      33.357  -3.697  33.187  0.00  0.00    +0.000 A 
ATOM     16  C   UNL     1      33.467  -4.593  34.244  0.00  0.00    +0.000 A 
ATOM     17  C   UNL     1      33.912  -4.213  35.478  0.00  0.00    +0.000 A 
ATOM     18  C   UNL     1      34.271  -2.901  35.714  0.00  0.00    +0.000 A 
BRANCH  18  19
ATOM     19  C   UNL     1      34.749  -2.483  37.033  0.00  0.00    +0.000 C 
ATOM     20  N   UNL     1      33.891  -2.017  38.062  0.00  0.00    +0.000 NA
ATOM     21  O   UNL     1      35.970  -2.536  37.272  0.00  0.00    +0.000 OA
ENDBRANCH  18  19
ENDBRANCH   3  13
TORSDOF 3
ENDMDL
