MODEL 1
REMARK VINA RESULT:      -6.0      0.000      0.000
REMARK  Name = 
REMARK  3 active torsions:
REMARK  status: ('A' for Active; 'I' for Inactive)
REMARK    1  A    between atoms: C_6  and  C_7
REMARK    2  A    between atoms: N_9  and  C_10
REMARK    3  A    between atoms: C_10  and  C_11
REMARK                            x       y       z     vdW  Elec       q    Type
REMARK                         _______ _______ _______ _____ _____    ______ ____
ROOT
ATOM      1  N   UNL     1      15.981  -9.310  22.571  0.00  0.00    +0.000 NA
ATOM      2  C   UNL     1      14.634  -9.060  23.045  0.00  0.00    +0.000 A 
ATOM      3  S   UNL     1      13.181  -8.998  22.164  0.00  0.00    +0.000 S 
ATOM      4  C   UNL     1      12.106  -8.666  23.435  0.00  0.00    +0.000 A 
ATOM      5  C   UNL     1      12.922  -8.609  24.538  0.00  0.00    +0.000 A 
ATOM      6  C   UNL     1      14.239  -8.815  24.341  0.00  0.00    +0.000 A 
ATOM      7  C   UNL     1      12.396  -8.329  25.946  0.00  0.00    +0.000 C 
ATOM      8  C   UNL     1      11.184  -9.150  26.235  0.00  0.00    +0.000 C 
ATOM      9  C   UNL     1      10.911 -10.121  25.108  0.00  0.00    +0.000 C 
ATOM     10  C   UNL     1       9.883  -9.466  24.202  0.00  0.00    +0.000 C 
ATOM     11  C   UNL     1      10.607  -8.480  23.337  0.00  0.00    +0.000 C 
ENDROOT
BRANCH   6  12
ATOM     12  C   UNL     1      15.247  -8.783  25.445  0.00  0.00    +0.000 C 
ATOM     13  O   UNL     1      15.565  -9.827  26.057  0.00  0.00    +0.000 OA
ATOM     14  N   UNL     1      15.889  -7.589  25.857  0.00  0.00    +0.000 NA
BRANCH  14  15
ATOM     15  C   UNL     1      16.859  -7.514  26.909  0.00  0.00    +0.000 C 
BRANCH  15  16
ATOM     16  C   UNL     1      17.952  -6.531  26.571  0.00  0.00    +0.000 A 
ATOM     17  C   UNL     1      19.167  -6.830  25.994  0.00  0.00    +0.000 A 
ATOM     18  C   UNL     1      19.859  -5.646  25.861  0.00  0.00    +0.000 A 
ATOM     19  C   UNL     1      19.024  -4.681  26.366  0.00  0.00    +0.000 A 
ATOM     20  O   UNL     1      17.937  -5.241  26.762  0.00  0.00    +0.000 OA
ENDBRANCH  15  16
ENDBRANCH  14  15
ENDBRANCH   6  12
TORSDOF 3
ENDMDL
MODEL 2
REMARK VINA RESULT:      -6.0     33.460     34.310
REMARK  Name = 
REMARK  3 active torsions:
REMARK  status: ('A' for Active; 'I' for Inactive)
REMARK    1  A    between atoms: C_6  and  C_7
REMARK    2  A    between atoms: N_9  and  C_10
REMARK    3  A    between atoms: C_10  and  C_11
REMARK                            x       y       z     vdW  Elec       q    Type
REMARK                         _______ _______ _______ _____ _____    ______ ____
ROOT
ATOM      1  N   UNL     1      25.546  24.576  30.362  0.00  0.00    +0.000 NA
ATOM      2  C   UNL     1      26.006  24.112  29.068  0.00  0.00    +0.000 A 
ATOM      3  S   UNL     1      25.437  24.518  27.519  0.00  0.00    +0.000 S 
ATOM      4  C   UNL     1      26.489  23.566  26.585  0.00  0.00    +0.000 A 
ATOM      5  C   UNL     1      27.274  22.942  27.523  0.00  0.00    +0.000 A 
ATOM      6  C   UNL     1      27.028  23.223  28.818  0.00  0.00    +0.000 A 
ATOM      7  C   UNL     1      28.390  21.965  27.154  0.00  0.00    +0.000 C 
ATOM      8  C   UNL     1      29.231  22.510  26.048  0.00  0.00    +0.000 C 
ATOM      9  C   UNL     1      28.824  23.927  25.711  0.00  0.00    +0.000 C 
ATOM     10  C   UNL     1      27.866  23.841  24.536  0.00  0.00    +0.000 C 
ATOM     11  C   UNL     1      26.523  23.456  25.076  0.00  0.00    +0.000 C 
ENDROOT
BRANCH   6  12
ATOM     12  C   UNL     1      27.800  22.621  29.948  0.00  0.00    +0.000 C 
ATOM     13  O   UNL     1      27.356  21.635  30.578  0.00  0.00    +0.000 OA
ATOM     14  N   UNL     1      29.057  23.125  30.366  0.00  0.00    +0.000 NA
BRANCH  14  15
ATOM     15  C   UNL     1      29.829  22.578  31.443  0.00  0.00    +0.000 C 
BRANCH  15  16
ATOM     16  C   UNL     1      31.154  22.055  30.950  0.00  0.00    +0.000 A 
ATOM     17  C   UNL     1      31.623  22.118  29.655  0.00  0.00    +0.000 A 
ATOM     18  C   UNL     1      32.868  21.526  29.642  0.00  0.00    +0.000 A 
ATOM     19  C   UNL     1      33.093  21.131  30.938  0.00  0.00    +0.000 A 
ATOM     20  O   UNL     1      32.076  21.458  31.653  0.00  0.00    +0.000 OA
ENDBRANCH  15  16
ENDBRANCH  14  15
ENDBRANCH   6  12
TORSDOF 3
ENDMDL
MODEL 3
REMARK VINA RESULT:      -5.9     33.408     34.798
REMARK  Name = 
REMARK  3 active torsions:
REMARK  status: ('A' for Active; 'I' for Inactive)
REMARK    1  A    between atoms: C_6  and  C_7
REMARK    2  A    between atoms: N_9  and  C_10
REMARK    3  A    between atoms: C_10  and  C_11
REMARK                            x       y       z     vdW  Elec       q    Type
REMARK                         _______ _______ _______ _____ _____    ______ ____
ROOT
ATOM      1  N   UNL     1      26.058  22.702  30.026  0.00  0.00    +0.000 NA
ATOM      2  C   UNL     1      27.461  22.910  29.725  0.00  0.00    +0.000 A 
ATOM      3  S   UNL     1      28.815  22.700  30.731  0.00  0.00    +0.000 S 
ATOM      4  C   UNL     1      30.037  23.143  29.638  0.00  0.00    +0.000 A 
ATOM      5  C   UNL     1      29.345  23.450  28.492  0.00  0.00    +0.000 A 
ATOM      6  C   UNL     1      28.003  23.329  28.531  0.00  0.00    +0.000 A 
ATOM      7  C   UNL     1      30.032  23.911  27.207  0.00  0.00    +0.000 C 
ATOM      8  C   UNL     1      31.207  23.047  26.891  0.00  0.00    +0.000 C 
ATOM      9  C   UNL     1      31.293  21.884  27.855  0.00  0.00    +0.000 C 
ATOM     10  C   UNL     1      32.266  22.291  28.948  0.00  0.00    +0.000 C 
ATOM     11  C   UNL     1      31.527  23.180  29.901  0.00  0.00    +0.000 C 
ENDROOT
BRANCH   6  12
ATOM     12  C   UNL     1      27.120  23.628  27.363  0.00  0.00    +0.000 C 
ATOM     13  O   UNL     1      26.519  24.722  27.272  0.00  0.00    +0.000 OA
ATOM     14  N   UNL     1      26.912  22.704  26.308  0.00  0.00    +0.000 NA
BRANCH  14  15
ATOM     15  C   UNL     1      26.074  22.949  25.172  0.00  0.00    +0.000 C 
BRANCH  15  16
ATOM     16  C   UNL     1      26.898  23.279  23.952  0.00  0.00    +0.000 A 
ATOM     17  C   UNL     1      28.269  23.408  23.906  0.00  0.00    +0.000 A 
ATOM     18  C   UNL     1      28.608  23.713  22.605  0.00  0.00    +0.000 A 
ATOM     19  C   UNL     1      27.417  23.754  21.923  0.00  0.00    +0.000 A 
ATOM     20  O   UNL     1      26.461  23.497  22.743  0.00  0.00    +0.000 OA
ENDBRANCH  15  16
ENDBRANCH  14  15
ENDBRANCH   6  12
TORSDOF 3
ENDMDL
MODEL 4
REMARK VINA RESULT:      -5.8     33.729     35.006
REMARK  Name = 
REMARK  3 active torsions:
REMARK  status: ('A' for Active; 'I' for Inactive)
REMARK    1  A    between atoms: C_6  and  C_7
REMARK    2  A    between atoms: N_9  and  C_10
REMARK    3  A    between atoms: C_10  and  C_11
REMARK                            x       y       z     vdW  Elec       q    Type
REMARK                         _______ _______ _______ _____ _____    ______ ____
ROOT
ATOM      1  N   UNL     1      29.789  24.161  22.635  0.00  0.00    +0.000 NA
ATOM      2  C   UNL     1      29.847  23.558  23.953  0.00  0.00    +0.000 A 
ATOM      3  S   UNL     1      31.202  23.035  24.835  0.00  0.00    +0.000 S 
ATOM      4  C   UNL     1      30.418  22.473  26.231  0.00  0.00    +0.000 A 
ATOM      5  C   UNL     1      29.091  22.712  25.971  0.00  0.00    +0.000 A 
ATOM      6  C   UNL     1      28.787  23.278  24.787  0.00  0.00    +0.000 A 
ATOM      7  C   UNL     1      27.976  22.365  26.959  0.00  0.00    +0.000 C 
ATOM      8  C   UNL     1      28.327  22.816  28.337  0.00  0.00    +0.000 C 
ATOM      9  C   UNL     1      29.616  23.607  28.333  0.00  0.00    +0.000 C 
ATOM     10  C   UNL     1      30.728  22.637  28.691  0.00  0.00    +0.000 C 
ATOM     11  C   UNL     1      31.062  21.858  27.456  0.00  0.00    +0.000 C 
ENDROOT
BRANCH   6  12
ATOM     12  C   UNL     1      27.388  23.596  24.365  0.00  0.00    +0.000 C 
ATOM     13  O   UNL     1      26.745  22.817  23.627  0.00  0.00    +0.000 OA
ATOM     14  N   UNL     1      26.722  24.780  24.768  0.00  0.00    +0.000 NA
BRANCH  14  15
ATOM     15  C   UNL     1      25.384  25.124  24.387  0.00  0.00    +0.000 C 
BRANCH  15  16
ATOM     16  C   UNL     1      24.592  25.617  25.572  0.00  0.00    +0.000 A 
ATOM     17  C   UNL     1      24.829  25.309  26.895  0.00  0.00    +0.000 A 
ATOM     18  C   UNL     1      23.877  25.966  27.644  0.00  0.00    +0.000 A 
ATOM     19  C   UNL     1      23.106  26.644  26.734  0.00  0.00    +0.000 A 
ATOM     20  O   UNL     1      23.558  26.411  25.553  0.00  0.00    +0.000 OA
ENDBRANCH  15  16
ENDBRANCH  14  15
ENDBRANCH   6  12
TORSDOF 3
ENDMDL
MODEL 5
REMARK VINA RESULT:      -5.6     18.772     20.119
REMARK  Name = 
REMARK  3 active torsions:
REMARK  status: ('A' for Active; 'I' for Inactive)
REMARK    1  A    between atoms: C_6  and  C_7
REMARK    2  A    between atoms: N_9  and  C_10
REMARK    3  A    between atoms: C_10  and  C_11
REMARK                            x       y       z     vdW  Elec       q    Type
REMARK                         _______ _______ _______ _____ _____    ______ ____
ROOT
ATOM      1  N   UNL     1      30.437  -7.968  33.549  0.00  0.00    +0.000 NA
ATOM      2  C   UNL     1      31.415  -7.781  32.495  0.00  0.00    +0.000 A 
ATOM      3  S   UNL     1      31.537  -8.568  30.994  0.00  0.00    +0.000 S 
ATOM      4  C   UNL     1      32.915  -7.784  30.387  0.00  0.00    +0.000 A 
ATOM      5  C   UNL     1      33.253  -6.909  31.390  0.00  0.00    +0.000 A 
ATOM      6  C   UNL     1      32.475  -6.902  32.490  0.00  0.00    +0.000 A 
ATOM      7  C   UNL     1      34.453  -5.966  31.299  0.00  0.00    +0.000 C 
ATOM      8  C   UNL     1      34.494  -5.282  29.974  0.00  0.00    +0.000 C 
ATOM      9  C   UNL     1      33.262  -5.611  29.160  0.00  0.00    +0.000 C 
ATOM     10  C   UNL     1      33.636  -6.760  28.241  0.00  0.00    +0.000 C 
ATOM     11  C   UNL     1      33.585  -8.020  29.050  0.00  0.00    +0.000 C 
ENDROOT
BRANCH   6  12
ATOM     12  C   UNL     1      32.720  -6.005  33.661  0.00  0.00    +0.000 C 
ATOM     13  O   UNL     1      33.585  -6.288  34.519  0.00  0.00    +0.000 OA
ATOM     14  N   UNL     1      31.996  -4.804  33.865  0.00  0.00    +0.000 NA
BRANCH  14  15
ATOM     15  C   UNL     1      32.198  -3.917  34.973  0.00  0.00    +0.000 C 
BRANCH  15  16
ATOM     16  C   UNL     1      32.683  -2.568  34.505  0.00  0.00    +0.000 A 
ATOM     17  C   UNL     1      33.642  -2.336  33.542  0.00  0.00    +0.000 A 
ATOM     18  C   UNL     1      33.781  -0.970  33.425  0.00  0.00    +0.000 A 
ATOM     19  C   UNL     1      32.895  -0.438  34.328  0.00  0.00    +0.000 A 
ATOM     20  O   UNL     1      32.286  -1.399  34.926  0.00  0.00    +0.000 OA
ENDBRANCH  15  16
ENDBRANCH  14  15
ENDBRANCH   6  12
TORSDOF 3
ENDMDL
MODEL 6
REMARK VINA RESULT:      -5.6     33.939     34.900
REMARK  Name = 
REMARK  3 active torsions:
REMARK  status: ('A' for Active; 'I' for Inactive)
REMARK    1  A    between atoms: C_6  and  C_7
REMARK    2  A    between atoms: N_9  and  C_10
REMARK    3  A    between atoms: C_10  and  C_11
REMARK                            x       y       z     vdW  Elec       q    Type
REMARK                         _______ _______ _______ _____ _____    ______ ____
ROOT
ATOM      1  N   UNL     1      28.086  22.481  28.878  0.00  0.00    +0.000 NA
ATOM      2  C   UNL     1      28.547  22.630  27.511  0.00  0.00    +0.000 A 
ATOM      3  S   UNL     1      27.641  22.681  26.074  0.00  0.00    +0.000 S 
ATOM      4  C   UNL     1      28.908  22.871  24.960  0.00  0.00    +0.000 A 
ATOM      5  C   UNL     1      30.030  22.891  25.753  0.00  0.00    +0.000 A 
ATOM      6  C   UNL     1      29.848  22.766  27.082  0.00  0.00    +0.000 A 
ATOM      7  C   UNL     1      31.442  23.046  25.187  0.00  0.00    +0.000 C 
ATOM      8  C   UNL     1      31.495  24.146  24.181  0.00  0.00    +0.000 C 
ATOM      9  C   UNL     1      30.174  24.878  24.115  0.00  0.00    +0.000 C 
ATOM     10  C   UNL     1      29.390  24.270  22.965  0.00  0.00    +0.000 C 
ATOM     11  C   UNL     1      28.792  22.988  23.455  0.00  0.00    +0.000 C 
ENDROOT
BRANCH   6  12
ATOM     12  C   UNL     1      30.973  22.770  28.067  0.00  0.00    +0.000 C 
ATOM     13  O   UNL     1      31.413  23.841  28.538  0.00  0.00    +0.000 OA
ATOM     14  N   UNL     1      31.597  21.578  28.514  0.00  0.00    +0.000 NA
BRANCH  14  15
ATOM     15  C   UNL     1      32.677  21.536  29.455  0.00  0.00    +0.000 C 
BRANCH  15  16
ATOM     16  C   UNL     1      32.161  21.534  30.873  0.00  0.00    +0.000 A 
ATOM     17  C   UNL     1      32.924  21.438  32.017  0.00  0.00    +0.000 A 
ATOM     18  C   UNL     1      32.058  21.473  33.089  0.00  0.00    +0.000 A 
ATOM     19  C   UNL     1      30.806  21.588  32.539  0.00  0.00    +0.000 A 
ATOM     20  O   UNL     1      30.918  21.619  31.258  0.00  0.00    +0.000 OA
ENDBRANCH  15  16
ENDBRANCH  14  15
ENDBRANCH   6  12
TORSDOF 3
ENDMDL
MODEL 7
REMARK VINA RESULT:      -5.5     22.457     23.308
REMARK  Name = 
REMARK  3 active torsions:
REMARK  status: ('A' for Active; 'I' for Inactive)
REMARK    1  A    between atoms: C_6  and  C_7
REMARK    2  A    between atoms: N_9  and  C_10
REMARK    3  A    between atoms: C_10  and  C_11
REMARK                            x       y       z     vdW  Elec       q    Type
REMARK                         _______ _______ _______ _____ _____    ______ ____
ROOT
ATOM      1  N   UNL     1      22.123   7.471  40.587  0.00  0.00    +0.000 NA
ATOM      2  C   UNL     1      20.673   7.491  40.612  0.00  0.00    +0.000 A 
ATOM      3  S   UNL     1      19.594   6.311  41.189  0.00  0.00    +0.000 S 
ATOM      4  C   UNL     1      18.127   7.098  40.857  0.00  0.00    +0.000 A 
ATOM      5  C   UNL     1      18.522   8.286  40.292  0.00  0.00    +0.000 A 
ATOM      6  C   UNL     1      19.847   8.497  40.163  0.00  0.00    +0.000 A 
ATOM      7  C   UNL     1      17.531   9.350  39.819  0.00  0.00    +0.000 C 
ATOM      8  C   UNL     1      16.473   9.586  40.844  0.00  0.00    +0.000 C 
ATOM      9  C   UNL     1      16.767   8.809  42.109  0.00  0.00    +0.000 C 
ATOM     10  C   UNL     1      15.975   7.516  42.024  0.00  0.00    +0.000 C 
ATOM     11  C   UNL     1      16.731   6.581  41.132  0.00  0.00    +0.000 C 
ENDROOT
BRANCH   6  12
ATOM     12  C   UNL     1      20.424   9.741  39.567  0.00  0.00    +0.000 C 
ATOM     13  O   UNL     1      20.664  10.743  40.276  0.00  0.00    +0.000 OA
ATOM     14  N   UNL     1      20.726   9.856  38.187  0.00  0.00    +0.000 NA
BRANCH  14  15
ATOM     15  C   UNL     1      21.279  11.028  37.576  0.00  0.00    +0.000 C 
BRANCH  15  16
ATOM     16  C   UNL     1      22.701  10.789  37.133  0.00  0.00    +0.000 A 
ATOM     17  C   UNL     1      23.098  10.103  36.006  0.00  0.00    +0.000 A 
ATOM     18  C   UNL     1      24.476  10.120  35.981  0.00  0.00    +0.000 A 
ATOM     19  C   UNL     1      24.848  10.820  37.101  0.00  0.00    +0.000 A 
ATOM     20  O   UNL     1      23.789  11.184  37.733  0.00  0.00    +0.000 OA
ENDBRANCH  15  16
ENDBRANCH  14  15
ENDBRANCH   6  12
TORSDOF 3
ENDMDL
MODEL 8
REMARK VINA RESULT:      -5.4     33.371     35.256
REMARK  Name = 
REMARK  3 active torsions:
REMARK  status: ('A' for Active; 'I' for Inactive)
REMARK    1  A    between atoms: C_6  and  C_7
REMARK    2  A    between atoms: N_9  and  C_10
REMARK    3  A    between atoms: C_10  and  C_11
REMARK                            x       y       z     vdW  Elec       q    Type
REMARK                         _______ _______ _______ _____ _____    ______ ____
ROOT
ATOM      1  N   UNL     1      26.005  26.419  26.559  0.00  0.00    +0.000 NA
ATOM      2  C   UNL     1      26.451  26.214  25.194  0.00  0.00    +0.000 A 
ATOM      3  S   UNL     1      26.579  27.340  23.928  0.00  0.00    +0.000 S 
ATOM      4  C   UNL     1      27.163  26.313  22.708  0.00  0.00    +0.000 A 
ATOM      5  C   UNL     1      27.245  25.092  23.331  0.00  0.00    +0.000 A 
ATOM      6  C   UNL     1      26.877  25.034  24.626  0.00  0.00    +0.000 A 
ATOM      7  C   UNL     1      27.730  23.829  22.619  0.00  0.00    +0.000 C 
ATOM      8  C   UNL     1      28.972  24.100  21.838  0.00  0.00    +0.000 C 
ATOM      9  C   UNL     1      29.468  25.507  22.090  0.00  0.00    +0.000 C 
ATOM     10  C   UNL     1      28.929  26.371  20.963  0.00  0.00    +0.000 C 
ATOM     11  C   UNL     1      27.501  26.690  21.282  0.00  0.00    +0.000 C 
ENDROOT
BRANCH   6  12
ATOM     12  C   UNL     1      26.912  23.776  25.433  0.00  0.00    +0.000 C 
ATOM     13  O   UNL     1      26.013  22.914  25.322  0.00  0.00    +0.000 OA
ATOM     14  N   UNL     1      27.949  23.493  26.357  0.00  0.00    +0.000 NA
BRANCH  14  15
ATOM     15  C   UNL     1      28.021  22.301  27.150  0.00  0.00    +0.000 C 
BRANCH  15  16
ATOM     16  C   UNL     1      27.364  22.503  28.493  0.00  0.00    +0.000 A 
ATOM     17  C   UNL     1      26.826  23.680  28.968  0.00  0.00    +0.000 A 
ATOM     18  C   UNL     1      26.333  23.425  30.229  0.00  0.00    +0.000 A 
ATOM     19  C   UNL     1      26.598  22.098  30.459  0.00  0.00    +0.000 A 
ATOM     20  O   UNL     1      27.194  21.611  29.428  0.00  0.00    +0.000 OA
ENDBRANCH  15  16
ENDBRANCH  14  15
ENDBRANCH   6  12
TORSDOF 3
ENDMDL
MODEL 9
REMARK VINA RESULT:      -5.4     34.242     35.002
REMARK  Name = 
REMARK  3 active torsions:
REMARK  status: ('A' for Active; 'I' for Inactive)
REMARK    1  A    between atoms: C_6  and  C_7
REMARK    2  A    between atoms: N_9  and  C_10
REMARK    3  A    between atoms: C_10  and  C_11
REMARK                            x       y       z     vdW  Elec       q    Type
REMARK                         _______ _______ _______ _____ _____    ______ ____
ROOT
ATOM      1  N   UNL     1      24.996  25.895  31.450  0.00  0.00    +0.000 NA
ATOM      2  C   UNL     1      24.827  25.758  30.016  0.00  0.00    +0.000 A 
ATOM      3  S   UNL     1      23.829  26.645  28.965  0.00  0.00    +0.000 S 
ATOM      4  C   UNL     1      24.217  25.872  27.504  0.00  0.00    +0.000 A 
ATOM      5  C   UNL     1      25.134  24.921  27.880  0.00  0.00    +0.000 A 
ATOM      6  C   UNL     1      25.456  24.857  29.186  0.00  0.00    +0.000 A 
ATOM      7  C   UNL     1      25.784  23.957  26.886  0.00  0.00    +0.000 C 
ATOM      8  C   UNL     1      26.253  24.683  25.669  0.00  0.00    +0.000 C 
ATOM      9  C   UNL     1      26.077  26.176  25.833  0.00  0.00    +0.000 C 
ATOM     10  C   UNL     1      24.758  26.538  25.173  0.00  0.00    +0.000 C 
ATOM     11  C   UNL     1      23.662  26.184  26.130  0.00  0.00    +0.000 C 
ENDROOT
BRANCH   6  12
ATOM     12  C   UNL     1      26.436  23.874  29.741  0.00  0.00    +0.000 C 
ATOM     13  O   UNL     1      26.055  22.781  30.215  0.00  0.00    +0.000 OA
ATOM     14  N   UNL     1      27.832  24.121  29.765  0.00  0.00    +0.000 NA
BRANCH  14  15
ATOM     15  C   UNL     1      28.805  23.208  30.288  0.00  0.00    +0.000 C 
BRANCH  15  16
ATOM     16  C   UNL     1      29.745  22.739  29.205  0.00  0.00    +0.000 A 
ATOM     17  C   UNL     1      29.469  22.683  27.856  0.00  0.00    +0.000 A 
ATOM     18  C   UNL     1      30.597  22.197  27.228  0.00  0.00    +0.000 A 
ATOM     19  C   UNL     1      31.505  21.981  28.235  0.00  0.00    +0.000 A 
ATOM     20  O   UNL     1      30.966  22.308  29.355  0.00  0.00    +0.000 OA
ENDBRANCH  15  16
ENDBRANCH  14  15
ENDBRANCH   6  12
TORSDOF 3
ENDMDL
MODEL 10
REMARK VINA RESULT:      -5.4     21.028     22.402
REMARK  Name = 
REMARK  3 active torsions:
REMARK  status: ('A' for Active; 'I' for Inactive)
REMARK    1  A    between atoms: C_6  and  C_7
REMARK    2  A    between atoms: N_9  and  C_10
REMARK    3  A    between atoms: C_10  and  C_11
REMARK                            x       y       z     vdW  Elec       q    Type
REMARK                         _______ _______ _______ _____ _____    ______ ____
ROOT
ATOM      1  N   UNL     1      16.799   9.240  34.877  0.00  0.00    +0.000 NA
ATOM      2  C   UNL     1      16.443  10.338  33.999  0.00  0.00    +0.000 A 
ATOM      3  S   UNL     1      16.935  10.635  32.400  0.00  0.00    +0.000 S 
ATOM      4  C   UNL     1      16.088  12.079  32.118  0.00  0.00    +0.000 A 
ATOM      5  C   UNL     1      15.428  12.299  33.302  0.00  0.00    +0.000 A 
ATOM      6  C   UNL     1      15.608  11.395  34.285  0.00  0.00    +0.000 A 
ATOM      7  C   UNL     1      14.518  13.505  33.532  0.00  0.00    +0.000 C 
ATOM      8  C   UNL     1      13.596  13.707  32.376  0.00  0.00    +0.000 C 
ATOM      9  C   UNL     1      13.732  12.579  31.378  0.00  0.00    +0.000 C 
ATOM     10  C   UNL     1      14.697  13.055  30.306  0.00  0.00    +0.000 C 
ATOM     11  C   UNL     1      16.085  12.903  30.848  0.00  0.00    +0.000 C 
ENDROOT
BRANCH   6  12
ATOM     12  C   UNL     1      14.956  11.502  35.626  0.00  0.00    +0.000 C 
ATOM     13  O   UNL     1      13.774  11.898  35.738  0.00  0.00    +0.000 OA
ATOM     14  N   UNL     1      15.628  11.170  36.829  0.00  0.00    +0.000 NA
BRANCH  14  15
ATOM     15  C   UNL     1      15.041  11.258  38.134  0.00  0.00    +0.000 C 
BRANCH  15  16
ATOM     16  C   UNL     1      15.797  10.412  39.127  0.00  0.00    +0.000 A 
ATOM     17  C   UNL     1      17.110  10.005  39.018  0.00  0.00    +0.000 A 
ATOM     18  C   UNL     1      17.399   9.253  40.136  0.00  0.00    +0.000 A 
ATOM     19  C   UNL     1      16.240   9.240  40.871  0.00  0.00    +0.000 A 
ATOM     20  O   UNL     1      15.346   9.921  40.248  0.00  0.00    +0.000 OA
ENDBRANCH  15  16
ENDBRANCH  14  15
ENDBRANCH   6  12
TORSDOF 3
ENDMDL
