MODEL 1
REMARK VINA RESULT:      -8.0      0.000      0.000
REMARK  Name = 
REMARK  9 active torsions:
REMARK  status: ('A' for Active; 'I' for Inactive)
REMARK    1  A    between atoms: C_2  and  C_3
REMARK    2  A    between atoms: C_3  and  C_4
REMARK    3  A    between atoms: C_4  and  C_5
REMARK    4  A    between atoms: C_5  and  C_6
REMARK    5  A    between atoms: C_6  and  O_7
REMARK    6  A    between atoms: O_7  and  C_8
REMARK    7  A    between atoms: C_8  and  C_10
REMARK    8  A    between atoms: N_13  and  C_14
REMARK    9  A    between atoms: C_14  and  C_16
REMARK                            x       y       z     vdW  Elec       q    Type
REMARK                         _______ _______ _______ _____ _____    ______ ____
ROOT
ATOM      1  C   UNL     1      36.795   1.871  15.741  0.00  0.00    +0.000 A 
ATOM      2  C   UNL     1      35.800   1.011  16.225  0.00  0.00    +0.000 A 
ATOM      3  N   UNL     1      34.526   1.370  16.742  0.00  0.00    +0.000 NA
ATOM      4  N   UNL     1      36.301  -0.227  16.101  0.00  0.00    +0.000 N 
ATOM      5  C   UNL     1      37.503  -0.189  15.587  0.00  0.00    +0.000 A 
ATOM      6  N   UNL     1      38.364  -1.176  15.291  0.00  0.00    +0.000 NA
ATOM      7  C   UNL     1      39.564  -0.883  14.760  0.00  0.00    +0.000 A 
ATOM      8  C   UNL     1      40.463  -1.886  14.449  0.00  0.00    +0.000 A 
ATOM      9  C   UNL     1      41.704  -1.649  13.903  0.00  0.00    +0.000 A 
ATOM     10  C   UNL     1      42.080  -0.346  13.650  0.00  0.00    +0.000 A 
ATOM     11  C   UNL     1      41.208   0.685  13.948  0.00  0.00    +0.000 A 
ATOM     12  C   UNL     1      39.970   0.412  14.495  0.00  0.00    +0.000 A 
ATOM     13  N   UNL     1      39.075   1.368  14.808  0.00  0.00    +0.000 NA
ATOM     14  C   UNL     1      37.874   1.121  15.336  0.00  0.00    +0.000 A 
ENDROOT
BRANCH   1  15
ATOM     15  C   UNL     1      36.685   3.308  15.685  0.00  0.00    +0.000 C 
ATOM     16  O   UNL     1      36.211   3.876  14.677  0.00  0.00    +0.000 OA
BRANCH  15  17
ATOM     17  O   UNL     1      37.094   4.108  16.731  0.00  0.00    +0.000 OA
BRANCH  17  18
ATOM     18  C   UNL     1      38.434   4.540  16.866  0.00  0.00    +0.000 C 
BRANCH  18  19
ATOM     19  C   UNL     1      38.727   4.705  18.342  0.00  0.00    +0.000 C 
BRANCH  19  20
ATOM     20  C   UNL     1      39.762   5.810  18.448  0.00  0.00    +0.000 C 
BRANCH  20  21
ATOM     21  C   UNL     1      39.511   6.615  19.697  0.00  0.00    +0.000 C 
BRANCH  21  23
ATOM     22  C   UNL     1      41.831   6.307  20.388  0.00  0.00    +0.000 C 
ATOM     23  C   UNL     1      40.775   7.369  20.057  0.00  0.00    +0.000 C 
ENDBRANCH  21  23
ENDBRANCH  20  21
ENDBRANCH  19  20
ENDBRANCH  18  19
ENDBRANCH  17  18
ENDBRANCH  15  17
ENDBRANCH   1  15
BRANCH   4  24
ATOM     24  C   UNL     1      35.495  -1.495  16.539  0.00  0.00    +0.000 C 
ATOM     25  C   UNL     1      35.878  -2.387  15.200  0.00  0.00    +0.000 C 
BRANCH  24  26
ATOM     26  C   UNL     1      36.616  -2.096  17.537  0.00  0.00    +0.000 A 
ATOM     27  C   UNL     1      36.989  -1.490  18.649  0.00  0.00    +0.000 A 
ATOM     28  C   UNL     1      37.959  -2.106  19.420  0.00  0.00    +0.000 A 
ATOM     29  C   UNL     1      38.524  -3.321  19.041  0.00  0.00    +0.000 A 
ATOM     30  C   UNL     1      38.100  -3.914  17.870  0.00  0.00    +0.000 A 
ATOM     31  C   UNL     1      37.133  -3.311  17.090  0.00  0.00    +0.000 A 
ENDBRANCH  24  26
ENDBRANCH   4  24
TORSDOF 9
ENDMDL
MODEL 2
REMARK VINA RESULT:      -7.5      1.451      4.226
REMARK  Name = 
REMARK  9 active torsions:
REMARK  status: ('A' for Active; 'I' for Inactive)
REMARK    1  A    between atoms: C_2  and  C_3
REMARK    2  A    between atoms: C_3  and  C_4
REMARK    3  A    between atoms: C_4  and  C_5
REMARK    4  A    between atoms: C_5  and  C_6
REMARK    5  A    between atoms: C_6  and  O_7
REMARK    6  A    between atoms: O_7  and  C_8
REMARK    7  A    between atoms: C_8  and  C_10
REMARK    8  A    between atoms: N_13  and  C_14
REMARK    9  A    between atoms: C_14  and  C_16
REMARK                            x       y       z     vdW  Elec       q    Type
REMARK                         _______ _______ _______ _____ _____    ______ ____
ROOT
ATOM      1  C   UNL     1      36.374   0.841  15.759  0.00  0.00    +0.000 A 
ATOM      2  C   UNL     1      36.731   0.595  14.426  0.00  0.00    +0.000 A 
ATOM      3  N   UNL     1      36.418   1.389  13.289  0.00  0.00    +0.000 NA
ATOM      4  N   UNL     1      37.432  -0.548  14.444  0.00  0.00    +0.000 N 
ATOM      5  C   UNL     1      37.528  -1.011  15.664  0.00  0.00    +0.000 A 
ATOM      6  N   UNL     1      38.131  -2.111  16.141  0.00  0.00    +0.000 NA
ATOM      7  C   UNL     1      38.094  -2.379  17.458  0.00  0.00    +0.000 A 
ATOM      8  C   UNL     1      38.709  -3.508  17.968  0.00  0.00    +0.000 A 
ATOM      9  C   UNL     1      38.706  -3.835  19.304  0.00  0.00    +0.000 A 
ATOM     10  C   UNL     1      38.056  -3.000  20.190  0.00  0.00    +0.000 A 
ATOM     11  C   UNL     1      37.428  -1.863  19.718  0.00  0.00    +0.000 A 
ATOM     12  C   UNL     1      37.450  -1.563  18.371  0.00  0.00    +0.000 A 
ATOM     13  N   UNL     1      36.860  -0.473  17.847  0.00  0.00    +0.000 NA
ATOM     14  C   UNL     1      36.874  -0.169  16.547  0.00  0.00    +0.000 A 
ENDROOT
BRANCH   1  15
ATOM     15  C   UNL     1      35.607   1.976  16.210  0.00  0.00    +0.000 C 
ATOM     16  O   UNL     1      34.440   1.832  16.635  0.00  0.00    +0.000 OA
BRANCH  15  17
ATOM     17  O   UNL     1      36.124   3.254  16.191  0.00  0.00    +0.000 OA
BRANCH  17  18
ATOM     18  C   UNL     1      37.277   3.608  16.928  0.00  0.00    +0.000 C 
BRANCH  18  19
ATOM     19  C   UNL     1      38.307   4.148  15.959  0.00  0.00    +0.000 C 
BRANCH  19  20
ATOM     20  C   UNL     1      39.216   5.056  16.768  0.00  0.00    +0.000 C 
BRANCH  20  21
ATOM     21  C   UNL     1      38.881   4.925  18.232  0.00  0.00    +0.000 C 
BRANCH  21  23
ATOM     22  C   UNL     1      40.226   6.276  19.756  0.00  0.00    +0.000 C 
ATOM     23  C   UNL     1      38.968   6.293  18.878  0.00  0.00    +0.000 C 
ENDBRANCH  21  23
ENDBRANCH  20  21
ENDBRANCH  19  20
ENDBRANCH  18  19
ENDBRANCH  17  18
ENDBRANCH  15  17
ENDBRANCH   1  15
BRANCH   4  24
ATOM     24  C   UNL     1      38.017  -1.182  13.139  0.00  0.00    +0.000 C 
ATOM     25  C   UNL     1      37.845   0.181  12.218  0.00  0.00    +0.000 C 
BRANCH  24  26
ATOM     26  C   UNL     1      39.577  -0.998  13.523  0.00  0.00    +0.000 A 
ATOM     27  C   UNL     1      40.136   0.183  13.718  0.00  0.00    +0.000 A 
ATOM     28  C   UNL     1      41.481   0.209  14.042  0.00  0.00    +0.000 A 
ATOM     29  C   UNL     1      42.222  -0.963  14.159  0.00  0.00    +0.000 A 
ATOM     30  C   UNL     1      41.593  -2.172  13.945  0.00  0.00    +0.000 A 
ATOM     31  C   UNL     1      40.251  -2.215  13.620  0.00  0.00    +0.000 A 
ENDBRANCH  24  26
ENDBRANCH   4  24
TORSDOF 9
ENDMDL
MODEL 3
REMARK VINA RESULT:      -7.3      1.149      2.022
REMARK  Name = 
REMARK  9 active torsions:
REMARK  status: ('A' for Active; 'I' for Inactive)
REMARK    1  A    between atoms: C_2  and  C_3
REMARK    2  A    between atoms: C_3  and  C_4
REMARK    3  A    between atoms: C_4  and  C_5
REMARK    4  A    between atoms: C_5  and  C_6
REMARK    5  A    between atoms: C_6  and  O_7
REMARK    6  A    between atoms: O_7  and  C_8
REMARK    7  A    between atoms: C_8  and  C_10
REMARK    8  A    between atoms: N_13  and  C_14
REMARK    9  A    between atoms: C_14  and  C_16
REMARK                            x       y       z     vdW  Elec       q    Type
REMARK                         _______ _______ _______ _____ _____    ______ ____
ROOT
ATOM      1  C   UNL     1      36.496   1.320  15.556  0.00  0.00    +0.000 A 
ATOM      2  C   UNL     1      35.725   0.602  16.480  0.00  0.00    +0.000 A 
ATOM      3  N   UNL     1      34.470   0.977  17.032  0.00  0.00    +0.000 NA
ATOM      4  N   UNL     1      36.418  -0.517  16.738  0.00  0.00    +0.000 N 
ATOM      5  C   UNL     1      37.533  -0.536  16.054  0.00  0.00    +0.000 A 
ATOM      6  N   UNL     1      38.517  -1.449  16.003  0.00  0.00    +0.000 NA
ATOM      7  C   UNL     1      39.583  -1.242  15.209  0.00  0.00    +0.000 A 
ATOM      8  C   UNL     1      40.605  -2.171  15.144  0.00  0.00    +0.000 A 
ATOM      9  C   UNL     1      41.719  -2.017  14.352  0.00  0.00    +0.000 A 
ATOM     10  C   UNL     1      41.832  -0.879  13.579  0.00  0.00    +0.000 A 
ATOM     11  C   UNL     1      40.830   0.073  13.618  0.00  0.00    +0.000 A 
ATOM     12  C   UNL     1      39.725  -0.113  14.425  0.00  0.00    +0.000 A 
ATOM     13  N   UNL     1      38.715   0.773  14.508  0.00  0.00    +0.000 NA
ATOM     14  C   UNL     1      37.640   0.607  15.282  0.00  0.00    +0.000 A 
ENDROOT
BRANCH   1  15
ATOM     15  C   UNL     1      36.130   2.598  14.995  0.00  0.00    +0.000 C 
ATOM     16  O   UNL     1      35.052   2.742  14.379  0.00  0.00    +0.000 OA
BRANCH  15  17
ATOM     17  O   UNL     1      36.947   3.701  15.114  0.00  0.00    +0.000 OA
BRANCH  17  18
ATOM     18  C   UNL     1      37.561   4.053  16.339  0.00  0.00    +0.000 C 
BRANCH  18  19
ATOM     19  C   UNL     1      39.026   4.322  16.070  0.00  0.00    +0.000 C 
BRANCH  19  20
ATOM     20  C   UNL     1      39.433   5.437  17.016  0.00  0.00    +0.000 C 
BRANCH  20  21
ATOM     21  C   UNL     1      38.990   5.094  18.415  0.00  0.00    +0.000 C 
BRANCH  21  23
ATOM     22  C   UNL     1      40.743   6.281  19.630  0.00  0.00    +0.000 C 
ATOM     23  C   UNL     1      39.242   6.287  19.315  0.00  0.00    +0.000 C 
ENDBRANCH  21  23
ENDBRANCH  20  21
ENDBRANCH  19  20
ENDBRANCH  18  19
ENDBRANCH  17  18
ENDBRANCH  15  17
ENDBRANCH   1  15
BRANCH   4  24
ATOM     24  C   UNL     1      35.898  -1.602  17.738  0.00  0.00    +0.000 C 
ATOM     25  C   UNL     1      34.319  -1.114  17.684  0.00  0.00    +0.000 C 
BRANCH  24  26
ATOM     26  C   UNL     1      35.796  -2.811  16.669  0.00  0.00    +0.000 A 
ATOM     27  C   UNL     1      34.987  -2.783  15.626  0.00  0.00    +0.000 A 
ATOM     28  C   UNL     1      34.990  -3.880  14.782  0.00  0.00    +0.000 A 
ATOM     29  C   UNL     1      35.816  -4.976  15.021  0.00  0.00    +0.000 A 
ATOM     30  C   UNL     1      36.644  -4.957  16.124  0.00  0.00    +0.000 A 
ATOM     31  C   UNL     1      36.651  -3.869  16.975  0.00  0.00    +0.000 A 
ENDBRANCH  24  26
ENDBRANCH   4  24
TORSDOF 9
ENDMDL
MODEL 4
REMARK VINA RESULT:      -7.2      2.069      6.503
REMARK  Name = 
REMARK  9 active torsions:
REMARK  status: ('A' for Active; 'I' for Inactive)
REMARK    1  A    between atoms: C_2  and  C_3
REMARK    2  A    between atoms: C_3  and  C_4
REMARK    3  A    between atoms: C_4  and  C_5
REMARK    4  A    between atoms: C_5  and  C_6
REMARK    5  A    between atoms: C_6  and  O_7
REMARK    6  A    between atoms: O_7  and  C_8
REMARK    7  A    between atoms: C_8  and  C_10
REMARK    8  A    between atoms: N_13  and  C_14
REMARK    9  A    between atoms: C_14  and  C_16
REMARK                            x       y       z     vdW  Elec       q    Type
REMARK                         _______ _______ _______ _____ _____    ______ ____
ROOT
ATOM      1  C   UNL     1      36.428   2.411  15.576  0.00  0.00    +0.000 A 
ATOM      2  C   UNL     1      36.792   2.042  14.274  0.00  0.00    +0.000 A 
ATOM      3  N   UNL     1      36.098   1.160  13.401  0.00  0.00    +0.000 NA
ATOM      4  N   UNL     1      37.935   2.695  14.019  0.00  0.00    +0.000 N 
ATOM      5  C   UNL     1      38.291   3.422  15.047  0.00  0.00    +0.000 A 
ATOM      6  N   UNL     1      39.349   4.226  15.231  0.00  0.00    +0.000 NA
ATOM      7  C   UNL     1      39.501   4.880  16.396  0.00  0.00    +0.000 A 
ATOM      8  C   UNL     1      40.586   5.712  16.603  0.00  0.00    +0.000 A 
ATOM      9  C   UNL     1      40.795   6.408  17.772  0.00  0.00    +0.000 A 
ATOM     10  C   UNL     1      39.881   6.273  18.797  0.00  0.00    +0.000 A 
ATOM     11  C   UNL     1      38.784   5.449  18.628  0.00  0.00    +0.000 A 
ATOM     12  C   UNL     1      38.603   4.765  17.442  0.00  0.00    +0.000 A 
ATOM     13  N   UNL     1      37.558   3.949  17.212  0.00  0.00    +0.000 NA
ATOM     14  C   UNL     1      37.369   3.282  16.071  0.00  0.00    +0.000 A 
ENDROOT
BRANCH   1  15
ATOM     15  C   UNL     1      35.252   1.941  16.266  0.00  0.00    +0.000 C 
ATOM     16  O   UNL     1      34.221   2.646  16.328  0.00  0.00    +0.000 OA
BRANCH  15  17
ATOM     17  O   UNL     1      35.216   0.708  16.881  0.00  0.00    +0.000 OA
BRANCH  17  18
ATOM     18  C   UNL     1      36.199   0.307  17.816  0.00  0.00    +0.000 C 
BRANCH  18  19
ATOM     19  C   UNL     1      36.643  -1.095  17.458  0.00  0.00    +0.000 C 
BRANCH  19  20
ATOM     20  C   UNL     1      37.755  -0.941  16.438  0.00  0.00    +0.000 C 
BRANCH  20  21
ATOM     21  C   UNL     1      37.333  -1.573  15.136  0.00  0.00    +0.000 C 
BRANCH  21  23
ATOM     22  C   UNL     1      37.358  -3.600  13.776  0.00  0.00    +0.000 C 
ATOM     23  C   UNL     1      37.910  -2.973  15.062  0.00  0.00    +0.000 C 
ENDBRANCH  21  23
ENDBRANCH  20  21
ENDBRANCH  19  20
ENDBRANCH  18  19
ENDBRANCH  17  18
ENDBRANCH  15  17
ENDBRANCH   1  15
BRANCH   4  24
ATOM     24  C   UNL     1      38.685   2.552  12.653  0.00  0.00    +0.000 C 
ATOM     25  C   UNL     1      39.906   3.598  13.041  0.00  0.00    +0.000 C 
BRANCH  24  26
ATOM     26  C   UNL     1      39.452   1.172  13.003  0.00  0.00    +0.000 A 
ATOM     27  C   UNL     1      40.256   1.039  14.043  0.00  0.00    +0.000 A 
ATOM     28  C   UNL     1      40.854  -0.194  14.235  0.00  0.00    +0.000 A 
ATOM     29  C   UNL     1      40.621  -1.258  13.368  0.00  0.00    +0.000 A 
ATOM     30  C   UNL     1      39.773  -1.068  12.297  0.00  0.00    +0.000 A 
ATOM     31  C   UNL     1      39.168   0.157  12.090  0.00  0.00    +0.000 A 
ENDBRANCH  24  26
ENDBRANCH   4  24
TORSDOF 9
ENDMDL
MODEL 5
REMARK VINA RESULT:      -7.2      2.815      6.355
REMARK  Name = 
REMARK  9 active torsions:
REMARK  status: ('A' for Active; 'I' for Inactive)
REMARK    1  A    between atoms: C_2  and  C_3
REMARK    2  A    between atoms: C_3  and  C_4
REMARK    3  A    between atoms: C_4  and  C_5
REMARK    4  A    between atoms: C_5  and  C_6
REMARK    5  A    between atoms: C_6  and  O_7
REMARK    6  A    between atoms: O_7  and  C_8
REMARK    7  A    between atoms: C_8  and  C_10
REMARK    8  A    between atoms: N_13  and  C_14
REMARK    9  A    between atoms: C_14  and  C_16
REMARK                            x       y       z     vdW  Elec       q    Type
REMARK                         _______ _______ _______ _____ _____    ______ ____
ROOT
ATOM      1  C   UNL     1      38.186  -1.250  13.888  0.00  0.00    +0.000 A 
ATOM      2  C   UNL     1      37.426  -0.122  13.551  0.00  0.00    +0.000 A 
ATOM      3  N   UNL     1      37.273   0.462  12.263  0.00  0.00    +0.000 NA
ATOM      4  N   UNL     1      36.870   0.296  14.697  0.00  0.00    +0.000 N 
ATOM      5  C   UNL     1      37.226  -0.477  15.691  0.00  0.00    +0.000 A 
ATOM      6  N   UNL     1      36.911  -0.433  16.995  0.00  0.00    +0.000 NA
ATOM      7  C   UNL     1      37.409  -1.355  17.837  0.00  0.00    +0.000 A 
ATOM      8  C   UNL     1      37.096  -1.325  19.184  0.00  0.00    +0.000 A 
ATOM      9  C   UNL     1      37.574  -2.240  20.093  0.00  0.00    +0.000 A 
ATOM     10  C   UNL     1      38.410  -3.243  19.649  0.00  0.00    +0.000 A 
ATOM     11  C   UNL     1      38.747  -3.306  18.310  0.00  0.00    +0.000 A 
ATOM     12  C   UNL     1      38.250  -2.371  17.423  0.00  0.00    +0.000 A 
ATOM     13  N   UNL     1      38.538  -2.376  16.108  0.00  0.00    +0.000 NA
ATOM     14  C   UNL     1      38.065  -1.481  15.238  0.00  0.00    +0.000 A 
ENDROOT
BRANCH   1  15
ATOM     15  C   UNL     1      38.962  -2.029  12.954  0.00  0.00    +0.000 C 
ATOM     16  O   UNL     1      38.558  -3.145  12.560  0.00  0.00    +0.000 OA
BRANCH  15  17
ATOM     17  O   UNL     1      40.169  -1.580  12.463  0.00  0.00    +0.000 OA
BRANCH  17  18
ATOM     18  C   UNL     1      41.403  -1.970  13.033  0.00  0.00    +0.000 C 
BRANCH  18  19
ATOM     19  C   UNL     1      41.902  -0.832  13.898  0.00  0.00    +0.000 C 
BRANCH  19  20
ATOM     20  C   UNL     1      43.177  -1.327  14.556  0.00  0.00    +0.000 C 
BRANCH  20  21
ATOM     21  C   UNL     1      44.107  -0.163  14.785  0.00  0.00    +0.000 C 
BRANCH  21  23
ATOM     22  C   UNL     1      45.417  -0.145  16.845  0.00  0.00    +0.000 C 
ATOM     23  C   UNL     1      45.391  -0.676  15.406  0.00  0.00    +0.000 C 
ENDBRANCH  21  23
ENDBRANCH  20  21
ENDBRANCH  19  20
ENDBRANCH  18  19
ENDBRANCH  17  18
ENDBRANCH  15  17
ENDBRANCH   1  15
BRANCH   4  24
ATOM     24  C   UNL     1      35.936   1.550  14.757  0.00  0.00    +0.000 C 
ATOM     25  C   UNL     1      35.238   1.149  16.202  0.00  0.00    +0.000 C 
BRANCH  24  26
ATOM     26  C   UNL     1      37.044   2.583  15.324  0.00  0.00    +0.000 A 
ATOM     27  C   UNL     1      38.152   2.881  14.669  0.00  0.00    +0.000 A 
ATOM     28  C   UNL     1      39.022   3.780  15.260  0.00  0.00    +0.000 A 
ATOM     29  C   UNL     1      38.745   4.353  16.498  0.00  0.00    +0.000 A 
ATOM     30  C   UNL     1      37.574   4.009  17.142  0.00  0.00    +0.000 A 
ATOM     31  C   UNL     1      36.695   3.112  16.566  0.00  0.00    +0.000 A 
ENDBRANCH  24  26
ENDBRANCH   4  24
TORSDOF 9
ENDMDL
MODEL 6
REMARK VINA RESULT:      -7.1      3.534      5.853
REMARK  Name = 
REMARK  9 active torsions:
REMARK  status: ('A' for Active; 'I' for Inactive)
REMARK    1  A    between atoms: C_2  and  C_3
REMARK    2  A    between atoms: C_3  and  C_4
REMARK    3  A    between atoms: C_4  and  C_5
REMARK    4  A    between atoms: C_5  and  C_6
REMARK    5  A    between atoms: C_6  and  O_7
REMARK    6  A    between atoms: O_7  and  C_8
REMARK    7  A    between atoms: C_8  and  C_10
REMARK    8  A    between atoms: N_13  and  C_14
REMARK    9  A    between atoms: C_14  and  C_16
REMARK                            x       y       z     vdW  Elec       q    Type
REMARK                         _______ _______ _______ _____ _____    ______ ____
ROOT
ATOM      1  C   UNL     1      39.869  -0.896  14.647  0.00  0.00    +0.000 A 
ATOM      2  C   UNL     1      39.734  -2.002  15.496  0.00  0.00    +0.000 A 
ATOM      3  N   UNL     1      40.608  -3.119  15.603  0.00  0.00    +0.000 NA
ATOM      4  N   UNL     1      38.606  -1.791  16.190  0.00  0.00    +0.000 N 
ATOM      5  C   UNL     1      38.051  -0.660  15.835  0.00  0.00    +0.000 A 
ATOM      6  N   UNL     1      36.929  -0.060  16.262  0.00  0.00    +0.000 NA
ATOM      7  C   UNL     1      36.559   1.121  15.737  0.00  0.00    +0.000 A 
ATOM      8  C   UNL     1      35.406   1.754  16.165  0.00  0.00    +0.000 A 
ATOM      9  C   UNL     1      34.976   2.963  15.667  0.00  0.00    +0.000 A 
ATOM     10  C   UNL     1      35.728   3.584  14.690  0.00  0.00    +0.000 A 
ATOM     11  C   UNL     1      36.886   2.982  14.237  0.00  0.00    +0.000 A 
ATOM     12  C   UNL     1      37.290   1.768  14.758  0.00  0.00    +0.000 A 
ATOM     13  N   UNL     1      38.406   1.130  14.362  0.00  0.00    +0.000 NA
ATOM     14  C   UNL     1      38.810  -0.043  14.856  0.00  0.00    +0.000 A 
ENDROOT
BRANCH   1  15
ATOM     15  C   UNL     1      40.952  -0.701  13.714  0.00  0.00    +0.000 C 
ATOM     16  O   UNL     1      40.894  -1.175  12.558  0.00  0.00    +0.000 OA
BRANCH  15  17
ATOM     17  O   UNL     1      42.083   0.008  14.055  0.00  0.00    +0.000 OA
BRANCH  17  18
ATOM     18  C   UNL     1      43.384  -0.496  13.823  0.00  0.00    +0.000 C 
BRANCH  18  19
ATOM     19  C   UNL     1      44.202  -0.279  15.078  0.00  0.00    +0.000 C 
BRANCH  19  20
ATOM     20  C   UNL     1      44.925  -1.587  15.344  0.00  0.00    +0.000 C 
BRANCH  20  21
ATOM     21  C   UNL     1      45.883  -1.405  16.494  0.00  0.00    +0.000 C 
BRANCH  21  23
ATOM     22  C   UNL     1      46.773   0.270  18.030  0.00  0.00    +0.000 C 
ATOM     23  C   UNL     1      45.526  -0.130  17.231  0.00  0.00    +0.000 C 
ENDBRANCH  21  23
ENDBRANCH  20  21
ENDBRANCH  19  20
ENDBRANCH  18  19
ENDBRANCH  17  18
ENDBRANCH  15  17
ENDBRANCH   1  15
BRANCH   4  24
ATOM     24  C   UNL     1      38.086  -2.810  17.257  0.00  0.00    +0.000 C 
ATOM     25  C   UNL     1      37.502  -1.659  18.292  0.00  0.00    +0.000 C 
BRANCH  24  26
ATOM     26  C   UNL     1      36.695  -3.169  16.514  0.00  0.00    +0.000 A 
ATOM     27  C   UNL     1      35.518  -2.764  16.955  0.00  0.00    +0.000 A 
ATOM     28  C   UNL     1      34.400  -3.138  16.230  0.00  0.00    +0.000 A 
ATOM     29  C   UNL     1      34.507  -3.911  15.077  0.00  0.00    +0.000 A 
ATOM     30  C   UNL     1      35.760  -4.308  14.658  0.00  0.00    +0.000 A 
ATOM     31  C   UNL     1      36.885  -3.945  15.371  0.00  0.00    +0.000 A 
ENDBRANCH  24  26
ENDBRANCH   4  24
TORSDOF 9
ENDMDL
MODEL 7
REMARK VINA RESULT:      -7.1      3.650      6.302
REMARK  Name = 
REMARK  9 active torsions:
REMARK  status: ('A' for Active; 'I' for Inactive)
REMARK    1  A    between atoms: C_2  and  C_3
REMARK    2  A    between atoms: C_3  and  C_4
REMARK    3  A    between atoms: C_4  and  C_5
REMARK    4  A    between atoms: C_5  and  C_6
REMARK    5  A    between atoms: C_6  and  O_7
REMARK    6  A    between atoms: O_7  and  C_8
REMARK    7  A    between atoms: C_8  and  C_10
REMARK    8  A    between atoms: N_13  and  C_14
REMARK    9  A    between atoms: C_14  and  C_16
REMARK                            x       y       z     vdW  Elec       q    Type
REMARK                         _______ _______ _______ _____ _____    ______ ____
ROOT
ATOM      1  C   UNL     1      39.639  -1.090  14.860  0.00  0.00    +0.000 A 
ATOM      2  C   UNL     1      39.403  -2.149  15.747  0.00  0.00    +0.000 A 
ATOM      3  N   UNL     1      40.230  -3.283  15.975  0.00  0.00    +0.000 NA
ATOM      4  N   UNL     1      38.232  -1.872  16.339  0.00  0.00    +0.000 N 
ATOM      5  C   UNL     1      37.743  -0.745  15.889  0.00  0.00    +0.000 A 
ATOM      6  N   UNL     1      36.611  -0.093  16.197  0.00  0.00    +0.000 NA
ATOM      7  C   UNL     1      36.321   1.071  15.590  0.00  0.00    +0.000 A 
ATOM      8  C   UNL     1      35.159   1.757  15.894  0.00  0.00    +0.000 A 
ATOM      9  C   UNL     1      34.808   2.950  15.308  0.00  0.00    +0.000 A 
ATOM     10  C   UNL     1      35.652   3.500  14.365  0.00  0.00    +0.000 A 
ATOM     11  C   UNL     1      36.822   2.844  14.033  0.00  0.00    +0.000 A 
ATOM     12  C   UNL     1      37.145   1.647  14.641  0.00  0.00    +0.000 A 
ATOM     13  N   UNL     1      38.268   0.958  14.364  0.00  0.00    +0.000 NA
ATOM     14  C   UNL     1      38.595  -0.199  14.943  0.00  0.00    +0.000 A 
ENDROOT
BRANCH   1  15
ATOM     15  C   UNL     1      40.796  -0.973  14.006  0.00  0.00    +0.000 C 
ATOM     16  O   UNL     1      41.766  -0.258  14.337  0.00  0.00    +0.000 OA
BRANCH  15  17
ATOM     17  O   UNL     1      40.877  -1.638  12.801  0.00  0.00    +0.000 OA
BRANCH  17  18
ATOM     18  C   UNL     1      39.924  -1.452  11.774  0.00  0.00    +0.000 C 
BRANCH  18  19
ATOM     19  C   UNL     1      40.094  -0.052  11.224  0.00  0.00    +0.000 C 
BRANCH  19  20
ATOM     20  C   UNL     1      38.699   0.443  10.884  0.00  0.00    +0.000 C 
BRANCH  20  21
ATOM     21  C   UNL     1      38.784   1.848  10.343  0.00  0.00    +0.000 C 
BRANCH  21  23
ATOM     22  C   UNL     1      36.603   1.771   9.249  0.00  0.00    +0.000 C 
ATOM     23  C   UNL     1      37.399   2.463  10.363  0.00  0.00    +0.000 C 
ENDBRANCH  21  23
ENDBRANCH  20  21
ENDBRANCH  19  20
ENDBRANCH  18  19
ENDBRANCH  17  18
ENDBRANCH  15  17
ENDBRANCH   1  15
BRANCH   4  24
ATOM     24  C   UNL     1      37.599  -2.821  17.410  0.00  0.00    +0.000 C 
ATOM     25  C   UNL     1      36.862  -1.612  18.265  0.00  0.00    +0.000 C 
BRANCH  24  26
ATOM     26  C   UNL     1      36.325  -3.280  16.526  0.00  0.00    +0.000 A 
ATOM     27  C   UNL     1      35.100  -2.841  16.749  0.00  0.00    +0.000 A 
ATOM     28  C   UNL     1      34.092  -3.308  15.923  0.00  0.00    +0.000 A 
ATOM     29  C   UNL     1      34.357  -4.208  14.893  0.00  0.00    +0.000 A 
ATOM     30  C   UNL     1      35.654  -4.636  14.702  0.00  0.00    +0.000 A 
ATOM     31  C   UNL     1      36.670  -4.179  15.518  0.00  0.00    +0.000 A 
ENDBRANCH  24  26
ENDBRANCH   4  24
TORSDOF 9
ENDMDL
MODEL 8
REMARK VINA RESULT:      -7.1      2.552      3.763
REMARK  Name = 
REMARK  9 active torsions:
REMARK  status: ('A' for Active; 'I' for Inactive)
REMARK    1  A    between atoms: C_2  and  C_3
REMARK    2  A    between atoms: C_3  and  C_4
REMARK    3  A    between atoms: C_4  and  C_5
REMARK    4  A    between atoms: C_5  and  C_6
REMARK    5  A    between atoms: C_6  and  O_7
REMARK    6  A    between atoms: O_7  and  C_8
REMARK    7  A    between atoms: C_8  and  C_10
REMARK    8  A    between atoms: N_13  and  C_14
REMARK    9  A    between atoms: C_14  and  C_16
REMARK                            x       y       z     vdW  Elec       q    Type
REMARK                         _______ _______ _______ _____ _____    ______ ____
ROOT
ATOM      1  C   UNL     1      36.622   1.584  15.881  0.00  0.00    +0.000 A 
ATOM      2  C   UNL     1      35.682   0.645  16.326  0.00  0.00    +0.000 A 
ATOM      3  N   UNL     1      34.398   0.905  16.878  0.00  0.00    +0.000 NA
ATOM      4  N   UNL     1      36.245  -0.555  16.125  0.00  0.00    +0.000 N 
ATOM      5  C   UNL     1      37.436  -0.423  15.600  0.00  0.00    +0.000 A 
ATOM      6  N   UNL     1      38.344  -1.344  15.237  0.00  0.00    +0.000 NA
ATOM      7  C   UNL     1      39.518  -0.957  14.709  0.00  0.00    +0.000 A 
ATOM      8  C   UNL     1      40.465  -1.891  14.330  0.00  0.00    +0.000 A 
ATOM      9  C   UNL     1      41.683  -1.556  13.784  0.00  0.00    +0.000 A 
ATOM     10  C   UNL     1      41.985  -0.223  13.602  0.00  0.00    +0.000 A 
ATOM     11  C   UNL     1      41.064   0.741  13.970  0.00  0.00    +0.000 A 
ATOM     12  C   UNL     1      39.851   0.371  14.515  0.00  0.00    +0.000 A 
ATOM     13  N   UNL     1      38.911   1.258  14.893  0.00  0.00    +0.000 NA
ATOM     14  C   UNL     1      37.733   0.917  15.420  0.00  0.00    +0.000 A 
ENDROOT
BRANCH   1  15
ATOM     15  C   UNL     1      36.435   3.014  15.909  0.00  0.00    +0.000 C 
ATOM     16  O   UNL     1      37.082   3.729  16.704  0.00  0.00    +0.000 OA
BRANCH  15  17
ATOM     17  O   UNL     1      35.543   3.644  15.069  0.00  0.00    +0.000 OA
BRANCH  17  18
ATOM     18  C   UNL     1      35.962   4.321  13.899  0.00  0.00    +0.000 C 
BRANCH  18  19
ATOM     19  C   UNL     1      35.772   5.806  14.122  0.00  0.00    +0.000 C 
BRANCH  19  20
ATOM     20  C   UNL     1      34.277   6.058  14.050  0.00  0.00    +0.000 C 
BRANCH  20  21
ATOM     21  C   UNL     1      34.023   7.375  13.362  0.00  0.00    +0.000 C 
BRANCH  21  23
ATOM     22  C   UNL     1      33.435   7.276  10.995  0.00  0.00    +0.000 C 
ATOM     23  C   UNL     1      34.619   7.322  11.970  0.00  0.00    +0.000 C 
ENDBRANCH  21  23
ENDBRANCH  20  21
ENDBRANCH  19  20
ENDBRANCH  18  19
ENDBRANCH  17  18
ENDBRANCH  15  17
ENDBRANCH   1  15
BRANCH   4  24
ATOM     24  C   UNL     1      35.515  -1.888  16.498  0.00  0.00    +0.000 C 
ATOM     25  C   UNL     1      35.898  -2.669  15.092  0.00  0.00    +0.000 C 
BRANCH  24  26
ATOM     26  C   UNL     1      36.694  -2.497  17.421  0.00  0.00    +0.000 A 
ATOM     27  C   UNL     1      37.121  -1.910  18.524  0.00  0.00    +0.000 A 
ATOM     28  C   UNL     1      38.138  -2.532  19.228  0.00  0.00    +0.000 A 
ATOM     29  C   UNL     1      38.692  -3.733  18.794  0.00  0.00    +0.000 A 
ATOM     30  C   UNL     1      38.210  -4.307  17.635  0.00  0.00    +0.000 A 
ATOM     31  C   UNL     1      37.197  -3.698  16.921  0.00  0.00    +0.000 A 
ENDBRANCH  24  26
ENDBRANCH   4  24
TORSDOF 9
ENDMDL
MODEL 9
REMARK VINA RESULT:      -7.0      2.965      6.365
REMARK  Name = 
REMARK  9 active torsions:
REMARK  status: ('A' for Active; 'I' for Inactive)
REMARK    1  A    between atoms: C_2  and  C_3
REMARK    2  A    between atoms: C_3  and  C_4
REMARK    3  A    between atoms: C_4  and  C_5
REMARK    4  A    between atoms: C_5  and  C_6
REMARK    5  A    between atoms: C_6  and  O_7
REMARK    6  A    between atoms: O_7  and  C_8
REMARK    7  A    between atoms: C_8  and  C_10
REMARK    8  A    between atoms: N_13  and  C_14
REMARK    9  A    between atoms: C_14  and  C_16
REMARK                            x       y       z     vdW  Elec       q    Type
REMARK                         _______ _______ _______ _____ _____    ______ ____
ROOT
ATOM      1  C   UNL     1      38.626  -1.569  13.932  0.00  0.00    +0.000 A 
ATOM      2  C   UNL     1      37.860  -0.498  13.451  0.00  0.00    +0.000 A 
ATOM      3  N   UNL     1      37.812  -0.002  12.119  0.00  0.00    +0.000 NA
ATOM      4  N   UNL     1      37.179  -0.036  14.510  0.00  0.00    +0.000 N 
ATOM      5  C   UNL     1      37.466  -0.730  15.581  0.00  0.00    +0.000 A 
ATOM      6  N   UNL     1      37.023  -0.620  16.844  0.00  0.00    +0.000 NA
ATOM      7  C   UNL     1      37.471  -1.465  17.788  0.00  0.00    +0.000 A 
ATOM      8  C   UNL     1      37.027  -1.367  19.094  0.00  0.00    +0.000 A 
ATOM      9  C   UNL     1      37.447  -2.202  20.102  0.00  0.00    +0.000 A 
ATOM     10  C   UNL     1      38.361  -3.193  19.806  0.00  0.00    +0.000 A 
ATOM     11  C   UNL     1      38.829  -3.322  18.512  0.00  0.00    +0.000 A 
ATOM     12  C   UNL     1      38.387  -2.467  17.523  0.00  0.00    +0.000 A 
ATOM     13  N   UNL     1      38.802  -2.540  16.245  0.00  0.00    +0.000 NA
ATOM     14  C   UNL     1      38.382  -1.721  15.277  0.00  0.00    +0.000 A 
ENDROOT
BRANCH   1  15
ATOM     15  C   UNL     1      39.519  -2.368  13.130  0.00  0.00    +0.000 C 
ATOM     16  O   UNL     1      39.281  -2.577  11.920  0.00  0.00    +0.000 OA
BRANCH  15  17
ATOM     17  O   UNL     1      40.661  -2.931  13.659  0.00  0.00    +0.000 OA
BRANCH  17  18
ATOM     18  C   UNL     1      41.950  -2.424  13.373  0.00  0.00    +0.000 C 
BRANCH  18  19
ATOM     19  C   UNL     1      42.339  -1.475  14.486  0.00  0.00    +0.000 C 
BRANCH  19  20
ATOM     20  C   UNL     1      42.673  -0.153  13.819  0.00  0.00    +0.000 C 
BRANCH  20  21
ATOM     21  C   UNL     1      41.458   0.739  13.838  0.00  0.00    +0.000 C 
BRANCH  21  23
ATOM     22  C   UNL     1      41.571   2.729  12.429  0.00  0.00    +0.000 C 
ATOM     23  C   UNL     1      41.196   1.242  12.432  0.00  0.00    +0.000 C 
ENDBRANCH  21  23
ENDBRANCH  20  21
ENDBRANCH  19  20
ENDBRANCH  18  19
ENDBRANCH  17  18
ENDBRANCH  15  17
ENDBRANCH   1  15
BRANCH   4  24
ATOM     24  C   UNL     1      36.197   1.177  14.398  0.00  0.00    +0.000 C 
ATOM     25  C   UNL     1      35.362   0.823  15.781  0.00  0.00    +0.000 C 
BRANCH  24  26
ATOM     26  C   UNL     1      37.197   2.287  15.018  0.00  0.00    +0.000 A 
ATOM     27  C   UNL     1      38.351   2.607  14.462  0.00  0.00    +0.000 A 
ATOM     28  C   UNL     1      39.118   3.573  15.089  0.00  0.00    +0.000 A 
ATOM     29  C   UNL     1      38.692   4.188  16.264  0.00  0.00    +0.000 A 
ATOM     30  C   UNL     1      37.478   3.819  16.805  0.00  0.00    +0.000 A 
ATOM     31  C   UNL     1      36.702   2.856  16.191  0.00  0.00    +0.000 A 
ENDBRANCH  24  26
ENDBRANCH   4  24
TORSDOF 9
ENDMDL
MODEL 10
REMARK VINA RESULT:      -7.0      3.609      7.118
REMARK  Name = 
REMARK  9 active torsions:
REMARK  status: ('A' for Active; 'I' for Inactive)
REMARK    1  A    between atoms: C_2  and  C_3
REMARK    2  A    between atoms: C_3  and  C_4
REMARK    3  A    between atoms: C_4  and  C_5
REMARK    4  A    between atoms: C_5  and  C_6
REMARK    5  A    between atoms: C_6  and  O_7
REMARK    6  A    between atoms: O_7  and  C_8
REMARK    7  A    between atoms: C_8  and  C_10
REMARK    8  A    between atoms: N_13  and  C_14
REMARK    9  A    between atoms: C_14  and  C_16
REMARK                            x       y       z     vdW  Elec       q    Type
REMARK                         _______ _______ _______ _____ _____    ______ ____
ROOT
ATOM      1  C   UNL     1      39.439  -1.122  14.974  0.00  0.00    +0.000 A 
ATOM      2  C   UNL     1      39.186  -2.177  15.861  0.00  0.00    +0.000 A 
ATOM      3  N   UNL     1      39.993  -3.326  16.086  0.00  0.00    +0.000 NA
ATOM      4  N   UNL     1      38.022  -1.879  16.457  0.00  0.00    +0.000 N 
ATOM      5  C   UNL     1      37.553  -0.743  16.009  0.00  0.00    +0.000 A 
ATOM      6  N   UNL     1      36.434  -0.070  16.321  0.00  0.00    +0.000 NA
ATOM      7  C   UNL     1      36.162   1.099  15.715  0.00  0.00    +0.000 A 
ATOM      8  C   UNL     1      35.014   1.805  16.024  0.00  0.00    +0.000 A 
ATOM      9  C   UNL     1      34.683   3.006  15.440  0.00  0.00    +0.000 A 
ATOM     10  C   UNL     1      35.534   3.541  14.495  0.00  0.00    +0.000 A 
ATOM     11  C   UNL     1      36.692   2.864  14.159  0.00  0.00    +0.000 A 
ATOM     12  C   UNL     1      36.995   1.661  14.765  0.00  0.00    +0.000 A 
ATOM     13  N   UNL     1      38.104   0.952  14.484  0.00  0.00    +0.000 NA
ATOM     14  C   UNL     1      38.411  -0.212  15.061  0.00  0.00    +0.000 A 
ENDROOT
BRANCH   1  15
ATOM     15  C   UNL     1      40.595  -1.025  14.117  0.00  0.00    +0.000 C 
ATOM     16  O   UNL     1      41.442  -0.120  14.284  0.00  0.00    +0.000 OA
BRANCH  15  17
ATOM     17  O   UNL     1      40.811  -1.916  13.088  0.00  0.00    +0.000 OA
BRANCH  17  18
ATOM     18  C   UNL     1      39.778  -2.310  12.206  0.00  0.00    +0.000 C 
BRANCH  18  19
ATOM     19  C   UNL     1      40.078  -1.727  10.842  0.00  0.00    +0.000 C 
BRANCH  19  20
ATOM     20  C   UNL     1      40.433  -2.901   9.947  0.00  0.00    +0.000 C 
BRANCH  20  21
ATOM     21  C   UNL     1      41.201  -2.404   8.749  0.00  0.00    +0.000 C 
BRANCH  21  23
ATOM     22  C   UNL     1      40.122  -1.286   6.867  0.00  0.00    +0.000 C 
ATOM     23  C   UNL     1      40.613  -1.080   8.305  0.00  0.00    +0.000 C 
ENDBRANCH  21  23
ENDBRANCH  20  21
ENDBRANCH  19  20
ENDBRANCH  18  19
ENDBRANCH  17  18
ENDBRANCH  15  17
ENDBRANCH   1  15
BRANCH   4  24
ATOM     24  C   UNL     1      37.375  -2.817  17.528  0.00  0.00    +0.000 C 
ATOM     25  C   UNL     1      36.587  -1.606  18.333  0.00  0.00    +0.000 C 
BRANCH  24  26
ATOM     26  C   UNL     1      36.139  -3.322  16.616  0.00  0.00    +0.000 A 
ATOM     27  C   UNL     1      34.922  -2.820  16.713  0.00  0.00    +0.000 A 
ATOM     28  C   UNL     1      33.948  -3.337  15.876  0.00  0.00    +0.000 A 
ATOM     29  C   UNL     1      34.237  -4.348  14.963  0.00  0.00    +0.000 A 
ATOM     30  C   UNL     1      35.525  -4.838  14.901  0.00  0.00    +0.000 A 
ATOM     31  C   UNL     1      36.508  -4.334  15.730  0.00  0.00    +0.000 A 
ENDBRANCH  24  26
ENDBRANCH   4  24
TORSDOF 9
ENDMDL
