MODEL 1
REMARK VINA RESULT:      -7.6      0.000      0.000
REMARK  Name = 
REMARK  3 active torsions:
REMARK  status: ('A' for Active; 'I' for Inactive)
REMARK    1  A    between atoms: C_5  and  C_6
REMARK    2  A    between atoms: N_8  and  C_9
REMARK    3  A    between atoms: C_11  and  N_12
REMARK                            x       y       z     vdW  Elec       q    Type
REMARK                         _______ _______ _______ _____ _____    ______ ____
ROOT
ATOM      1  C   UNL     1      16.137  11.540  36.446  0.00  0.00    +0.000 C 
ATOM      2  O   UNL     1      16.721  12.644  36.263  0.00  0.00    +0.000 OA
ATOM      3  N   UNL     1      15.560  10.917  35.324  0.00  0.00    +0.000 NA
ENDROOT
BRANCH   1   8
ATOM      4  C   UNL     1      15.906   9.072  41.654  0.00  0.00    +0.000 C 
ATOM      5  C   UNL     1      15.987   9.703  40.309  0.00  0.00    +0.000 A 
ATOM      6  C   UNL     1      14.878  10.321  39.770  0.00  0.00    +0.000 A 
ATOM      7  C   UNL     1      14.900  10.924  38.521  0.00  0.00    +0.000 A 
ATOM      8  C   UNL     1      16.055  10.922  37.767  0.00  0.00    +0.000 A 
ATOM      9  C   UNL     1      17.169  10.304  38.301  0.00  0.00    +0.000 A 
ATOM     10  C   UNL     1      18.427  10.294  37.497  0.00  0.00    +0.000 C 
ATOM     11  C   UNL     1      17.140   9.704  39.550  0.00  0.00    +0.000 A 
ENDBRANCH   1   8
BRANCH   3  12
ATOM     12  C   UNL     1      15.592  11.440  34.016  0.00  0.00    +0.000 A 
ATOM     13  C   UNL     1      14.670  12.394  33.658  0.00  0.00    +0.000 A 
ATOM     14  C   UNL     1      14.631  12.957  32.399  0.00  0.00    +0.000 A 
ATOM     15  C   UNL     1      15.571  12.515  31.495  0.00  0.00    +0.000 A 
ATOM     16  C   UNL     1      16.508  11.558  31.830  0.00  0.00    +0.000 A 
ATOM     17  C   UNL     1      16.524  11.006  33.108  0.00  0.00    +0.000 A 
ATOM     18  C   UNL     1      17.549   9.966  33.453  0.00  0.00    +0.000 C 
BRANCH  14  19
ATOM     19  N   UNL     1      13.658  13.954  32.047  0.00  0.00    +0.000 N 
ATOM     20  O   UNL     1      13.154  13.920  30.906  0.00  0.00    +0.000 OA
ATOM     21  O   UNL     1      13.282  14.923  32.928  0.00  0.00    +0.000 OA
ENDBRANCH  14  19
ENDBRANCH   3  12
TORSDOF 3
ENDMDL
MODEL 2
REMARK VINA RESULT:      -7.2      2.478      7.396
REMARK  Name = 
REMARK  3 active torsions:
REMARK  status: ('A' for Active; 'I' for Inactive)
REMARK    1  A    between atoms: C_5  and  C_6
REMARK    2  A    between atoms: N_8  and  C_9
REMARK    3  A    between atoms: C_11  and  N_12
REMARK                            x       y       z     vdW  Elec       q    Type
REMARK                         _______ _______ _______ _____ _____    ______ ____
ROOT
ATOM      1  C   UNL     1      15.497  12.268  36.236  0.00  0.00    +0.000 C 
ATOM      2  O   UNL     1      16.270  13.009  36.902  0.00  0.00    +0.000 OA
ATOM      3  N   UNL     1      15.135  11.032  36.804  0.00  0.00    +0.000 NA
ENDROOT
BRANCH   1   8
ATOM      4  C   UNL     1      13.549  13.757  31.015  0.00  0.00    +0.000 C 
ATOM      5  C   UNL     1      14.065  13.358  32.353  0.00  0.00    +0.000 A 
ATOM      6  C   UNL     1      13.611  13.999  33.486  0.00  0.00    +0.000 A 
ATOM      7  C   UNL     1      14.058  13.666  34.756  0.00  0.00    +0.000 A 
ATOM      8  C   UNL     1      14.990  12.662  34.924  0.00  0.00    +0.000 A 
ATOM      9  C   UNL     1      15.448  12.016  33.793  0.00  0.00    +0.000 A 
ATOM     10  C   UNL     1      16.457  10.927  33.959  0.00  0.00    +0.000 C 
ATOM     11  C   UNL     1      14.997  12.355  32.528  0.00  0.00    +0.000 A 
ENDBRANCH   1   8
BRANCH   3  12
ATOM     12  C   UNL     1      15.575  10.571  38.061  0.00  0.00    +0.000 A 
ATOM     13  C   UNL     1      16.904  10.264  38.229  0.00  0.00    +0.000 A 
ATOM     14  C   UNL     1      17.418   9.807  39.426  0.00  0.00    +0.000 A 
ATOM     15  C   UNL     1      16.528   9.665  40.466  0.00  0.00    +0.000 A 
ATOM     16  C   UNL     1      15.187   9.967  40.322  0.00  0.00    +0.000 A 
ATOM     17  C   UNL     1      14.696  10.426  39.103  0.00  0.00    +0.000 A 
ATOM     18  C   UNL     1      13.237  10.747  38.967  0.00  0.00    +0.000 C 
BRANCH  14  19
ATOM     19  N   UNL     1      18.811   9.493  39.579  0.00  0.00    +0.000 N 
ATOM     20  O   UNL     1      19.293   9.460  40.729  0.00  0.00    +0.000 OA
ATOM     21  O   UNL     1      19.604   9.233  38.502  0.00  0.00    +0.000 OA
ENDBRANCH  14  19
ENDBRANCH   3  12
TORSDOF 3
ENDMDL
MODEL 3
REMARK VINA RESULT:      -7.0      2.987      7.598
REMARK  Name = 
REMARK  3 active torsions:
REMARK  status: ('A' for Active; 'I' for Inactive)
REMARK    1  A    between atoms: C_5  and  C_6
REMARK    2  A    between atoms: N_8  and  C_9
REMARK    3  A    between atoms: C_11  and  N_12
REMARK                            x       y       z     vdW  Elec       q    Type
REMARK                         _______ _______ _______ _____ _____    ______ ____
ROOT
ATOM      1  C   UNL     1      16.835  10.408  34.948  0.00  0.00    +0.000 C 
ATOM      2  O   UNL     1      16.904   9.153  35.051  0.00  0.00    +0.000 OA
ATOM      3  N   UNL     1      17.364  11.176  36.002  0.00  0.00    +0.000 NA
ENDROOT
BRANCH   1   8
ATOM      4  C   UNL     1      14.385  13.010  30.421  0.00  0.00    +0.000 C 
ATOM      5  C   UNL     1      15.003  12.349  31.602  0.00  0.00    +0.000 A 
ATOM      6  C   UNL     1      16.038  11.455  31.429  0.00  0.00    +0.000 A 
ATOM      7  C   UNL     1      16.649  10.813  32.495  0.00  0.00    +0.000 A 
ATOM      8  C   UNL     1      16.229  11.055  33.786  0.00  0.00    +0.000 A 
ATOM      9  C   UNL     1      15.193  11.949  33.967  0.00  0.00    +0.000 A 
ATOM     10  C   UNL     1      14.727  12.222  35.360  0.00  0.00    +0.000 C 
ATOM     11  C   UNL     1      14.587  12.587  32.897  0.00  0.00    +0.000 A 
ENDBRANCH   1   8
BRANCH   3  12
ATOM     12  C   UNL     1      17.965  10.638  37.158  0.00  0.00    +0.000 A 
ATOM     13  C   UNL     1      19.313  10.369  37.144  0.00  0.00    +0.000 A 
ATOM     14  C   UNL     1      19.980   9.842  38.231  0.00  0.00    +0.000 A 
ATOM     15  C   UNL     1      19.225   9.590  39.356  0.00  0.00    +0.000 A 
ATOM     16  C   UNL     1      17.870   9.853  39.395  0.00  0.00    +0.000 A 
ATOM     17  C   UNL     1      17.223  10.384  38.282  0.00  0.00    +0.000 A 
ATOM     18  C   UNL     1      15.749  10.661  38.345  0.00  0.00    +0.000 C 
BRANCH  14  19
ATOM     19  N   UNL     1      21.389   9.569  38.194  0.00  0.00    +0.000 N 
ATOM     20  O   UNL     1      21.978   9.618  37.096  0.00  0.00    +0.000 OA
ATOM     21  O   UNL     1      22.084   9.262  39.326  0.00  0.00    +0.000 OA
ENDBRANCH  14  19
ENDBRANCH   3  12
TORSDOF 3
ENDMDL
MODEL 4
REMARK VINA RESULT:      -6.9      2.785      7.340
REMARK  Name = 
REMARK  3 active torsions:
REMARK  status: ('A' for Active; 'I' for Inactive)
REMARK    1  A    between atoms: C_5  and  C_6
REMARK    2  A    between atoms: N_8  and  C_9
REMARK    3  A    between atoms: C_11  and  N_12
REMARK                            x       y       z     vdW  Elec       q    Type
REMARK                         _______ _______ _______ _____ _____    ______ ____
ROOT
ATOM      1  C   UNL     1      16.988  11.325  35.699  0.00  0.00    +0.000 C 
ATOM      2  O   UNL     1      17.418  12.334  36.322  0.00  0.00    +0.000 OA
ATOM      3  N   UNL     1      17.111  10.072  36.328  0.00  0.00    +0.000 NA
ENDROOT
BRANCH   1   8
ATOM      4  C   UNL     1      14.528  11.823  30.505  0.00  0.00    +0.000 C 
ATOM      5  C   UNL     1      15.147  11.706  31.854  0.00  0.00    +0.000 A 
ATOM      6  C   UNL     1      16.315  10.992  32.017  0.00  0.00    +0.000 A 
ATOM      7  C   UNL     1      16.932  10.853  33.251  0.00  0.00    +0.000 A 
ATOM      8  C   UNL     1      16.383  11.437  34.373  0.00  0.00    +0.000 A 
ATOM      9  C   UNL     1      15.213  12.154  34.217  0.00  0.00    +0.000 A 
ATOM     10  C   UNL     1      14.606  12.793  35.423  0.00  0.00    +0.000 C 
ATOM     11  C   UNL     1      14.602  12.289  32.981  0.00  0.00    +0.000 A 
ENDBRANCH   1   8
BRANCH   3  12
ATOM     12  C   UNL     1      17.679   9.871  37.602  0.00  0.00    +0.000 A 
ATOM     13  C   UNL     1      16.856   9.845  38.701  0.00  0.00    +0.000 A 
ATOM     14  C   UNL     1      17.329   9.653  39.984  0.00  0.00    +0.000 A 
ATOM     15  C   UNL     1      18.689   9.487  40.121  0.00  0.00    +0.000 A 
ATOM     16  C   UNL     1      19.538   9.509  39.031  0.00  0.00    +0.000 A 
ATOM     17  C   UNL     1      19.032   9.704  37.749  0.00  0.00    +0.000 A 
ATOM     18  C   UNL     1      19.971   9.726  36.578  0.00  0.00    +0.000 C 
BRANCH  14  19
ATOM     19  N   UNL     1      16.449   9.629  41.118  0.00  0.00    +0.000 N 
ATOM     20  O   UNL     1      16.897   9.981  42.228  0.00  0.00    +0.000 OA
ATOM     21  O   UNL     1      15.150   9.234  41.003  0.00  0.00    +0.000 OA
ENDBRANCH  14  19
ENDBRANCH   3  12
TORSDOF 3
ENDMDL
MODEL 5
REMARK VINA RESULT:      -6.8     18.315     19.723
REMARK  Name = 
REMARK  3 active torsions:
REMARK  status: ('A' for Active; 'I' for Inactive)
REMARK    1  A    between atoms: C_5  and  C_6
REMARK    2  A    between atoms: N_8  and  C_9
REMARK    3  A    between atoms: C_11  and  N_12
REMARK                            x       y       z     vdW  Elec       q    Type
REMARK                         _______ _______ _______ _____ _____    ______ ____
ROOT
ATOM      1  C   UNL     1      29.439  23.398  27.756  0.00  0.00    +0.000 C 
ATOM      2  O   UNL     1      29.279  24.625  27.512  0.00  0.00    +0.000 OA
ATOM      3  N   UNL     1      29.269  22.496  26.689  0.00  0.00    +0.000 NA
ENDROOT
BRANCH   1   8
ATOM      4  C   UNL     1      30.904  21.492  32.999  0.00  0.00    +0.000 C 
ATOM      5  C   UNL     1      30.547  21.983  31.640  0.00  0.00    +0.000 A 
ATOM      6  C   UNL     1      29.232  22.261  31.331  0.00  0.00    +0.000 A 
ATOM      7  C   UNL     1      28.846  22.721  30.082  0.00  0.00    +0.000 A 
ATOM      8  C   UNL     1      29.786  22.916  29.091  0.00  0.00    +0.000 A 
ATOM      9  C   UNL     1      31.105  22.638  29.394  0.00  0.00    +0.000 A 
ATOM     10  C   UNL     1      32.135  22.844  28.332  0.00  0.00    +0.000 C 
ATOM     11  C   UNL     1      31.483  22.179  30.645  0.00  0.00    +0.000 A 
ENDBRANCH   1   8
BRANCH   3  12
ATOM     12  C   UNL     1      28.936  22.871  25.372  0.00  0.00    +0.000 A 
ATOM     13  C   UNL     1      27.611  22.949  25.017  0.00  0.00    +0.000 A 
ATOM     14  C   UNL     1      27.197  23.308  23.750  0.00  0.00    +0.000 A 
ATOM     15  C   UNL     1      28.187  23.589  22.835  0.00  0.00    +0.000 A 
ATOM     16  C   UNL     1      29.526  23.518  23.167  0.00  0.00    +0.000 A 
ATOM     17  C   UNL     1      29.913  23.153  24.453  0.00  0.00    +0.000 A 
ATOM     18  C   UNL     1      31.373  23.081  24.793  0.00  0.00    +0.000 C 
BRANCH  14  19
ATOM     19  N   UNL     1      25.806  23.383  23.402  0.00  0.00    +0.000 N 
ATOM     20  O   UNL     1      25.038  24.022  24.148  0.00  0.00    +0.000 OA
ATOM     21  O   UNL     1      25.319  22.776  22.283  0.00  0.00    +0.000 OA
ENDBRANCH  14  19
ENDBRANCH   3  12
TORSDOF 3
ENDMDL
MODEL 6
REMARK VINA RESULT:      -6.7     18.257     19.452
REMARK  Name = 
REMARK  3 active torsions:
REMARK  status: ('A' for Active; 'I' for Inactive)
REMARK    1  A    between atoms: C_5  and  C_6
REMARK    2  A    between atoms: N_8  and  C_9
REMARK    3  A    between atoms: C_11  and  N_12
REMARK                            x       y       z     vdW  Elec       q    Type
REMARK                         _______ _______ _______ _____ _____    ______ ____
ROOT
ATOM      1  C   UNL     1      29.788  23.156  28.339  0.00  0.00    +0.000 C 
ATOM      2  O   UNL     1      29.794  24.386  28.059  0.00  0.00    +0.000 OA
ATOM      3  N   UNL     1      28.731  22.380  27.830  0.00  0.00    +0.000 NA
ENDROOT
BRANCH   1   8
ATOM      4  C   UNL     1      33.852  20.766  31.662  0.00  0.00    +0.000 C 
ATOM      5  C   UNL     1      32.791  21.386  30.823  0.00  0.00    +0.000 A 
ATOM      6  C   UNL     1      32.968  21.498  29.460  0.00  0.00    +0.000 A 
ATOM      7  C   UNL     1      32.012  22.066  28.632  0.00  0.00    +0.000 A 
ATOM      8  C   UNL     1      30.832  22.547  29.161  0.00  0.00    +0.000 A 
ATOM      9  C   UNL     1      30.648  22.439  30.525  0.00  0.00    +0.000 A 
ATOM     10  C   UNL     1      29.376  22.955  31.113  0.00  0.00    +0.000 C 
ATOM     11  C   UNL     1      31.608  21.869  31.346  0.00  0.00    +0.000 A 
ENDBRANCH   1   8
BRANCH   3  12
ATOM     12  C   UNL     1      27.685  22.881  27.030  0.00  0.00    +0.000 A 
ATOM     13  C   UNL     1      27.785  22.783  25.664  0.00  0.00    +0.000 A 
ATOM     14  C   UNL     1      26.806  23.248  24.808  0.00  0.00    +0.000 A 
ATOM     15  C   UNL     1      25.702  23.829  25.391  0.00  0.00    +0.000 A 
ATOM     16  C   UNL     1      25.578  23.940  26.762  0.00  0.00    +0.000 A 
ATOM     17  C   UNL     1      26.581  23.462  27.601  0.00  0.00    +0.000 A 
ATOM     18  C   UNL     1      26.428  23.593  29.088  0.00  0.00    +0.000 C 
BRANCH  14  19
ATOM     19  N   UNL     1      26.932  23.134  23.382  0.00  0.00    +0.000 N 
ATOM     20  O   UNL     1      28.075  23.063  22.888  0.00  0.00    +0.000 OA
ATOM     21  O   UNL     1      25.837  23.101  22.572  0.00  0.00    +0.000 OA
ENDBRANCH  14  19
ENDBRANCH   3  12
TORSDOF 3
ENDMDL
MODEL 7
REMARK VINA RESULT:      -6.6     20.437     22.687
REMARK  Name = 
REMARK  3 active torsions:
REMARK  status: ('A' for Active; 'I' for Inactive)
REMARK    1  A    between atoms: C_5  and  C_6
REMARK    2  A    between atoms: N_8  and  C_9
REMARK    3  A    between atoms: C_11  and  N_12
REMARK                            x       y       z     vdW  Elec       q    Type
REMARK                         _______ _______ _______ _____ _____    ______ ____
ROOT
ATOM      1  C   UNL     1      33.222  -0.273  34.671  0.00  0.00    +0.000 C 
ATOM      2  O   UNL     1      32.100  -0.741  35.009  0.00  0.00    +0.000 OA
ATOM      3  N   UNL     1      34.231  -1.191  34.327  0.00  0.00    +0.000 NA
ENDROOT
BRANCH   1   8
ATOM      4  C   UNL     1      34.256   5.401  34.619  0.00  0.00    +0.000 C 
ATOM      5  C   UNL     1      33.994   3.937  34.654  0.00  0.00    +0.000 A 
ATOM      6  C   UNL     1      33.609   3.278  33.505  0.00  0.00    +0.000 A 
ATOM      7  C   UNL     1      33.353   1.915  33.483  0.00  0.00    +0.000 A 
ATOM      8  C   UNL     1      33.478   1.165  34.634  0.00  0.00    +0.000 A 
ATOM      9  C   UNL     1      33.863   1.819  35.788  0.00  0.00    +0.000 A 
ATOM     10  C   UNL     1      34.003   1.020  37.042  0.00  0.00    +0.000 C 
ATOM     11  C   UNL     1      34.117   3.181  35.802  0.00  0.00    +0.000 A 
ENDBRANCH   1   8
BRANCH   3  12
ATOM     12  C   UNL     1      34.073  -2.591  34.335  0.00  0.00    +0.000 A 
ATOM     13  C   UNL     1      33.607  -3.215  33.202  0.00  0.00    +0.000 A 
ATOM     14  C   UNL     1      33.423  -4.581  33.124  0.00  0.00    +0.000 A 
ATOM     15  C   UNL     1      33.731  -5.310  34.251  0.00  0.00    +0.000 A 
ATOM     16  C   UNL     1      34.201  -4.707  35.402  0.00  0.00    +0.000 A 
ATOM     17  C   UNL     1      34.377  -3.327  35.452  0.00  0.00    +0.000 A 
ATOM     18  C   UNL     1      34.888  -2.691  36.711  0.00  0.00    +0.000 C 
BRANCH  14  19
ATOM     19  N   UNL     1      32.935  -5.210  31.930  0.00  0.00    +0.000 N 
ATOM     20  O   UNL     1      33.475  -4.928  30.842  0.00  0.00    +0.000 OA
ATOM     21  O   UNL     1      31.904  -6.102  31.966  0.00  0.00    +0.000 OA
ENDBRANCH  14  19
ENDBRANCH   3  12
TORSDOF 3
ENDMDL
MODEL 8
REMARK VINA RESULT:      -6.6     18.954     20.766
REMARK  Name = 
REMARK  3 active torsions:
REMARK  status: ('A' for Active; 'I' for Inactive)
REMARK    1  A    between atoms: C_5  and  C_6
REMARK    2  A    between atoms: N_8  and  C_9
REMARK    3  A    between atoms: C_11  and  N_12
REMARK                            x       y       z     vdW  Elec       q    Type
REMARK                         _______ _______ _______ _____ _____    ______ ____
ROOT
ATOM      1  C   UNL     1      25.295  25.872  25.308  0.00  0.00    +0.000 C 
ATOM      2  O   UNL     1      26.242  26.689  25.475  0.00  0.00    +0.000 OA
ATOM      3  N   UNL     1      25.584  24.672  24.632  0.00  0.00    +0.000 NA
ENDROOT
BRANCH   1   8
ATOM      4  C   UNL     1      19.989  26.934  27.307  0.00  0.00    +0.000 C 
ATOM      5  C   UNL     1      21.364  26.654  26.811  0.00  0.00    +0.000 A 
ATOM      6  C   UNL     1      21.682  26.889  25.490  0.00  0.00    +0.000 A 
ATOM      7  C   UNL     1      22.947  26.645  24.978  0.00  0.00    +0.000 A 
ATOM      8  C   UNL     1      23.944  26.149  25.792  0.00  0.00    +0.000 A 
ATOM      9  C   UNL     1      23.632  25.911  27.116  0.00  0.00    +0.000 A 
ATOM     10  C   UNL     1      24.701  25.373  28.010  0.00  0.00    +0.000 C 
ATOM     11  C   UNL     1      22.366  26.157  27.621  0.00  0.00    +0.000 A 
ENDBRANCH   1   8
BRANCH   3  12
ATOM     12  C   UNL     1      26.854  24.323  24.133  0.00  0.00    +0.000 A 
ATOM     13  C   UNL     1      27.301  24.914  22.975  0.00  0.00    +0.000 A 
ATOM     14  C   UNL     1      28.531  24.629  22.418  0.00  0.00    +0.000 A 
ATOM     15  C   UNL     1      29.310  23.708  23.082  0.00  0.00    +0.000 A 
ATOM     16  C   UNL     1      28.884  23.100  24.247  0.00  0.00    +0.000 A 
ATOM     17  C   UNL     1      27.638  23.407  24.786  0.00  0.00    +0.000 A 
ATOM     18  C   UNL     1      27.193  22.734  26.052  0.00  0.00    +0.000 C 
BRANCH  14  19
ATOM     19  N   UNL     1      28.977  25.260  21.208  0.00  0.00    +0.000 N 
ATOM     20  O   UNL     1      29.780  24.648  20.477  0.00  0.00    +0.000 OA
ATOM     21  O   UNL     1      28.540  26.500  20.849  0.00  0.00    +0.000 OA
ENDBRANCH  14  19
ENDBRANCH   3  12
TORSDOF 3
ENDMDL
MODEL 9
REMARK VINA RESULT:      -6.6      3.051      5.375
REMARK  Name = 
REMARK  3 active torsions:
REMARK  status: ('A' for Active; 'I' for Inactive)
REMARK    1  A    between atoms: C_5  and  C_6
REMARK    2  A    between atoms: N_8  and  C_9
REMARK    3  A    between atoms: C_11  and  N_12
REMARK                            x       y       z     vdW  Elec       q    Type
REMARK                         _______ _______ _______ _____ _____    ______ ____
ROOT
ATOM      1  C   UNL     1      19.418  10.931  37.756  0.00  0.00    +0.000 C 
ATOM      2  O   UNL     1      19.232  12.158  37.981  0.00  0.00    +0.000 OA
ATOM      3  N   UNL     1      18.292  10.156  37.420  0.00  0.00    +0.000 NA
ENDROOT
BRANCH   1   8
ATOM      4  C   UNL     1      24.643   8.526  38.178  0.00  0.00    +0.000 C 
ATOM      5  C   UNL     1      23.293   9.145  38.091  0.00  0.00    +0.000 A 
ATOM      6  C   UNL     1      22.773   9.496  36.862  0.00  0.00    +0.000 A 
ATOM      7  C   UNL     1      21.521  10.075  36.726  0.00  0.00    +0.000 A 
ATOM      8  C   UNL     1      20.744  10.323  37.838  0.00  0.00    +0.000 A 
ATOM      9  C   UNL     1      21.259   9.975  39.071  0.00  0.00    +0.000 A 
ATOM     10  C   UNL     1      20.429  10.237  40.285  0.00  0.00    +0.000 C 
ATOM     11  C   UNL     1      22.511   9.396  39.200  0.00  0.00    +0.000 A 
ENDBRANCH   1   8
BRANCH   3  12
ATOM     12  C   UNL     1      16.979  10.657  37.317  0.00  0.00    +0.000 A 
ATOM     13  C   UNL     1      16.577  11.233  36.136  0.00  0.00    +0.000 A 
ATOM     14  C   UNL     1      15.310  11.749  35.951  0.00  0.00    +0.000 A 
ATOM     15  C   UNL     1      14.446  11.662  37.020  0.00  0.00    +0.000 A 
ATOM     16  C   UNL     1      14.826  11.087  38.217  0.00  0.00    +0.000 A 
ATOM     17  C   UNL     1      16.111  10.575  38.375  0.00  0.00    +0.000 A 
ATOM     18  C   UNL     1      16.505   9.955  39.684  0.00  0.00    +0.000 C 
BRANCH  14  19
ATOM     19  N   UNL     1      14.911  12.346  34.708  0.00  0.00    +0.000 N 
ATOM     20  O   UNL     1      14.198  13.369  34.738  0.00  0.00    +0.000 OA
ATOM     21  O   UNL     1      15.297  11.822  33.510  0.00  0.00    +0.000 OA
ENDBRANCH  14  19
ENDBRANCH   3  12
TORSDOF 3
ENDMDL
MODEL 10
REMARK VINA RESULT:      -6.5     21.293     23.665
REMARK  Name = 
REMARK  3 active torsions:
REMARK  status: ('A' for Active; 'I' for Inactive)
REMARK    1  A    between atoms: C_5  and  C_6
REMARK    2  A    between atoms: N_8  and  C_9
REMARK    3  A    between atoms: C_11  and  N_12
REMARK                            x       y       z     vdW  Elec       q    Type
REMARK                         _______ _______ _______ _____ _____    ______ ____
ROOT
ATOM      1  C   UNL     1      22.303  -8.548  24.385  0.00  0.00    +0.000 C 
ATOM      2  O   UNL     1      21.321  -8.781  23.628  0.00  0.00    +0.000 OA
ATOM      3  N   UNL     1      22.044  -8.416  25.762  0.00  0.00    +0.000 NA
ENDROOT
BRANCH   1   8
ATOM      4  C   UNL     1      27.664  -7.933  22.349  0.00  0.00    +0.000 C 
ATOM      5  C   UNL     1      26.280  -8.070  22.877  0.00  0.00    +0.000 A 
ATOM      6  C   UNL     1      25.710  -9.320  23.002  0.00  0.00    +0.000 A 
ATOM      7  C   UNL     1      24.425  -9.503  23.488  0.00  0.00    +0.000 A 
ATOM      8  C   UNL     1      23.663  -8.417  23.867  0.00  0.00    +0.000 A 
ATOM      9  C   UNL     1      24.227  -7.162  23.744  0.00  0.00    +0.000 A 
ATOM     10  C   UNL     1      23.415  -5.977  24.150  0.00  0.00    +0.000 C 
ATOM     11  C   UNL     1      25.512  -6.987  23.257  0.00  0.00    +0.000 A 
ENDBRANCH   1   8
BRANCH   3  12
ATOM     12  C   UNL     1      20.767  -8.527  26.349  0.00  0.00    +0.000 A 
ATOM     13  C   UNL     1      19.930  -7.438  26.333  0.00  0.00    +0.000 A 
ATOM     14  C   UNL     1      18.665  -7.461  26.885  0.00  0.00    +0.000 A 
ATOM     15  C   UNL     1      18.267  -8.644  27.466  0.00  0.00    +0.000 A 
ATOM     16  C   UNL     1      19.090  -9.753  27.495  0.00  0.00    +0.000 A 
ATOM     17  C   UNL     1      20.361  -9.701  26.930  0.00  0.00    +0.000 A 
ATOM     18  C   UNL     1      21.241 -10.916  26.972  0.00  0.00    +0.000 C 
BRANCH  14  19
ATOM     19  N   UNL     1      17.807  -6.310  26.857  0.00  0.00    +0.000 N 
ATOM     20  O   UNL     1      16.611  -6.449  27.181  0.00  0.00    +0.000 OA
ATOM     21  O   UNL     1      18.273  -5.084  26.487  0.00  0.00    +0.000 OA
ENDBRANCH  14  19
ENDBRANCH   3  12
TORSDOF 3
ENDMDL
