MODEL 1
REMARK VINA RESULT:      -6.6      0.000      0.000
REMARK  Name = 
REMARK  3 active torsions:
REMARK  status: ('A' for Active; 'I' for Inactive)
REMARK    1  A    between atoms: C_9  and  O_10
REMARK    2  A    between atoms: O_10  and  C_11
REMARK    3  A    between atoms: C_11  and  C_13
REMARK                            x       y       z     vdW  Elec       q    Type
REMARK                         _______ _______ _______ _____ _____    ______ ____
ROOT
ATOM      1  C   UNL     1      32.894  23.011  10.670  0.00  0.00    +0.000 C 
ATOM      2  C   UNL     1      33.220  21.834   9.877  0.00  0.00    +0.000 C 
ATOM      3  C   UNL     1      34.515  22.119   9.020  0.00  0.00    +0.000 C 
ATOM      4  C   UNL     1      32.199  21.671   8.623  0.00  0.00    +0.000 C 
ATOM      5  C   UNL     1      33.094  20.472   7.951  0.00  0.00    +0.000 C 
ATOM      6  C   UNL     1      33.529  19.663   9.142  0.00  0.00    +0.000 C 
ATOM      7  C   UNL     1      33.315  20.509  10.364  0.00  0.00    +0.000 C 
ATOM      8  C   UNL     1      34.159  20.225  11.513  0.00  0.00    +0.000 C 
ATOM      9  C   UNL     1      31.776  20.384  10.757  0.00  0.00    +0.000 C 
ATOM     10  C   UNL     1      31.144  20.668   9.313  0.00  0.00    +0.000 C 
ENDROOT
BRANCH   9  11
ATOM     11  O   UNL     1      31.569  21.685  11.463  0.00  0.00    +0.000 OA
BRANCH  11  12
ATOM     12  C   UNL     1      30.661  21.795  12.453  0.00  0.00    +0.000 C 
ATOM     13  O   UNL     1      31.066  21.241  13.536  0.00  0.00    +0.000 OA
BRANCH  12  14
ATOM     14  C   UNL     1      29.353  22.439  12.422  0.00  0.00    +0.000 A 
ATOM     15  C   UNL     1      28.459  22.125  11.418  0.00  0.00    +0.000 A 
ATOM     16  C   UNL     1      27.202  22.693  11.327  0.00  0.00    +0.000 A 
ATOM     17  C   UNL     1      26.789  23.616  12.259  0.00  0.00    +0.000 A 
ATOM     18  O   UNL     1      25.537  24.226  12.226  0.00  0.00    +0.000 OA
ATOM     19  C   UNL     1      27.657  23.950  13.273  0.00  0.00    +0.000 A 
ATOM     20  C   UNL     1      28.904  23.363  13.332  0.00  0.00    +0.000 A 
ENDBRANCH  12  14
ENDBRANCH  11  12
ENDBRANCH   9  11
TORSDOF 3
ENDMDL
MODEL 2
REMARK VINA RESULT:      -6.3     13.253     16.390
REMARK  Name = 
REMARK  3 active torsions:
REMARK  status: ('A' for Active; 'I' for Inactive)
REMARK    1  A    between atoms: C_9  and  O_10
REMARK    2  A    between atoms: O_10  and  C_11
REMARK    3  A    between atoms: C_11  and  C_13
REMARK                            x       y       z     vdW  Elec       q    Type
REMARK                         _______ _______ _______ _____ _____    ______ ____
ROOT
ATOM      1  C   UNL     1      28.611  21.994  27.470  0.00  0.00    +0.000 C 
ATOM      2  C   UNL     1      28.438  23.033  28.477  0.00  0.00    +0.000 C 
ATOM      3  C   UNL     1      29.548  22.879  29.588  0.00  0.00    +0.000 C 
ATOM      4  C   UNL     1      27.166  22.713  29.437  0.00  0.00    +0.000 C 
ATOM      5  C   UNL     1      27.549  23.923  30.476  0.00  0.00    +0.000 C 
ATOM      6  C   UNL     1      28.000  25.028  29.560  0.00  0.00    +0.000 C 
ATOM      7  C   UNL     1      28.283  24.416  28.219  0.00  0.00    +0.000 C 
ATOM      8  C   UNL     1      29.247  25.103  27.376  0.00  0.00    +0.000 C 
ATOM      9  C   UNL     1      26.885  24.271  27.467  0.00  0.00    +0.000 C 
ATOM     10  C   UNL     1      26.057  23.573  28.647  0.00  0.00    +0.000 C 
ENDROOT
BRANCH   9  11
ATOM     11  O   UNL     1      27.184  23.123  26.557  0.00  0.00    +0.000 OA
BRANCH  11  12
ATOM     12  C   UNL     1      26.800  23.149  25.266  0.00  0.00    +0.000 C 
ATOM     13  O   UNL     1      25.582  22.775  25.121  0.00  0.00    +0.000 OA
BRANCH  12  14
ATOM     14  C   UNL     1      27.575  23.535  24.092  0.00  0.00    +0.000 A 
ATOM     15  C   UNL     1      26.927  23.830  22.910  0.00  0.00    +0.000 A 
ATOM     16  C   UNL     1      27.596  24.206  21.760  0.00  0.00    +0.000 A 
ATOM     17  C   UNL     1      28.968  24.299  21.755  0.00  0.00    +0.000 A 
ATOM     18  O   UNL     1      29.704  24.671  20.632  0.00  0.00    +0.000 OA
ATOM     19  C   UNL     1      29.644  24.011  22.918  0.00  0.00    +0.000 A 
ATOM     20  C   UNL     1      28.943  23.639  24.047  0.00  0.00    +0.000 A 
ENDBRANCH  12  14
ENDBRANCH  11  12
ENDBRANCH   9  11
TORSDOF 3
ENDMDL
MODEL 3
REMARK VINA RESULT:      -6.2     29.087     30.941
REMARK  Name = 
REMARK  3 active torsions:
REMARK  status: ('A' for Active; 'I' for Inactive)
REMARK    1  A    between atoms: C_9  and  O_10
REMARK    2  A    between atoms: O_10  and  C_11
REMARK    3  A    between atoms: C_11  and  C_13
REMARK                            x       y       z     vdW  Elec       q    Type
REMARK                         _______ _______ _______ _____ _____    ______ ____
ROOT
ATOM      1  C   UNL     1      33.636   5.589  37.054  0.00  0.00    +0.000 C 
ATOM      2  C   UNL     1      35.073   5.785  37.199  0.00  0.00    +0.000 C 
ATOM      3  C   UNL     1      35.389   6.306  38.654  0.00  0.00    +0.000 C 
ATOM      4  C   UNL     1      35.564   7.119  36.412  0.00  0.00    +0.000 C 
ATOM      5  C   UNL     1      37.065   7.046  37.068  0.00  0.00    +0.000 C 
ATOM      6  C   UNL     1      37.370   5.573  37.057  0.00  0.00    +0.000 C 
ATOM      7  C   UNL     1      36.073   4.845  36.856  0.00  0.00    +0.000 C 
ATOM      8  C   UNL     1      35.995   3.490  37.376  0.00  0.00    +0.000 C 
ATOM      9  C   UNL     1      35.764   4.862  35.292  0.00  0.00    +0.000 C 
ATOM     10  C   UNL     1      36.000   6.424  35.026  0.00  0.00    +0.000 C 
ENDROOT
BRANCH   9  11
ATOM     11  O   UNL     1      34.273   4.758  35.309  0.00  0.00    +0.000 OA
BRANCH  11  12
ATOM     12  C   UNL     1      33.621   4.050  34.365  0.00  0.00    +0.000 C 
ATOM     13  O   UNL     1      32.842   4.791  33.665  0.00  0.00    +0.000 OA
BRANCH  12  14
ATOM     14  C   UNL     1      33.707   2.624  34.075  0.00  0.00    +0.000 A 
ATOM     15  C   UNL     1      33.944   2.201  32.782  0.00  0.00    +0.000 A 
ATOM     16  C   UNL     1      34.041   0.866  32.434  0.00  0.00    +0.000 A 
ATOM     17  C   UNL     1      33.899  -0.112  33.390  0.00  0.00    +0.000 A 
ATOM     18  O   UNL     1      33.984  -1.473  33.108  0.00  0.00    +0.000 OA
ATOM     19  C   UNL     1      33.662   0.277  34.688  0.00  0.00    +0.000 A 
ATOM     20  C   UNL     1      33.571   1.618  34.999  0.00  0.00    +0.000 A 
ENDBRANCH  12  14
ENDBRANCH  11  12
ENDBRANCH   9  11
TORSDOF 3
ENDMDL
MODEL 4
REMARK VINA RESULT:      -6.0     13.484     16.500
REMARK  Name = 
REMARK  3 active torsions:
REMARK  status: ('A' for Active; 'I' for Inactive)
REMARK    1  A    between atoms: C_9  and  O_10
REMARK    2  A    between atoms: O_10  and  C_11
REMARK    3  A    between atoms: C_11  and  C_13
REMARK                            x       y       z     vdW  Elec       q    Type
REMARK                         _______ _______ _______ _____ _____    ______ ____
ROOT
ATOM      1  C   UNL     1      27.951  25.364  27.825  0.00  0.00    +0.000 C 
ATOM      2  C   UNL     1      28.374  24.365  28.798  0.00  0.00    +0.000 C 
ATOM      3  C   UNL     1      28.846  25.086  30.120  0.00  0.00    +0.000 C 
ATOM      4  C   UNL     1      29.820  23.737  28.402  0.00  0.00    +0.000 C 
ATOM      5  C   UNL     1      29.957  22.950  29.834  0.00  0.00    +0.000 C 
ATOM      6  C   UNL     1      28.559  22.453  30.084  0.00  0.00    +0.000 C 
ATOM      7  C   UNL     1      27.639  23.217  29.177  0.00  0.00    +0.000 C 
ATOM      8  C   UNL     1      26.260  23.359  29.612  0.00  0.00    +0.000 C 
ATOM      9  C   UNL     1      27.705  22.519  27.746  0.00  0.00    +0.000 C 
ATOM     10  C   UNL     1      29.297  22.442  27.598  0.00  0.00    +0.000 C 
ENDROOT
BRANCH   9  11
ATOM     11  O   UNL     1      27.352  23.673  26.864  0.00  0.00    +0.000 OA
BRANCH  11  12
ATOM     12  C   UNL     1      26.970  23.473  25.587  0.00  0.00    +0.000 C 
ATOM     13  O   UNL     1      25.794  22.967  25.513  0.00  0.00    +0.000 OA
BRANCH  12  14
ATOM     14  C   UNL     1      27.708  23.755  24.361  0.00  0.00    +0.000 A 
ATOM     15  C   UNL     1      27.093  23.581  23.137  0.00  0.00    +0.000 A 
ATOM     16  C   UNL     1      27.730  23.831  21.935  0.00  0.00    +0.000 A 
ATOM     17  C   UNL     1      29.032  24.272  21.918  0.00  0.00    +0.000 A 
ATOM     18  O   UNL     1      29.732  24.543  20.745  0.00  0.00    +0.000 OA
ATOM     19  C   UNL     1      29.672  24.455  23.123  0.00  0.00    +0.000 A 
ATOM     20  C   UNL     1      29.006  24.195  24.302  0.00  0.00    +0.000 A 
ENDBRANCH  12  14
ENDBRANCH  11  12
ENDBRANCH   9  11
TORSDOF 3
ENDMDL
MODEL 5
REMARK VINA RESULT:      -6.0     28.785     30.458
REMARK  Name = 
REMARK  3 active torsions:
REMARK  status: ('A' for Active; 'I' for Inactive)
REMARK    1  A    between atoms: C_9  and  O_10
REMARK    2  A    between atoms: O_10  and  C_11
REMARK    3  A    between atoms: C_11  and  C_13
REMARK                            x       y       z     vdW  Elec       q    Type
REMARK                         _______ _______ _______ _____ _____    ______ ____
ROOT
ATOM      1  C   UNL     1      22.337  12.023  38.035  0.00  0.00    +0.000 C 
ATOM      2  C   UNL     1      23.553  11.288  37.711  0.00  0.00    +0.000 C 
ATOM      3  C   UNL     1      24.729  12.307  37.449  0.00  0.00    +0.000 C 
ATOM      4  C   UNL     1      23.489  10.686  36.202  0.00  0.00    +0.000 C 
ATOM      5  C   UNL     1      25.066  10.239  36.232  0.00  0.00    +0.000 C 
ATOM      6  C   UNL     1      25.246   9.716  37.631  0.00  0.00    +0.000 C 
ATOM      7  C   UNL     1      24.084  10.204  38.447  0.00  0.00    +0.000 C 
ATOM      8  C   UNL     1      24.302  10.345  39.878  0.00  0.00    +0.000 C 
ATOM      9  C   UNL     1      22.865   9.218  38.163  0.00  0.00    +0.000 C 
ATOM     10  C   UNL     1      22.936   9.216  36.563  0.00  0.00    +0.000 C 
ENDROOT
BRANCH   9  11
ATOM     11  O   UNL     1      21.711  10.128  38.436  0.00  0.00    +0.000 OA
BRANCH  11  12
ATOM     12  C   UNL     1      20.454   9.646  38.501  0.00  0.00    +0.000 C 
ATOM     13  O   UNL     1      20.298   8.850  39.495  0.00  0.00    +0.000 OA
BRANCH  12  14
ATOM     14  C   UNL     1      19.326   9.919  37.618  0.00  0.00    +0.000 A 
ATOM     15  C   UNL     1      18.213  10.570  38.111  0.00  0.00    +0.000 A 
ATOM     16  C   UNL     1      17.110  10.865  37.331  0.00  0.00    +0.000 A 
ATOM     17  C   UNL     1      17.082  10.509  36.003  0.00  0.00    +0.000 A 
ATOM     18  O   UNL     1      16.004  10.775  35.163  0.00  0.00    +0.000 OA
ATOM     19  C   UNL     1      18.177   9.858  35.483  0.00  0.00    +0.000 A 
ATOM     20  C   UNL     1      19.261   9.580  36.290  0.00  0.00    +0.000 A 
ENDBRANCH  12  14
ENDBRANCH  11  12
ENDBRANCH   9  11
TORSDOF 3
ENDMDL
MODEL 6
REMARK VINA RESULT:      -5.9     32.918     34.594
REMARK  Name = 
REMARK  3 active torsions:
REMARK  status: ('A' for Active; 'I' for Inactive)
REMARK    1  A    between atoms: C_9  and  O_10
REMARK    2  A    between atoms: O_10  and  C_11
REMARK    3  A    between atoms: C_11  and  C_13
REMARK                            x       y       z     vdW  Elec       q    Type
REMARK                         _______ _______ _______ _____ _____    ______ ____
ROOT
ATOM      1  C   UNL     1      35.187  -6.890  31.813  0.00  0.00    +0.000 C 
ATOM      2  C   UNL     1      34.419  -7.188  30.611  0.00  0.00    +0.000 C 
ATOM      3  C   UNL     1      35.256  -8.144  29.675  0.00  0.00    +0.000 C 
ATOM      4  C   UNL     1      34.393  -5.914  29.601  0.00  0.00    +0.000 C 
ATOM      5  C   UNL     1      33.709  -6.788  28.394  0.00  0.00    +0.000 C 
ATOM      6  C   UNL     1      32.714  -7.651  29.120  0.00  0.00    +0.000 C 
ATOM      7  C   UNL     1      33.075  -7.628  30.577  0.00  0.00    +0.000 C 
ATOM      8  C   UNL     1      32.676  -8.780  31.369  0.00  0.00    +0.000 C 
ATOM      9  C   UNL     1      32.463  -6.290  31.190  0.00  0.00    +0.000 C 
ATOM     10  C   UNL     1      33.002  -5.262  30.087  0.00  0.00    +0.000 C 
ENDROOT
BRANCH   9  11
ATOM     11  O   UNL     1      33.401  -6.062  32.332  0.00  0.00    +0.000 OA
BRANCH  11  12
ATOM     12  C   UNL     1      32.957  -5.544  33.495  0.00  0.00    +0.000 C 
ATOM     13  O   UNL     1      32.573  -6.457  34.309  0.00  0.00    +0.000 OA
BRANCH  12  14
ATOM     14  C   UNL     1      32.877  -4.145  33.896  0.00  0.00    +0.000 A 
ATOM     15  C   UNL     1      33.614  -3.194  33.218  0.00  0.00    +0.000 A 
ATOM     16  C   UNL     1      33.584  -1.850  33.541  0.00  0.00    +0.000 A 
ATOM     17  C   UNL     1      32.800  -1.403  34.578  0.00  0.00    +0.000 A 
ATOM     18  O   UNL     1      32.725  -0.064  34.957  0.00  0.00    +0.000 OA
ATOM     19  C   UNL     1      32.054  -2.326  35.274  0.00  0.00    +0.000 A 
ATOM     20  C   UNL     1      32.108  -3.659  34.924  0.00  0.00    +0.000 A 
ENDBRANCH  12  14
ENDBRANCH  11  12
ENDBRANCH   9  11
TORSDOF 3
ENDMDL
MODEL 7
REMARK VINA RESULT:      -5.9     31.748     34.092
REMARK  Name = 
REMARK  3 active torsions:
REMARK  status: ('A' for Active; 'I' for Inactive)
REMARK    1  A    between atoms: C_9  and  O_10
REMARK    2  A    between atoms: O_10  and  C_11
REMARK    3  A    between atoms: C_11  and  C_13
REMARK                            x       y       z     vdW  Elec       q    Type
REMARK                         _______ _______ _______ _____ _____    ______ ____
ROOT
ATOM      1  C   UNL     1      18.115   6.783  40.238  0.00  0.00    +0.000 C 
ATOM      2  C   UNL     1      17.622   7.440  41.441  0.00  0.00    +0.000 C 
ATOM      3  C   UNL     1      17.587   6.403  42.630  0.00  0.00    +0.000 C 
ATOM      4  C   UNL     1      16.017   7.683  41.360  0.00  0.00    +0.000 C 
ATOM      5  C   UNL     1      15.930   8.145  42.931  0.00  0.00    +0.000 C 
ATOM      6  C   UNL     1      17.172   8.974  43.112  0.00  0.00    +0.000 C 
ATOM      7  C   UNL     1      18.088   8.670  41.962  0.00  0.00    +0.000 C 
ATOM      8  C   UNL     1      19.511   8.859  42.191  0.00  0.00    +0.000 C 
ATOM      9  C   UNL     1      17.599   9.550  40.727  0.00  0.00    +0.000 C 
ATOM     10  C   UNL     1      16.040   9.189  40.789  0.00  0.00    +0.000 C 
ENDROOT
BRANCH   9  11
ATOM     11  O   UNL     1      18.082   8.712  39.588  0.00  0.00    +0.000 OA
BRANCH  11  12
ATOM     12  C   UNL     1      18.609   9.283  38.487  0.00  0.00    +0.000 C 
ATOM     13  O   UNL     1      19.880   9.424  38.584  0.00  0.00    +0.000 OA
BRANCH  12  14
ATOM     14  C   UNL     1      17.929   9.727  37.276  0.00  0.00    +0.000 A 
ATOM     15  C   UNL     1      18.282   9.186  36.056  0.00  0.00    +0.000 A 
ATOM     16  C   UNL     1      17.678   9.556  34.868  0.00  0.00    +0.000 A 
ATOM     17  C   UNL     1      16.680  10.502  34.862  0.00  0.00    +0.000 A 
ATOM     18  O   UNL     1      16.031  10.921  33.703  0.00  0.00    +0.000 OA
ATOM     19  C   UNL     1      16.305  11.060  36.063  0.00  0.00    +0.000 A 
ATOM     20  C   UNL     1      16.930  10.667  37.229  0.00  0.00    +0.000 A 
ENDBRANCH  12  14
ENDBRANCH  11  12
ENDBRANCH   9  11
TORSDOF 3
ENDMDL
MODEL 8
REMARK VINA RESULT:      -5.9     12.665     15.318
REMARK  Name = 
REMARK  3 active torsions:
REMARK  status: ('A' for Active; 'I' for Inactive)
REMARK    1  A    between atoms: C_9  and  O_10
REMARK    2  A    between atoms: O_10  and  C_11
REMARK    3  A    between atoms: C_11  and  C_13
REMARK                            x       y       z     vdW  Elec       q    Type
REMARK                         _______ _______ _______ _____ _____    ______ ____
ROOT
ATOM      1  C   UNL     1      26.783  26.351  24.075  0.00  0.00    +0.000 C 
ATOM      2  C   UNL     1      27.962  25.912  23.340  0.00  0.00    +0.000 C 
ATOM      3  C   UNL     1      28.733  27.172  22.783  0.00  0.00    +0.000 C 
ATOM      4  C   UNL     1      27.554  25.290  21.895  0.00  0.00    +0.000 C 
ATOM      5  C   UNL     1      29.115  25.220  21.398  0.00  0.00    +0.000 C 
ATOM      6  C   UNL     1      29.846  24.773  22.635  0.00  0.00    +0.000 C 
ATOM      7  C   UNL     1      28.930  24.991  23.804  0.00  0.00    +0.000 C 
ATOM      8  C   UNL     1      29.559  25.199  25.098  0.00  0.00    +0.000 C 
ATOM      9  C   UNL     1      27.937  23.746  23.859  0.00  0.00    +0.000 C 
ATOM     10  C   UNL     1      27.489  23.738  22.321  0.00  0.00    +0.000 C 
ENDROOT
BRANCH   9  11
ATOM     11  O   UNL     1      26.759  24.369  24.537  0.00  0.00    +0.000 OA
BRANCH  11  12
ATOM     12  C   UNL     1      26.050  23.682  25.455  0.00  0.00    +0.000 C 
ATOM     13  O   UNL     1      25.391  22.717  24.927  0.00  0.00    +0.000 OA
BRANCH  12  14
ATOM     14  C   UNL     1      25.964  23.908  26.893  0.00  0.00    +0.000 A 
ATOM     15  C   UNL     1      26.712  23.130  27.754  0.00  0.00    +0.000 A 
ATOM     16  C   UNL     1      26.683  23.290  29.128  0.00  0.00    +0.000 A 
ATOM     17  C   UNL     1      25.885  24.254  29.697  0.00  0.00    +0.000 A 
ATOM     18  O   UNL     1      25.808  24.467  31.072  0.00  0.00    +0.000 OA
ATOM     19  C   UNL     1      25.127  25.045  28.865  0.00  0.00    +0.000 A 
ATOM     20  C   UNL     1      25.181  24.858  27.500  0.00  0.00    +0.000 A 
ENDBRANCH  12  14
ENDBRANCH  11  12
ENDBRANCH   9  11
TORSDOF 3
ENDMDL
MODEL 9
REMARK VINA RESULT:      -5.9     33.353     34.272
REMARK  Name = 
REMARK  3 active torsions:
REMARK  status: ('A' for Active; 'I' for Inactive)
REMARK    1  A    between atoms: C_9  and  O_10
REMARK    2  A    between atoms: O_10  and  C_11
REMARK    3  A    between atoms: C_11  and  C_13
REMARK                            x       y       z     vdW  Elec       q    Type
REMARK                         _______ _______ _______ _____ _____    ______ ____
ROOT
ATOM      1  C   UNL     1      21.438  -9.000  22.846  0.00  0.00    +0.000 C 
ATOM      2  C   UNL     1      22.788  -8.486  22.658  0.00  0.00    +0.000 C 
ATOM      3  C   UNL     1      22.992  -8.084  21.145  0.00  0.00    +0.000 C 
ATOM      4  C   UNL     1      23.881  -9.690  22.679  0.00  0.00    +0.000 C 
ATOM      5  C   UNL     1      25.092  -8.702  22.185  0.00  0.00    +0.000 C 
ATOM      6  C   UNL     1      24.825  -7.430  22.942  0.00  0.00    +0.000 C 
ATOM      7  C   UNL     1      23.414  -7.496  23.450  0.00  0.00    +0.000 C 
ATOM      8  C   UNL     1      22.741  -6.228  23.679  0.00  0.00    +0.000 C 
ATOM      9  C   UNL     1      23.437  -8.365  24.785  0.00  0.00    +0.000 C 
ATOM     10  C   UNL     1      24.282  -9.610  24.237  0.00  0.00    +0.000 C 
ENDROOT
BRANCH   9  11
ATOM     11  O   UNL     1      22.040  -8.897  24.788  0.00  0.00    +0.000 OA
BRANCH  11  12
ATOM     12  C   UNL     1      21.311  -8.914  25.921  0.00  0.00    +0.000 C 
ATOM     13  O   UNL     1      21.751  -9.779  26.760  0.00  0.00    +0.000 OA
BRANCH  12  14
ATOM     14  C   UNL     1      20.151  -8.102  26.270  0.00  0.00    +0.000 A 
ATOM     15  C   UNL     1      19.195  -8.607  27.128  0.00  0.00    +0.000 A 
ATOM     16  C   UNL     1      18.072  -7.894  27.504  0.00  0.00    +0.000 A 
ATOM     17  C   UNL     1      17.863  -6.623  27.024  0.00  0.00    +0.000 A 
ATOM     18  O   UNL     1      16.755  -5.850  27.362  0.00  0.00    +0.000 OA
ATOM     19  C   UNL     1      18.799  -6.091  26.167  0.00  0.00    +0.000 A 
ATOM     20  C   UNL     1      19.908  -6.831  25.812  0.00  0.00    +0.000 A 
ENDBRANCH  12  14
ENDBRANCH  11  12
ENDBRANCH   9  11
TORSDOF 3
ENDMDL
MODEL 10
REMARK VINA RESULT:      -5.8     11.000     13.887
REMARK  Name = 
REMARK  3 active torsions:
REMARK  status: ('A' for Active; 'I' for Inactive)
REMARK    1  A    between atoms: C_9  and  O_10
REMARK    2  A    between atoms: O_10  and  C_11
REMARK    3  A    between atoms: C_11  and  C_13
REMARK                            x       y       z     vdW  Elec       q    Type
REMARK                         _______ _______ _______ _____ _____    ______ ____
ROOT
ATOM      1  C   UNL     1      28.877  25.340  25.488  0.00  0.00    +0.000 C 
ATOM      2  C   UNL     1      29.449  24.158  26.121  0.00  0.00    +0.000 C 
ATOM      3  C   UNL     1      29.573  24.402  27.675  0.00  0.00    +0.000 C 
ATOM      4  C   UNL     1      31.043  24.048  25.821  0.00  0.00    +0.000 C 
ATOM      5  C   UNL     1      31.238  22.823  26.893  0.00  0.00    +0.000 C 
ATOM      6  C   UNL     1      30.006  21.986  26.680  0.00  0.00    +0.000 C 
ATOM      7  C   UNL     1      29.013  22.826  25.932  0.00  0.00    +0.000 C 
ATOM      8  C   UNL     1      27.609  22.497  26.112  0.00  0.00    +0.000 C 
ATOM      9  C   UNL     1      29.409  22.757  24.390  0.00  0.00    +0.000 C 
ATOM     10  C   UNL     1      30.971  23.080  24.537  0.00  0.00    +0.000 C 
ENDROOT
BRANCH   9  11
ATOM     11  O   UNL     1      28.853  24.058  23.907  0.00  0.00    +0.000 OA
BRANCH  11  12
ATOM     12  C   UNL     1      28.436  24.199  22.634  0.00  0.00    +0.000 C 
ATOM     13  O   UNL     1      27.901  23.124  22.184  0.00  0.00    +0.000 OA
BRANCH  12  14
ATOM     14  C   UNL     1      28.523  25.372  21.771  0.00  0.00    +0.000 A 
ATOM     15  C   UNL     1      27.576  26.371  21.878  0.00  0.00    +0.000 A 
ATOM     16  C   UNL     1      27.597  27.511  21.096  0.00  0.00    +0.000 A 
ATOM     17  C   UNL     1      28.588  27.693  20.160  0.00  0.00    +0.000 A 
ATOM     18  O   UNL     1      28.668  28.816  19.341  0.00  0.00    +0.000 OA
ATOM     19  C   UNL     1      29.547  26.714  20.030  0.00  0.00    +0.000 A 
ATOM     20  C   UNL     1      29.494  25.589  20.827  0.00  0.00    +0.000 A 
ENDBRANCH  12  14
ENDBRANCH  11  12
ENDBRANCH   9  11
TORSDOF 3
ENDMDL
