MODEL 1
REMARK VINA RESULT:      -6.7      0.000      0.000
REMARK  Name = 
REMARK  2 active torsions:
REMARK  status: ('A' for Active; 'I' for Inactive)
REMARK    1  A    between atoms: C_5  and  N_6
REMARK    2  A    between atoms: C_8  and  N_9
REMARK                            x       y       z     vdW  Elec       q    Type
REMARK                         _______ _______ _______ _____ _____    ______ ____
ROOT
ATOM      1  N   UNL     1      17.367  11.252  37.040  0.00  0.00    +0.000 NA
ATOM      2  C   UNL     1      16.460  10.876  37.848  0.00  0.00    +0.000 C 
ATOM      3  C   UNL     1      16.668  10.100  39.048  0.00  0.00    +0.000 C 
ATOM      4  C   UNL     1      15.440   9.933  39.593  0.00  0.00    +0.000 C 
ATOM      5  O   UNL     1      15.185   9.235  40.772  0.00  0.00    +0.000 OA
ATOM      6  C   UNL     1      14.427  10.570  38.797  0.00  0.00    +0.000 A 
ATOM      7  C   UNL     1      13.053  10.703  38.894  0.00  0.00    +0.000 A 
ATOM      8  C   UNL     1      12.325  11.389  37.958  0.00  0.00    +0.000 A 
ATOM      9  C   UNL     1      12.947  11.974  36.878  0.00  0.00    +0.000 A 
ATOM     10  C   UNL     1      14.310  11.846  36.775  0.00  0.00    +0.000 A 
ATOM     11  C   UNL     1      15.043  11.152  37.725  0.00  0.00    +0.000 A 
ENDROOT
BRANCH   1  16
ATOM     12  C   UNL     1      22.958  10.056  37.514  0.00  0.00    +0.000 C 
ATOM     13  C   UNL     1      21.504  10.371  37.390  0.00  0.00    +0.000 A 
ATOM     14  C   UNL     1      20.932  11.407  38.099  0.00  0.00    +0.000 A 
ATOM     15  C   UNL     1      19.589  11.700  37.985  0.00  0.00    +0.000 A 
ATOM     16  C   UNL     1      18.750  10.982  37.164  0.00  0.00    +0.000 A 
ATOM     17  C   UNL     1      19.325   9.933  36.445  0.00  0.00    +0.000 A 
ATOM     18  C   UNL     1      18.415   9.161  35.561  0.00  0.00    +0.000 C 
ATOM     19  C   UNL     1      20.670   9.647  36.564  0.00  0.00    +0.000 A 
ENDBRANCH   1  16
BRANCH   3  20
ATOM     20  N   UNL     1      17.883   9.595  39.584  0.00  0.00    +0.000 N 
ATOM     21  O   UNL     1      18.467  10.202  40.489  0.00  0.00    +0.000 OA
ATOM     22  O   UNL     1      18.420   8.427  39.118  0.00  0.00    +0.000 OA
ENDBRANCH   3  20
TORSDOF 2
ENDMDL
MODEL 2
REMARK VINA RESULT:      -6.4     17.104     19.023
REMARK  Name = 
REMARK  2 active torsions:
REMARK  status: ('A' for Active; 'I' for Inactive)
REMARK    1  A    between atoms: C_5  and  N_6
REMARK    2  A    between atoms: C_8  and  N_9
REMARK                            x       y       z     vdW  Elec       q    Type
REMARK                         _______ _______ _______ _____ _____    ______ ____
ROOT
ATOM      1  N   UNL     1      34.082   3.072  36.957  0.00  0.00    +0.000 NA
ATOM      2  C   UNL     1      33.936   2.717  35.744  0.00  0.00    +0.000 C 
ATOM      3  C   UNL     1      33.911   3.601  34.603  0.00  0.00    +0.000 C 
ATOM      4  C   UNL     1      33.738   2.802  33.525  0.00  0.00    +0.000 C 
ATOM      5  O   UNL     1      33.657   3.253  32.209  0.00  0.00    +0.000 OA
ATOM      6  C   UNL     1      33.648   1.420  33.911  0.00  0.00    +0.000 A 
ATOM      7  C   UNL     1      33.476   0.228  33.229  0.00  0.00    +0.000 A 
ATOM      8  C   UNL     1      33.428  -0.976  33.880  0.00  0.00    +0.000 A 
ATOM      9  C   UNL     1      33.550  -1.037  35.250  0.00  0.00    +0.000 A 
ATOM     10  C   UNL     1      33.720   0.142  35.934  0.00  0.00    +0.000 A 
ATOM     11  C   UNL     1      33.769   1.357  35.271  0.00  0.00    +0.000 A 
ENDROOT
BRANCH   1  16
ATOM     12  C   UNL     1      34.841   8.431  38.859  0.00  0.00    +0.000 C 
ATOM     13  C   UNL     1      34.642   7.038  38.361  0.00  0.00    +0.000 A 
ATOM     14  C   UNL     1      33.378   6.533  38.133  0.00  0.00    +0.000 A 
ATOM     15  C   UNL     1      33.192   5.246  37.671  0.00  0.00    +0.000 A 
ATOM     16  C   UNL     1      34.246   4.400  37.416  0.00  0.00    +0.000 A 
ATOM     17  C   UNL     1      35.526   4.908  37.647  0.00  0.00    +0.000 A 
ATOM     18  C   UNL     1      36.660   3.989  37.370  0.00  0.00    +0.000 C 
ATOM     19  C   UNL     1      35.704   6.196  38.108  0.00  0.00    +0.000 A 
ENDBRANCH   1  16
BRANCH   3  20
ATOM     20  N   UNL     1      34.036   5.016  34.569  0.00  0.00    +0.000 N 
ATOM     21  O   UNL     1      35.154   5.545  34.569  0.00  0.00    +0.000 OA
ATOM     22  O   UNL     1      32.927   5.815  34.523  0.00  0.00    +0.000 OA
ENDBRANCH   3  20
TORSDOF 2
ENDMDL
MODEL 3
REMARK VINA RESULT:      -6.4      1.270      2.190
REMARK  Name = 
REMARK  2 active torsions:
REMARK  status: ('A' for Active; 'I' for Inactive)
REMARK    1  A    between atoms: C_5  and  N_6
REMARK    2  A    between atoms: C_8  and  N_9
REMARK                            x       y       z     vdW  Elec       q    Type
REMARK                         _______ _______ _______ _____ _____    ______ ____
ROOT
ATOM      1  N   UNL     1      18.356  10.981  37.568  0.00  0.00    +0.000 NA
ATOM      2  C   UNL     1      17.622  10.508  38.493  0.00  0.00    +0.000 C 
ATOM      3  C   UNL     1      18.082   9.761  39.639  0.00  0.00    +0.000 C 
ATOM      4  C   UNL     1      16.971   9.462  40.351  0.00  0.00    +0.000 C 
ATOM      5  O   UNL     1      16.964   8.742  41.544  0.00  0.00    +0.000 OA
ATOM      6  C   UNL     1      15.791   9.985  39.718  0.00  0.00    +0.000 A 
ATOM      7  C   UNL     1      14.439   9.968  40.013  0.00  0.00    +0.000 A 
ATOM      8  C   UNL     1      13.514  10.569  39.201  0.00  0.00    +0.000 A 
ATOM      9  C   UNL     1      13.907  11.218  38.052  0.00  0.00    +0.000 A 
ATOM     10  C   UNL     1      15.248  11.239  37.752  0.00  0.00    +0.000 A 
ATOM     11  C   UNL     1      16.179  10.629  38.577  0.00  0.00    +0.000 A 
ENDROOT
BRANCH   1  16
ATOM     12  C   UNL     1      24.073  10.604  37.253  0.00  0.00    +0.000 C 
ATOM     13  C   UNL     1      22.585  10.699  37.337  0.00  0.00    +0.000 A 
ATOM     14  C   UNL     1      21.775   9.703  36.832  0.00  0.00    +0.000 A 
ATOM     15  C   UNL     1      20.400   9.789  36.909  0.00  0.00    +0.000 A 
ATOM     16  C   UNL     1      19.764  10.862  37.489  0.00  0.00    +0.000 A 
ATOM     17  C   UNL     1      20.582  11.871  38.001  0.00  0.00    +0.000 A 
ATOM     18  C   UNL     1      19.889  13.028  38.626  0.00  0.00    +0.000 C 
ATOM     19  C   UNL     1      21.956  11.778  37.920  0.00  0.00    +0.000 A 
ENDBRANCH   1  16
BRANCH   3  20
ATOM     20  N   UNL     1      19.409   9.391  39.988  0.00  0.00    +0.000 N 
ATOM     21  O   UNL     1      19.870   8.304  39.623  0.00  0.00    +0.000 OA
ATOM     22  O   UNL     1      20.200  10.233  40.719  0.00  0.00    +0.000 OA
ENDBRANCH   3  20
TORSDOF 2
ENDMDL
MODEL 4
REMARK VINA RESULT:      -6.4     21.465     23.504
REMARK  Name = 
REMARK  2 active torsions:
REMARK  status: ('A' for Active; 'I' for Inactive)
REMARK    1  A    between atoms: C_5  and  N_6
REMARK    2  A    between atoms: C_8  and  N_9
REMARK                            x       y       z     vdW  Elec       q    Type
REMARK                         _______ _______ _______ _____ _____    ______ ____
ROOT
ATOM      1  N   UNL     1      22.456  -6.836  24.244  0.00  0.00    +0.000 NA
ATOM      2  C   UNL     1      21.674  -7.463  25.025  0.00  0.00    +0.000 C 
ATOM      3  C   UNL     1      21.792  -8.851  25.405  0.00  0.00    +0.000 C 
ATOM      4  C   UNL     1      20.757  -9.092  26.242  0.00  0.00    +0.000 C 
ATOM      5  O   UNL     1      20.495 -10.320  26.845  0.00  0.00    +0.000 OA
ATOM      6  C   UNL     1      19.956  -7.913  26.431  0.00  0.00    +0.000 A 
ATOM      7  C   UNL     1      18.820  -7.615  27.162  0.00  0.00    +0.000 A 
ATOM      8  C   UNL     1      18.261  -6.365  27.151  0.00  0.00    +0.000 A 
ATOM      9  C   UNL     1      18.820  -5.353  26.404  0.00  0.00    +0.000 A 
ATOM     10  C   UNL     1      19.948  -5.642  25.675  0.00  0.00    +0.000 A 
ATOM     11  C   UNL     1      20.511  -6.908  25.689  0.00  0.00    +0.000 A 
ENDROOT
BRANCH   1  16
ATOM     12  C   UNL     1      26.997  -9.109  21.573  0.00  0.00    +0.000 C 
ATOM     13  C   UNL     1      25.817  -8.514  22.268  0.00  0.00    +0.000 A 
ATOM     14  C   UNL     1      25.946  -7.895  23.494  0.00  0.00    +0.000 A 
ATOM     15  C   UNL     1      24.857  -7.344  24.138  0.00  0.00    +0.000 A 
ATOM     16  C   UNL     1      23.592  -7.381  23.598  0.00  0.00    +0.000 A 
ATOM     17  C   UNL     1      23.458  -8.007  22.358  0.00  0.00    +0.000 A 
ATOM     18  C   UNL     1      22.090  -8.044  21.781  0.00  0.00    +0.000 C 
ATOM     19  C   UNL     1      24.552  -8.555  21.720  0.00  0.00    +0.000 A 
ENDBRANCH   1  16
BRANCH   3  20
ATOM     20  N   UNL     1      22.770  -9.803  25.008  0.00  0.00    +0.000 N 
ATOM     21  O   UNL     1      23.832  -9.905  25.634  0.00  0.00    +0.000 OA
ATOM     22  O   UNL     1      22.551 -10.627  23.939  0.00  0.00    +0.000 OA
ENDBRANCH   3  20
TORSDOF 2
ENDMDL
MODEL 5
REMARK VINA RESULT:      -6.3     21.266     23.238
REMARK  Name = 
REMARK  2 active torsions:
REMARK  status: ('A' for Active; 'I' for Inactive)
REMARK    1  A    between atoms: C_5  and  N_6
REMARK    2  A    between atoms: C_8  and  N_9
REMARK                            x       y       z     vdW  Elec       q    Type
REMARK                         _______ _______ _______ _____ _____    ______ ____
ROOT
ATOM      1  N   UNL     1      19.913  -9.800  26.367  0.00  0.00    +0.000 NA
ATOM      2  C   UNL     1      20.222  -8.618  26.015  0.00  0.00    +0.000 C 
ATOM      3  C   UNL     1      19.385  -7.450  26.152  0.00  0.00    +0.000 C 
ATOM      4  C   UNL     1      20.108  -6.420  25.653  0.00  0.00    +0.000 C 
ATOM      5  O   UNL     1      19.669  -5.099  25.594  0.00  0.00    +0.000 OA
ATOM      6  C   UNL     1      21.394  -6.865  25.190  0.00  0.00    +0.000 A 
ATOM      7  C   UNL     1      22.488  -6.245  24.611  0.00  0.00    +0.000 A 
ATOM      8  C   UNL     1      23.614  -6.943  24.264  0.00  0.00    +0.000 A 
ATOM      9  C   UNL     1      23.693  -8.300  24.484  0.00  0.00    +0.000 A 
ATOM     10  C   UNL     1      22.611  -8.922  25.058  0.00  0.00    +0.000 A 
ATOM     11  C   UNL     1      21.475  -8.212  25.408  0.00  0.00    +0.000 A 
ENDROOT
BRANCH   1  16
ATOM     12  C   UNL     1      15.007 -11.424  28.858  0.00  0.00    +0.000 C 
ATOM     13  C   UNL     1      16.282 -10.999  28.207  0.00  0.00    +0.000 A 
ATOM     14  C   UNL     1      16.405 -10.954  26.834  0.00  0.00    +0.000 A 
ATOM     15  C   UNL     1      17.582 -10.560  26.232  0.00  0.00    +0.000 A 
ATOM     16  C   UNL     1      18.690 -10.194  26.960  0.00  0.00    +0.000 A 
ATOM     17  C   UNL     1      18.569 -10.239  28.350  0.00  0.00    +0.000 A 
ATOM     18  C   UNL     1      19.769  -9.842  29.130  0.00  0.00    +0.000 C 
ATOM     19  C   UNL     1      17.388 -10.633  28.945  0.00  0.00    +0.000 A 
ENDBRANCH   1  16
BRANCH   3  20
ATOM     20  N   UNL     1      18.073  -7.352  26.689  0.00  0.00    +0.000 N 
ATOM     21  O   UNL     1      17.907  -7.142  27.897  0.00  0.00    +0.000 OA
ATOM     22  O   UNL     1      16.976  -7.475  25.883  0.00  0.00    +0.000 OA
ENDBRANCH   3  20
TORSDOF 2
ENDMDL
MODEL 6
REMARK VINA RESULT:      -6.2     19.836     21.666
REMARK  Name = 
REMARK  2 active torsions:
REMARK  status: ('A' for Active; 'I' for Inactive)
REMARK    1  A    between atoms: C_5  and  N_6
REMARK    2  A    between atoms: C_8  and  N_9
REMARK                            x       y       z     vdW  Elec       q    Type
REMARK                         _______ _______ _______ _____ _____    ______ ____
ROOT
ATOM      1  N   UNL     1      28.846  23.735  25.867  0.00  0.00    +0.000 NA
ATOM      2  C   UNL     1      27.803  23.859  26.585  0.00  0.00    +0.000 C 
ATOM      3  C   UNL     1      26.566  24.482  26.178  0.00  0.00    +0.000 C 
ATOM      4  C   UNL     1      25.741  24.389  27.246  0.00  0.00    +0.000 C 
ATOM      5  O   UNL     1      24.434  24.871  27.282  0.00  0.00    +0.000 OA
ATOM      6  C   UNL     1      26.387  23.726  28.347  0.00  0.00    +0.000 A 
ATOM      7  C   UNL     1      26.010  23.381  29.632  0.00  0.00    +0.000 A 
ATOM      8  C   UNL     1      26.862  22.733  30.486  0.00  0.00    +0.000 A 
ATOM      9  C   UNL     1      28.137  22.401  30.086  0.00  0.00    +0.000 A 
ATOM     10  C   UNL     1      28.519  22.741  28.811  0.00  0.00    +0.000 A 
ATOM     11  C   UNL     1      27.653  23.396  27.951  0.00  0.00    +0.000 A 
ENDROOT
BRANCH   1  16
ATOM     12  C   UNL     1      29.426  25.663  20.495  0.00  0.00    +0.000 C 
ATOM     13  C   UNL     1      29.277  25.159  21.892  0.00  0.00    +0.000 A 
ATOM     14  C   UNL     1      28.741  23.914  22.150  0.00  0.00    +0.000 A 
ATOM     15  C   UNL     1      28.604  23.445  23.440  0.00  0.00    +0.000 A 
ATOM     16  C   UNL     1      28.990  24.186  24.533  0.00  0.00    +0.000 A 
ATOM     17  C   UNL     1      29.532  25.446  24.275  0.00  0.00    +0.000 A 
ATOM     18  C   UNL     1      29.946  26.242  25.460  0.00  0.00    +0.000 C 
ATOM     19  C   UNL     1      29.667  25.908  22.982  0.00  0.00    +0.000 A 
ENDBRANCH   1  16
BRANCH   3  20
ATOM     20  N   UNL     1      26.238  25.081  24.932  0.00  0.00    +0.000 N 
ATOM     21  O   UNL     1      25.706  24.412  24.038  0.00  0.00    +0.000 OA
ATOM     22  O   UNL     1      26.492  26.405  24.705  0.00  0.00    +0.000 OA
ENDBRANCH   3  20
TORSDOF 2
ENDMDL
MODEL 7
REMARK VINA RESULT:      -6.2     20.312     23.224
REMARK  Name = 
REMARK  2 active torsions:
REMARK  status: ('A' for Active; 'I' for Inactive)
REMARK    1  A    between atoms: C_5  and  N_6
REMARK    2  A    between atoms: C_8  and  N_9
REMARK                            x       y       z     vdW  Elec       q    Type
REMARK                         _______ _______ _______ _____ _____    ______ ____
ROOT
ATOM      1  N   UNL     1      33.843  -4.305  31.790  0.00  0.00    +0.000 NA
ATOM      2  C   UNL     1      33.264  -4.147  32.912  0.00  0.00    +0.000 C 
ATOM      3  C   UNL     1      32.517  -5.155  33.626  0.00  0.00    +0.000 C 
ATOM      4  C   UNL     1      32.083  -4.555  34.759  0.00  0.00    +0.000 C 
ATOM      5  O   UNL     1      31.317  -5.178  35.741  0.00  0.00    +0.000 OA
ATOM      6  C   UNL     1      32.516  -3.186  34.821  0.00  0.00    +0.000 A 
ATOM      7  C   UNL     1      32.356  -2.154  35.729  0.00  0.00    +0.000 A 
ATOM      8  C   UNL     1      32.899  -0.914  35.518  0.00  0.00    +0.000 A 
ATOM      9  C   UNL     1      33.630  -0.654  34.381  0.00  0.00    +0.000 A 
ATOM     10  C   UNL     1      33.792  -1.673  33.474  0.00  0.00    +0.000 A 
ATOM     11  C   UNL     1      33.242  -2.925  33.692  0.00  0.00    +0.000 A 
ENDROOT
BRANCH   1  16
ATOM     12  C   UNL     1      34.033  -9.150  28.725  0.00  0.00    +0.000 C 
ATOM     13  C   UNL     1      33.980  -7.890  29.524  0.00  0.00    +0.000 A 
ATOM     14  C   UNL     1      32.946  -6.990  29.373  0.00  0.00    +0.000 A 
ATOM     15  C   UNL     1      32.895  -5.825  30.111  0.00  0.00    +0.000 A 
ATOM     16  C   UNL     1      33.864  -5.499  31.031  0.00  0.00    +0.000 A 
ATOM     17  C   UNL     1      34.912  -6.408  31.186  0.00  0.00    +0.000 A 
ATOM     18  C   UNL     1      35.956  -6.050  32.181  0.00  0.00    +0.000 C 
ATOM     19  C   UNL     1      34.955  -7.571  30.444  0.00  0.00    +0.000 A 
ENDBRANCH   1  16
BRANCH   3  20
ATOM     20  N   UNL     1      32.263  -6.504  33.258  0.00  0.00    +0.000 N 
ATOM     21  O   UNL     1      33.041  -7.402  33.601  0.00  0.00    +0.000 OA
ATOM     22  O   UNL     1      31.152  -6.833  32.532  0.00  0.00    +0.000 OA
ENDBRANCH   3  20
TORSDOF 2
ENDMDL
MODEL 8
REMARK VINA RESULT:      -6.2     20.149     21.928
REMARK  Name = 
REMARK  2 active torsions:
REMARK  status: ('A' for Active; 'I' for Inactive)
REMARK    1  A    between atoms: C_5  and  N_6
REMARK    2  A    between atoms: C_8  and  N_9
REMARK                            x       y       z     vdW  Elec       q    Type
REMARK                         _______ _______ _______ _____ _____    ______ ____
ROOT
ATOM      1  N   UNL     1      27.413  24.837  25.509  0.00  0.00    +0.000 NA
ATOM      2  C   UNL     1      27.954  24.032  26.331  0.00  0.00    +0.000 C 
ATOM      3  C   UNL     1      29.200  23.331  26.131  0.00  0.00    +0.000 C 
ATOM      4  C   UNL     1      29.390  22.593  27.250  0.00  0.00    +0.000 C 
ATOM      5  O   UNL     1      30.483  21.759  27.473  0.00  0.00    +0.000 OA
ATOM      6  C   UNL     1      28.314  22.781  28.185  0.00  0.00    +0.000 A 
ATOM      7  C   UNL     1      28.019  22.284  29.442  0.00  0.00    +0.000 A 
ATOM      8  C   UNL     1      26.885  22.653  30.117  0.00  0.00    +0.000 A 
ATOM      9  C   UNL     1      25.994  23.541  29.558  0.00  0.00    +0.000 A 
ATOM     10  C   UNL     1      26.280  24.038  28.310  0.00  0.00    +0.000 A 
ATOM     11  C   UNL     1      27.428  23.663  27.631  0.00  0.00    +0.000 A 
ENDROOT
BRANCH   1  16
ATOM     12  C   UNL     1      29.484  26.199  20.335  0.00  0.00    +0.000 C 
ATOM     13  C   UNL     1      28.944  25.848  21.682  0.00  0.00    +0.000 A 
ATOM     14  C   UNL     1      29.377  26.499  22.819  0.00  0.00    +0.000 A 
ATOM     15  C   UNL     1      28.878  26.177  24.064  0.00  0.00    +0.000 A 
ATOM     16  C   UNL     1      27.929  25.196  24.242  0.00  0.00    +0.000 A 
ATOM     17  C   UNL     1      27.489  24.536  23.093  0.00  0.00    +0.000 A 
ATOM     18  C   UNL     1      26.465  23.478  23.292  0.00  0.00    +0.000 C 
ATOM     19  C   UNL     1      27.992  24.864  21.851  0.00  0.00    +0.000 A 
ENDBRANCH   1  16
BRANCH   3  20
ATOM     20  N   UNL     1      30.076  23.372  25.013  0.00  0.00    +0.000 N 
ATOM     21  O   UNL     1      29.880  22.636  24.039  0.00  0.00    +0.000 OA
ATOM     22  O   UNL     1      31.139  24.231  24.989  0.00  0.00    +0.000 OA
ENDBRANCH   3  20
TORSDOF 2
ENDMDL
MODEL 9
REMARK VINA RESULT:      -6.2     19.005     21.391
REMARK  Name = 
REMARK  2 active torsions:
REMARK  status: ('A' for Active; 'I' for Inactive)
REMARK    1  A    between atoms: C_5  and  N_6
REMARK    2  A    between atoms: C_8  and  N_9
REMARK                            x       y       z     vdW  Elec       q    Type
REMARK                         _______ _______ _______ _____ _____    ______ ____
ROOT
ATOM      1  N   UNL     1      31.426  22.591  27.366  0.00  0.00    +0.000 NA
ATOM      2  C   UNL     1      30.794  22.602  28.470  0.00  0.00    +0.000 C 
ATOM      3  C   UNL     1      29.449  23.090  28.668  0.00  0.00    +0.000 C 
ATOM      4  C   UNL     1      29.185  22.908  29.983  0.00  0.00    +0.000 C 
ATOM      5  O   UNL     1      27.984  23.248  30.603  0.00  0.00    +0.000 OA
ATOM      6  C   UNL     1      30.305  22.317  30.662  0.00  0.00    +0.000 A 
ATOM      7  C   UNL     1      30.560  21.932  31.967  0.00  0.00    +0.000 A 
ATOM      8  C   UNL     1      31.757  21.378  32.336  0.00  0.00    +0.000 A 
ATOM      9  C   UNL     1      32.755  21.184  31.408  0.00  0.00    +0.000 A 
ATOM     10  C   UNL     1      32.510  21.565  30.111  0.00  0.00    +0.000 A 
ATOM     11  C   UNL     1      31.298  22.125  29.743  0.00  0.00    +0.000 A 
ENDROOT
BRANCH   1  16
ATOM     12  C   UNL     1      29.430  24.577  22.367  0.00  0.00    +0.000 C 
ATOM     13  C   UNL     1      29.951  24.057  23.666  0.00  0.00    +0.000 A 
ATOM     14  C   UNL     1      29.632  22.790  24.110  0.00  0.00    +0.000 A 
ATOM     15  C   UNL     1      30.114  22.308  25.310  0.00  0.00    +0.000 A 
ATOM     16  C   UNL     1      30.931  23.057  26.125  0.00  0.00    +0.000 A 
ATOM     17  C   UNL     1      31.255  24.339  25.679  0.00  0.00    +0.000 A 
ATOM     18  C   UNL     1      32.137  25.143  26.564  0.00  0.00    +0.000 C 
ATOM     19  C   UNL     1      30.770  24.814  24.477  0.00  0.00    +0.000 A 
ENDBRANCH   1  16
BRANCH   3  20
ATOM     20  N   UNL     1      28.556  23.652  27.717  0.00  0.00    +0.000 N 
ATOM     21  O   UNL     1      27.698  22.946  27.173  0.00  0.00    +0.000 OA
ATOM     22  O   UNL     1      28.620  24.979  27.397  0.00  0.00    +0.000 OA
ENDBRANCH   3  20
TORSDOF 2
ENDMDL
MODEL 10
REMARK VINA RESULT:      -6.0      3.162      5.355
REMARK  Name = 
REMARK  2 active torsions:
REMARK  status: ('A' for Active; 'I' for Inactive)
REMARK    1  A    between atoms: C_5  and  N_6
REMARK    2  A    between atoms: C_8  and  N_9
REMARK                            x       y       z     vdW  Elec       q    Type
REMARK                         _______ _______ _______ _____ _____    ______ ____
ROOT
ATOM      1  N   UNL     1      16.220   8.997  40.356  0.00  0.00    +0.000 NA
ATOM      2  C   UNL     1      16.999   9.655  39.595  0.00  0.00    +0.000 C 
ATOM      3  C   UNL     1      18.441   9.585  39.598  0.00  0.00    +0.000 C 
ATOM      4  C   UNL     1      18.851  10.444  38.636  0.00  0.00    +0.000 C 
ATOM      5  O   UNL     1      20.183  10.684  38.304  0.00  0.00    +0.000 OA
ATOM      6  C   UNL     1      17.732  11.080  37.995  0.00  0.00    +0.000 A 
ATOM      7  C   UNL     1      17.591  12.010  36.980  0.00  0.00    +0.000 A 
ATOM      8  C   UNL     1      16.361  12.445  36.564  0.00  0.00    +0.000 A 
ATOM      9  C   UNL     1      15.212  11.963  37.150  0.00  0.00    +0.000 A 
ATOM     10  C   UNL     1      15.344  11.040  38.159  0.00  0.00    +0.000 A 
ATOM     11  C   UNL     1      16.591  10.602  38.576  0.00  0.00    +0.000 A 
ENDROOT
BRANCH   1  16
ATOM     12  C   UNL     1      17.883   5.328  44.441  0.00  0.00    +0.000 C 
ATOM     13  C   UNL     1      17.448   6.281  43.377  0.00  0.00    +0.000 A 
ATOM     14  C   UNL     1      17.296   5.872  42.068  0.00  0.00    +0.000 A 
ATOM     15  C   UNL     1      16.893   6.750  41.084  0.00  0.00    +0.000 A 
ATOM     16  C   UNL     1      16.621   8.073  41.349  0.00  0.00    +0.000 A 
ATOM     17  C   UNL     1      16.774   8.490  42.672  0.00  0.00    +0.000 A 
ATOM     18  C   UNL     1      16.480   9.919  42.952  0.00  0.00    +0.000 C 
ATOM     19  C   UNL     1      17.177   7.605  43.651  0.00  0.00    +0.000 A 
ENDBRANCH   1  16
BRANCH   3  20
ATOM     20  N   UNL     1      19.293   8.799  40.419  0.00  0.00    +0.000 N 
ATOM     21  O   UNL     1      19.669   7.683  40.042  0.00  0.00    +0.000 OA
ATOM     22  O   UNL     1      19.722   9.266  41.631  0.00  0.00    +0.000 OA
ENDBRANCH   3  20
TORSDOF 2
ENDMDL
