MODEL 1
REMARK VINA RESULT:      -7.1      0.000      0.000
REMARK  Name = 
REMARK  8 active torsions:
REMARK  status: ('A' for Active; 'I' for Inactive)
REMARK    1  A    between atoms: C_2  and  O_3
REMARK    2  A    between atoms: O_3  and  C_4
REMARK    3  A    between atoms: C_4  and  C_6
REMARK    4  A    between atoms: C_11  and  O_12
REMARK    5  A    between atoms: C_16  and  N_17
REMARK    6  A    between atoms: C_18  and  C_20
REMARK    7  A    between atoms: C_25  and  C_26
REMARK    8  A    between atoms: C_26  and  C_27
REMARK                            x       y       z     vdW  Elec       q    Type
REMARK                         _______ _______ _______ _____ _____    ______ ____
ROOT
ATOM      1  C   UNL     1      39.337  -2.673  16.330  0.00  0.00    +0.000 A 
ATOM      2  N   UNL     1      40.466  -3.176  15.791  0.00  0.00    +0.000 NA
ATOM      3  C   UNL     1      40.938  -2.388  14.808  0.00  0.00    +0.000 A 
ATOM      4  C   UNL     1      42.048  -2.495  13.983  0.00  0.00    +0.000 A 
ATOM      5  C   UNL     1      42.283  -1.516  13.049  0.00  0.00    +0.000 A 
ATOM      6  C   UNL     1      41.449  -0.430  12.905  0.00  0.00    +0.000 A 
ATOM      7  C   UNL     1      40.351  -0.342  13.733  0.00  0.00    +0.000 A 
ATOM      8  C   UNL     1      40.076  -1.313  14.694  0.00  0.00    +0.000 A 
ATOM      9  C   UNL     1      39.097  -1.509  15.640  0.00  0.00    +0.000 A 
ENDROOT
BRANCH   9  10
ATOM     10  N   UNL     1      37.980  -0.671  15.871  0.00  0.00    +0.000 NA
ATOM     11  C   UNL     1      36.762  -0.761  15.166  0.00  0.00    +0.000 C 
ATOM     12  O   UNL     1      36.608  -1.578  14.298  0.00  0.00    +0.000 OA
BRANCH  11  13
ATOM     13  C   UNL     1      35.702   0.290  15.643  0.00  0.00    +0.000 C 
ATOM     14  C   UNL     1      36.743   1.390  16.334  0.00  0.00    +0.000 C 
ATOM     15  C   UNL     1      35.620   2.211  16.962  0.00  0.00    +0.000 C 
ATOM     16  C   UNL     1      34.944   2.819  15.998  0.00  0.00    +0.000 C 
ATOM     17  C   UNL     1      35.360   2.614  14.665  0.00  0.00    +0.000 C 
ATOM     18  C   UNL     1      35.561   1.121  14.161  0.00  0.00    +0.000 C 
BRANCH  18  19
ATOM     19  C   UNL     1      37.181   1.301  13.890  0.00  0.00    +0.000 C 
BRANCH  19  20
ATOM     20  C   UNL     1      37.361   1.683  12.496  0.00  0.00    +0.000 A 
ATOM     21  C   UNL     1      37.982   2.848  12.119  0.00  0.00    +0.000 A 
ATOM     22  C   UNL     1      38.142   3.194  10.772  0.00  0.00    +0.000 A 
ATOM     23  C   UNL     1      37.675   2.355   9.809  0.00  0.00    +0.000 A 
ATOM     24  C   UNL     1      37.052   1.187  10.144  0.00  0.00    +0.000 A 
ATOM     25  C   UNL     1      36.898   0.856  11.495  0.00  0.00    +0.000 A 
ENDBRANCH  19  20
ENDBRANCH  18  19
ENDBRANCH  11  13
ENDBRANCH   9  10
BRANCH   1  26
ATOM     26  C   UNL     1      38.589  -3.265  17.434  0.00  0.00    +0.000 C 
ATOM     27  O   UNL     1      38.972  -4.360  17.914  0.00  0.00    +0.000 OA
BRANCH  26  28
ATOM     28  O   UNL     1      37.476  -2.696  17.997  0.00  0.00    +0.000 OA
BRANCH  28  30
ATOM     29  C   UNL     1      36.405  -0.941  19.204  0.00  0.00    +0.000 C 
ATOM     30  C   UNL     1      37.523  -1.951  19.224  0.00  0.00    +0.000 C 
ENDBRANCH  28  30
ENDBRANCH  26  28
ENDBRANCH   1  26
BRANCH   6  31
ATOM     31  O   UNL     1      41.792   0.487  11.928  0.00  0.00    +0.000 OA
ATOM     32  C   UNL     1      41.011   0.723  10.783  0.00  0.00    +0.000 C 
ENDBRANCH   6  31
TORSDOF 8
ENDMDL
MODEL 2
REMARK VINA RESULT:      -7.0      2.037      7.369
REMARK  Name = 
REMARK  8 active torsions:
REMARK  status: ('A' for Active; 'I' for Inactive)
REMARK    1  A    between atoms: C_2  and  O_3
REMARK    2  A    between atoms: O_3  and  C_4
REMARK    3  A    between atoms: C_4  and  C_6
REMARK    4  A    between atoms: C_11  and  O_12
REMARK    5  A    between atoms: C_16  and  N_17
REMARK    6  A    between atoms: C_18  and  C_20
REMARK    7  A    between atoms: C_25  and  C_26
REMARK    8  A    between atoms: C_26  and  C_27
REMARK                            x       y       z     vdW  Elec       q    Type
REMARK                         _______ _______ _______ _____ _____    ______ ____
ROOT
ATOM      1  C   UNL     1      37.258   2.774  13.671  0.00  0.00    +0.000 A 
ATOM      2  N   UNL     1      36.088   3.050  14.281  0.00  0.00    +0.000 NA
ATOM      3  C   UNL     1      35.819   2.164  15.257  0.00  0.00    +0.000 A 
ATOM      4  C   UNL     1      34.753   2.047  16.137  0.00  0.00    +0.000 A 
ATOM      5  C   UNL     1      34.748   1.018  17.047  0.00  0.00    +0.000 A 
ATOM      6  C   UNL     1      35.770   0.097  17.112  0.00  0.00    +0.000 A 
ATOM      7  C   UNL     1      36.819   0.230  16.229  0.00  0.00    +0.000 A 
ATOM      8  C   UNL     1      36.864   1.259  15.290  0.00  0.00    +0.000 A 
ATOM      9  C   UNL     1      37.739   1.653  14.304  0.00  0.00    +0.000 A 
ENDROOT
BRANCH   9  10
ATOM     10  N   UNL     1      38.946   1.003  13.952  0.00  0.00    +0.000 NA
ATOM     11  C   UNL     1      39.018  -0.149  13.142  0.00  0.00    +0.000 C 
ATOM     12  O   UNL     1      38.023  -0.659  12.700  0.00  0.00    +0.000 OA
BRANCH  11  13
ATOM     13  C   UNL     1      40.488  -0.642  12.912  0.00  0.00    +0.000 C 
ATOM     14  C   UNL     1      41.203   0.112  14.213  0.00  0.00    +0.000 C 
ATOM     15  C   UNL     1      42.621  -0.222  13.755  0.00  0.00    +0.000 C 
ATOM     16  C   UNL     1      42.810  -1.529  13.869  0.00  0.00    +0.000 C 
ATOM     17  C   UNL     1      41.745  -2.313  14.362  0.00  0.00    +0.000 C 
ATOM     18  C   UNL     1      40.317  -2.152  13.684  0.00  0.00    +0.000 C 
BRANCH  18  19
ATOM     19  C   UNL     1      39.594  -1.583  15.057  0.00  0.00    +0.000 C 
BRANCH  19  20
ATOM     20  C   UNL     1      38.846  -2.679  15.656  0.00  0.00    +0.000 A 
ATOM     21  C   UNL     1      39.158  -3.208  16.884  0.00  0.00    +0.000 A 
ATOM     22  C   UNL     1      38.424  -4.263  17.439  0.00  0.00    +0.000 A 
ATOM     23  C   UNL     1      37.373  -4.779  16.747  0.00  0.00    +0.000 A 
ATOM     24  C   UNL     1      37.031  -4.280  15.523  0.00  0.00    +0.000 A 
ATOM     25  C   UNL     1      37.776  -3.226  14.981  0.00  0.00    +0.000 A 
ENDBRANCH  19  20
ENDBRANCH  18  19
ENDBRANCH  11  13
ENDBRANCH   9  10
BRANCH   1  26
ATOM     26  C   UNL     1      37.857   3.555  12.593  0.00  0.00    +0.000 C 
ATOM     27  O   UNL     1      38.704   4.437  12.876  0.00  0.00    +0.000 OA
BRANCH  26  28
ATOM     28  O   UNL     1      37.552   3.388  11.267  0.00  0.00    +0.000 OA
BRANCH  28  30
ATOM     29  C   UNL     1      36.908   1.420  10.087  0.00  0.00    +0.000 C 
ATOM     30  C   UNL     1      38.066   2.297  10.486  0.00  0.00    +0.000 C 
ENDBRANCH  28  30
ENDBRANCH  26  28
ENDBRANCH   1  26
BRANCH   6  31
ATOM     31  O   UNL     1      35.649  -0.894  18.070  0.00  0.00    +0.000 OA
ATOM     32  C   UNL     1      36.631  -1.150  19.042  0.00  0.00    +0.000 C 
ENDBRANCH   6  31
TORSDOF 8
ENDMDL
MODEL 3
REMARK VINA RESULT:      -6.9      2.260      5.481
REMARK  Name = 
REMARK  8 active torsions:
REMARK  status: ('A' for Active; 'I' for Inactive)
REMARK    1  A    between atoms: C_2  and  O_3
REMARK    2  A    between atoms: O_3  and  C_4
REMARK    3  A    between atoms: C_4  and  C_6
REMARK    4  A    between atoms: C_11  and  O_12
REMARK    5  A    between atoms: C_16  and  N_17
REMARK    6  A    between atoms: C_18  and  C_20
REMARK    7  A    between atoms: C_25  and  C_26
REMARK    8  A    between atoms: C_26  and  C_27
REMARK                            x       y       z     vdW  Elec       q    Type
REMARK                         _______ _______ _______ _____ _____    ______ ____
ROOT
ATOM      1  C   UNL     1      35.402   0.551  17.051  0.00  0.00    +0.000 A 
ATOM      2  N   UNL     1      34.441   1.473  16.838  0.00  0.00    +0.000 NA
ATOM      3  C   UNL     1      34.826   2.386  15.928  0.00  0.00    +0.000 A 
ATOM      4  C   UNL     1      34.187   3.498  15.400  0.00  0.00    +0.000 A 
ATOM      5  C   UNL     1      34.840   4.263  14.465  0.00  0.00    +0.000 A 
ATOM      6  C   UNL     1      36.113   3.960  14.035  0.00  0.00    +0.000 A 
ATOM      7  C   UNL     1      36.731   2.852  14.572  0.00  0.00    +0.000 A 
ATOM      8  C   UNL     1      36.104   2.048  15.522  0.00  0.00    +0.000 A 
ATOM      9  C   UNL     1      36.440   0.916  16.227  0.00  0.00    +0.000 A 
ENDROOT
BRANCH   9  10
ATOM     10  N   UNL     1      37.673   0.225  16.158  0.00  0.00    +0.000 NA
ATOM     11  C   UNL     1      37.999  -0.715  15.158  0.00  0.00    +0.000 C 
ATOM     12  O   UNL     1      37.218  -0.990  14.287  0.00  0.00    +0.000 OA
BRANCH  11  13
ATOM     13  C   UNL     1      39.438  -1.313  15.329  0.00  0.00    +0.000 C 
ATOM     14  C   UNL     1      39.505  -2.192  13.917  0.00  0.00    +0.000 C 
ATOM     15  C   UNL     1      40.800  -2.904  14.303  0.00  0.00    +0.000 C 
ATOM     16  C   UNL     1      41.789  -2.023  14.299  0.00  0.00    +0.000 C 
ATOM     17  C   UNL     1      41.487  -0.687  13.958  0.00  0.00    +0.000 C 
ATOM     18  C   UNL     1      40.290   0.030  14.717  0.00  0.00    +0.000 C 
BRANCH  18  19
ATOM     19  C   UNL     1      39.380   0.224  13.351  0.00  0.00    +0.000 C 
BRANCH  19  20
ATOM     20  C   UNL     1      39.557   1.593  12.886  0.00  0.00    +0.000 A 
ATOM     21  C   UNL     1      39.179   2.008  11.633  0.00  0.00    +0.000 A 
ATOM     22  C   UNL     1      39.360   3.329  11.210  0.00  0.00    +0.000 A 
ATOM     23  C   UNL     1      39.923   4.229  12.060  0.00  0.00    +0.000 A 
ATOM     24  C   UNL     1      40.312   3.856  13.314  0.00  0.00    +0.000 A 
ATOM     25  C   UNL     1      40.125   2.530  13.722  0.00  0.00    +0.000 A 
ENDBRANCH  19  20
ENDBRANCH  18  19
ENDBRANCH  11  13
ENDBRANCH   9  10
BRANCH   1  26
ATOM     26  C   UNL     1      35.295  -0.592  17.952  0.00  0.00    +0.000 C 
ATOM     27  O   UNL     1      35.872  -0.548  19.066  0.00  0.00    +0.000 OA
BRANCH  26  28
ATOM     28  O   UNL     1      34.592  -1.732  17.662  0.00  0.00    +0.000 OA
BRANCH  28  30
ATOM     29  C   UNL     1      36.062  -3.380  16.764  0.00  0.00    +0.000 C 
ATOM     30  C   UNL     1      34.851  -2.525  16.492  0.00  0.00    +0.000 C 
ENDBRANCH  28  30
ENDBRANCH  26  28
ENDBRANCH   1  26
BRANCH   6  31
ATOM     31  O   UNL     1      36.664   4.807  13.090  0.00  0.00    +0.000 OA
ATOM     32  C   UNL     1      36.308   6.161  12.968  0.00  0.00    +0.000 C 
ENDBRANCH   6  31
TORSDOF 8
ENDMDL
MODEL 4
REMARK VINA RESULT:      -6.7      2.699      6.443
REMARK  Name = 
REMARK  8 active torsions:
REMARK  status: ('A' for Active; 'I' for Inactive)
REMARK    1  A    between atoms: C_2  and  O_3
REMARK    2  A    between atoms: O_3  and  C_4
REMARK    3  A    between atoms: C_4  and  C_6
REMARK    4  A    between atoms: C_11  and  O_12
REMARK    5  A    between atoms: C_16  and  N_17
REMARK    6  A    between atoms: C_18  and  C_20
REMARK    7  A    between atoms: C_25  and  C_26
REMARK    8  A    between atoms: C_26  and  C_27
REMARK                            x       y       z     vdW  Elec       q    Type
REMARK                         _______ _______ _______ _____ _____    ______ ____
ROOT
ATOM      1  C   UNL     1      36.154   1.691  15.581  0.00  0.00    +0.000 A 
ATOM      2  N   UNL     1      35.254   2.696  15.598  0.00  0.00    +0.000 NA
ATOM      3  C   UNL     1      35.519   3.612  14.649  0.00  0.00    +0.000 A 
ATOM      4  C   UNL     1      34.883   4.793  14.294  0.00  0.00    +0.000 A 
ATOM      5  C   UNL     1      35.392   5.540  13.261  0.00  0.00    +0.000 A 
ATOM      6  C   UNL     1      36.516   5.154  12.564  0.00  0.00    +0.000 A 
ATOM      7  C   UNL     1      37.133   3.979  12.932  0.00  0.00    +0.000 A 
ATOM      8  C   UNL     1      36.650   3.189  13.975  0.00  0.00    +0.000 A 
ATOM      9  C   UNL     1      37.025   2.005  14.566  0.00  0.00    +0.000 A 
ENDROOT
BRANCH   9  10
ATOM     10  N   UNL     1      38.151   1.221  14.222  0.00  0.00    +0.000 NA
ATOM     11  C   UNL     1      38.128   0.173  13.278  0.00  0.00    +0.000 C 
ATOM     12  O   UNL     1      37.114  -0.120  12.702  0.00  0.00    +0.000 OA
BRANCH  11  13
ATOM     13  C   UNL     1      39.525  -0.514  13.094  0.00  0.00    +0.000 C 
ATOM     14  C   UNL     1      40.143  -0.218  14.611  0.00  0.00    +0.000 C 
ATOM     15  C   UNL     1      41.547  -0.691  14.242  0.00  0.00    +0.000 C 
ATOM     16  C   UNL     1      41.518  -2.002  14.046  0.00  0.00    +0.000 C 
ATOM     17  C   UNL     1      40.286  -2.670  14.209  0.00  0.00    +0.000 C 
ATOM     18  C   UNL     1      39.016  -2.103  13.441  0.00  0.00    +0.000 C 
BRANCH  18  19
ATOM     19  C   UNL     1      38.190  -1.739  14.825  0.00  0.00    +0.000 C 
BRANCH  19  20
ATOM     20  C   UNL     1      37.337  -2.874  15.149  0.00  0.00    +0.000 A 
ATOM     21  C   UNL     1      36.233  -3.211  14.406  0.00  0.00    +0.000 A 
ATOM     22  C   UNL     1      35.429  -4.307  14.738  0.00  0.00    +0.000 A 
ATOM     23  C   UNL     1      35.747  -5.062  15.824  0.00  0.00    +0.000 A 
ATOM     24  C   UNL     1      36.837  -4.760  16.588  0.00  0.00    +0.000 A 
ATOM     25  C   UNL     1      37.631  -3.659  16.243  0.00  0.00    +0.000 A 
ENDBRANCH  19  20
ENDBRANCH  18  19
ENDBRANCH  11  13
ENDBRANCH   9  10
BRANCH   1  26
ATOM     26  C   UNL     1      36.137   0.525  16.458  0.00  0.00    +0.000 C 
ATOM     27  O   UNL     1      37.026   0.407  17.336  0.00  0.00    +0.000 OA
BRANCH  26  28
ATOM     28  O   UNL     1      35.198  -0.471  16.388  0.00  0.00    +0.000 OA
BRANCH  28  30
ATOM     29  C   UNL     1      33.518  -1.886  17.317  0.00  0.00    +0.000 C 
ATOM     30  C   UNL     1      34.914  -1.346  17.492  0.00  0.00    +0.000 C 
ENDBRANCH  28  30
ENDBRANCH  26  28
ENDBRANCH   1  26
BRANCH   6  31
ATOM     31  O   UNL     1      36.930   5.992  11.545  0.00  0.00    +0.000 OA
ATOM     32  C   UNL     1      36.364   7.257  11.309  0.00  0.00    +0.000 C 
ENDBRANCH   6  31
TORSDOF 8
ENDMDL
MODEL 5
REMARK VINA RESULT:      -6.7      2.516      3.311
REMARK  Name = 
REMARK  8 active torsions:
REMARK  status: ('A' for Active; 'I' for Inactive)
REMARK    1  A    between atoms: C_2  and  O_3
REMARK    2  A    between atoms: O_3  and  C_4
REMARK    3  A    between atoms: C_4  and  C_6
REMARK    4  A    between atoms: C_11  and  O_12
REMARK    5  A    between atoms: C_16  and  N_17
REMARK    6  A    between atoms: C_18  and  C_20
REMARK    7  A    between atoms: C_25  and  C_26
REMARK    8  A    between atoms: C_26  and  C_27
REMARK                            x       y       z     vdW  Elec       q    Type
REMARK                         _______ _______ _______ _____ _____    ______ ____
ROOT
ATOM      1  C   UNL     1      38.403  -2.127  14.944  0.00  0.00    +0.000 A 
ATOM      2  N   UNL     1      39.621  -2.700  15.035  0.00  0.00    +0.000 NA
ATOM      3  C   UNL     1      40.596  -1.847  14.675  0.00  0.00    +0.000 A 
ATOM      4  C   UNL     1      41.975  -1.986  14.610  0.00  0.00    +0.000 A 
ATOM      5  C   UNL     1      42.735  -0.919  14.197  0.00  0.00    +0.000 A 
ATOM      6  C   UNL     1      42.170   0.287  13.845  0.00  0.00    +0.000 A 
ATOM      7  C   UNL     1      40.800   0.405  13.916  0.00  0.00    +0.000 A 
ATOM      8  C   UNL     1      39.991  -0.652  14.330  0.00  0.00    +0.000 A 
ATOM      9  C   UNL     1      38.640  -0.847  14.502  0.00  0.00    +0.000 A 
ENDROOT
BRANCH   9  10
ATOM     10  N   UNL     1      37.621   0.099  14.242  0.00  0.00    +0.000 NA
ATOM     11  C   UNL     1      36.975   0.862  15.237  0.00  0.00    +0.000 C 
ATOM     12  O   UNL     1      37.264   0.738  16.397  0.00  0.00    +0.000 OA
BRANCH  11  13
ATOM     13  C   UNL     1      35.894   1.836  14.654  0.00  0.00    +0.000 C 
ATOM     14  C   UNL     1      35.395   2.528  16.084  0.00  0.00    +0.000 C 
ATOM     15  C   UNL     1      34.211   3.246  15.440  0.00  0.00    +0.000 C 
ATOM     16  C   UNL     1      34.672   4.202  14.646  0.00  0.00    +0.000 C 
ATOM     17  C   UNL     1      36.070   4.371  14.553  0.00  0.00    +0.000 C 
ATOM     18  C   UNL     1      36.963   3.096  14.236  0.00  0.00    +0.000 C 
BRANCH  18  19
ATOM     19  C   UNL     1      37.767   3.149  15.679  0.00  0.00    +0.000 C 
BRANCH  19  20
ATOM     20  C   UNL     1      38.843   4.122  15.555  0.00  0.00    +0.000 A 
ATOM     21  C   UNL     1      39.616   4.236  14.426  0.00  0.00    +0.000 A 
ATOM     22  C   UNL     1      40.646   5.178  14.332  0.00  0.00    +0.000 A 
ATOM     23  C   UNL     1      40.890   6.006  15.383  0.00  0.00    +0.000 A 
ATOM     24  C   UNL     1      40.145   5.923  16.523  0.00  0.00    +0.000 A 
ATOM     25  C   UNL     1      39.118   4.974  16.603  0.00  0.00    +0.000 A 
ENDBRANCH  19  20
ENDBRANCH  18  19
ENDBRANCH  11  13
ENDBRANCH   9  10
BRANCH   1  26
ATOM     26  C   UNL     1      37.139  -2.766  15.290  0.00  0.00    +0.000 C 
ATOM     27  O   UNL     1      36.660  -3.631  14.516  0.00  0.00    +0.000 OA
BRANCH  26  28
ATOM     28  O   UNL     1      36.422  -2.485  16.424  0.00  0.00    +0.000 OA
BRANCH  28  30
ATOM     29  C   UNL     1      34.527  -1.300  17.253  0.00  0.00    +0.000 C 
ATOM     30  C   UNL     1      34.986  -2.492  16.455  0.00  0.00    +0.000 C 
ENDBRANCH  28  30
ENDBRANCH  26  28
ENDBRANCH   1  26
BRANCH   6  31
ATOM     31  O   UNL     1      43.042   1.284  13.445  0.00  0.00    +0.000 OA
ATOM     32  C   UNL     1      42.629   2.442  12.764  0.00  0.00    +0.000 C 
ENDBRANCH   6  31
TORSDOF 8
ENDMDL
MODEL 6
REMARK VINA RESULT:      -6.6      3.237      6.868
REMARK  Name = 
REMARK  8 active torsions:
REMARK  status: ('A' for Active; 'I' for Inactive)
REMARK    1  A    between atoms: C_2  and  O_3
REMARK    2  A    between atoms: O_3  and  C_4
REMARK    3  A    between atoms: C_4  and  C_6
REMARK    4  A    between atoms: C_11  and  O_12
REMARK    5  A    between atoms: C_16  and  N_17
REMARK    6  A    between atoms: C_18  and  C_20
REMARK    7  A    between atoms: C_25  and  C_26
REMARK    8  A    between atoms: C_26  and  C_27
REMARK                            x       y       z     vdW  Elec       q    Type
REMARK                         _______ _______ _______ _____ _____    ______ ____
ROOT
ATOM      1  C   UNL     1      36.541   3.832  14.984  0.00  0.00    +0.000 A 
ATOM      2  N   UNL     1      35.773   4.892  14.659  0.00  0.00    +0.000 NA
ATOM      3  C   UNL     1      35.857   5.180  13.348  0.00  0.00    +0.000 A 
ATOM      4  C   UNL     1      35.259   6.162  12.572  0.00  0.00    +0.000 A 
ATOM      5  C   UNL     1      35.540   6.215  11.228  0.00  0.00    +0.000 A 
ATOM      6  C   UNL     1      36.397   5.321  10.627  0.00  0.00    +0.000 A 
ATOM      7  C   UNL     1      36.981   4.354  11.414  0.00  0.00    +0.000 A 
ATOM      8  C   UNL     1      36.725   4.264  12.781  0.00  0.00    +0.000 A 
ATOM      9  C   UNL     1      37.135   3.444  13.806  0.00  0.00    +0.000 A 
ENDROOT
BRANCH   9  10
ATOM     10  N   UNL     1      38.053   2.372  13.701  0.00  0.00    +0.000 NA
ATOM     11  C   UNL     1      37.730   1.101  13.183  0.00  0.00    +0.000 C 
ATOM     12  O   UNL     1      36.619   0.853  12.797  0.00  0.00    +0.000 OA
BRANCH  11  13
ATOM     13  C   UNL     1      38.949   0.115  13.181  0.00  0.00    +0.000 C 
ATOM     14  C   UNL     1      39.723   0.683  14.542  0.00  0.00    +0.000 C 
ATOM     15  C   UNL     1      40.977  -0.154  14.301  0.00  0.00    +0.000 C 
ATOM     16  C   UNL     1      40.679  -1.432  14.487  0.00  0.00    +0.000 C 
ATOM     17  C   UNL     1      39.356  -1.759  14.852  0.00  0.00    +0.000 C 
ATOM     18  C   UNL     1      38.167  -1.175  13.975  0.00  0.00    +0.000 C 
BRANCH  18  19
ATOM     19  C   UNL     1      37.532  -0.280  15.210  0.00  0.00    +0.000 C 
BRANCH  19  20
ATOM     20  C   UNL     1      36.422  -1.030  15.781  0.00  0.00    +0.000 A 
ATOM     21  C   UNL     1      35.926  -2.174  15.208  0.00  0.00    +0.000 A 
ATOM     22  C   UNL     1      34.857  -2.877  15.776  0.00  0.00    +0.000 A 
ATOM     23  C   UNL     1      34.294  -2.419  16.926  0.00  0.00    +0.000 A 
ATOM     24  C   UNL     1      34.759  -1.285  17.526  0.00  0.00    +0.000 A 
ATOM     25  C   UNL     1      35.828  -0.592  16.946  0.00  0.00    +0.000 A 
ENDBRANCH  19  20
ENDBRANCH  18  19
ENDBRANCH  11  13
ENDBRANCH   9  10
BRANCH   1  26
ATOM     26  C   UNL     1      36.653   3.243  16.313  0.00  0.00    +0.000 C 
ATOM     27  O   UNL     1      35.758   2.456  16.711  0.00  0.00    +0.000 OA
BRANCH  26  28
ATOM     28  O   UNL     1      37.688   3.492  17.177  0.00  0.00    +0.000 OA
BRANCH  28  30
ATOM     29  C   UNL     1      38.962   5.074  18.425  0.00  0.00    +0.000 C 
ATOM     30  C   UNL     1      38.549   4.634  17.044  0.00  0.00    +0.000 C 
ENDBRANCH  28  30
ENDBRANCH  26  28
ENDBRANCH   1  26
BRANCH   6  31
ATOM     31  O   UNL     1      36.599   5.478   9.267  0.00  0.00    +0.000 OA
ATOM     32  C   UNL     1      35.609   5.214   8.305  0.00  0.00    +0.000 C 
ENDBRANCH   6  31
TORSDOF 8
ENDMDL
MODEL 7
REMARK VINA RESULT:      -6.6      1.682      5.393
REMARK  Name = 
REMARK  8 active torsions:
REMARK  status: ('A' for Active; 'I' for Inactive)
REMARK    1  A    between atoms: C_2  and  O_3
REMARK    2  A    between atoms: O_3  and  C_4
REMARK    3  A    between atoms: C_4  and  C_6
REMARK    4  A    between atoms: C_11  and  O_12
REMARK    5  A    between atoms: C_16  and  N_17
REMARK    6  A    between atoms: C_18  and  C_20
REMARK    7  A    between atoms: C_25  and  C_26
REMARK    8  A    between atoms: C_26  and  C_27
REMARK                            x       y       z     vdW  Elec       q    Type
REMARK                         _______ _______ _______ _____ _____    ______ ____
ROOT
ATOM      1  C   UNL     1      40.806  -2.418  14.519  0.00  0.00    +0.000 A 
ATOM      2  N   UNL     1      40.464  -3.161  15.592  0.00  0.00    +0.000 NA
ATOM      3  C   UNL     1      39.391  -2.653  16.223  0.00  0.00    +0.000 A 
ATOM      4  C   UNL     1      38.693  -3.065  17.349  0.00  0.00    +0.000 A 
ATOM      5  C   UNL     1      37.611  -2.332  17.770  0.00  0.00    +0.000 A 
ATOM      6  C   UNL     1      37.197  -1.197  17.109  0.00  0.00    +0.000 A 
ATOM      7  C   UNL     1      37.903  -0.803  15.994  0.00  0.00    +0.000 A 
ATOM      8  C   UNL     1      39.006  -1.519  15.531  0.00  0.00    +0.000 A 
ATOM      9  C   UNL     1      39.892  -1.392  14.487  0.00  0.00    +0.000 A 
ENDROOT
BRANCH   9  10
ATOM     10  N   UNL     1      39.904  -0.355  13.524  0.00  0.00    +0.000 NA
ATOM     11  C   UNL     1      38.973  -0.240  12.471  0.00  0.00    +0.000 C 
ATOM     12  O   UNL     1      38.095  -1.049  12.329  0.00  0.00    +0.000 OA
BRANCH  11  13
ATOM     13  C   UNL     1      39.226   1.014  11.566  0.00  0.00    +0.000 C 
ATOM     14  C   UNL     1      37.842   0.931  10.643  0.00  0.00    +0.000 C 
ATOM     15  C   UNL     1      38.307   2.011   9.669  0.00  0.00    +0.000 C 
ATOM     16  C   UNL     1      38.324   3.177  10.299  0.00  0.00    +0.000 C 
ATOM     17  C   UNL     1      37.934   3.204  11.655  0.00  0.00    +0.000 C 
ATOM     18  C   UNL     1      38.617   2.175  12.655  0.00  0.00    +0.000 C 
BRANCH  18  19
ATOM     19  C   UNL     1      37.206   1.388  13.001  0.00  0.00    +0.000 C 
BRANCH  19  20
ATOM     20  C   UNL     1      36.705   1.903  14.268  0.00  0.00    +0.000 A 
ATOM     21  C   UNL     1      35.401   1.750  14.669  0.00  0.00    +0.000 A 
ATOM     22  C   UNL     1      34.944   2.256  15.892  0.00  0.00    +0.000 A 
ATOM     23  C   UNL     1      35.811   2.916  16.706  0.00  0.00    +0.000 A 
ATOM     24  C   UNL     1      37.115   3.089  16.342  0.00  0.00    +0.000 A 
ATOM     25  C   UNL     1      37.557   2.578  15.116  0.00  0.00    +0.000 A 
ENDBRANCH  19  20
ENDBRANCH  18  19
ENDBRANCH  11  13
ENDBRANCH   9  10
BRANCH   1  26
ATOM     26  C   UNL     1      41.903  -2.709  13.602  0.00  0.00    +0.000 C 
ATOM     27  O   UNL     1      41.666  -3.355  12.552  0.00  0.00    +0.000 OA
BRANCH  26  28
ATOM     28  O   UNL     1      43.199  -2.316  13.810  0.00  0.00    +0.000 OA
BRANCH  28  30
ATOM     29  C   UNL     1      43.498   0.049  13.811  0.00  0.00    +0.000 C 
ATOM     30  C   UNL     1      43.546  -1.202  14.649  0.00  0.00    +0.000 C 
ENDBRANCH  28  30
ENDBRANCH  26  28
ENDBRANCH   1  26
BRANCH   6  31
ATOM     31  O   UNL     1      36.095  -0.545  17.632  0.00  0.00    +0.000 OA
ATOM     32  C   UNL     1      35.999  -0.151  18.977  0.00  0.00    +0.000 C 
ENDBRANCH   6  31
TORSDOF 8
ENDMDL
MODEL 8
REMARK VINA RESULT:      -6.3     27.856     31.705
REMARK  Name = 
REMARK  8 active torsions:
REMARK  status: ('A' for Active; 'I' for Inactive)
REMARK    1  A    between atoms: C_2  and  O_3
REMARK    2  A    between atoms: O_3  and  C_4
REMARK    3  A    between atoms: C_4  and  C_6
REMARK    4  A    between atoms: C_11  and  O_12
REMARK    5  A    between atoms: C_16  and  N_17
REMARK    6  A    between atoms: C_18  and  C_20
REMARK    7  A    between atoms: C_25  and  C_26
REMARK    8  A    between atoms: C_26  and  C_27
REMARK                            x       y       z     vdW  Elec       q    Type
REMARK                         _______ _______ _______ _____ _____    ______ ____
ROOT
ATOM      1  C   UNL     1      26.205  15.623  35.474  0.00  0.00    +0.000 A 
ATOM      2  N   UNL     1      26.291  15.104  36.716  0.00  0.00    +0.000 NA
ATOM      3  C   UNL     1      25.583  15.826  37.603  0.00  0.00    +0.000 A 
ATOM      4  C   UNL     1      25.379  15.680  38.967  0.00  0.00    +0.000 A 
ATOM      5  C   UNL     1      24.590  16.590  39.626  0.00  0.00    +0.000 A 
ATOM      6  C   UNL     1      23.994  17.646  38.972  0.00  0.00    +0.000 A 
ATOM      7  C   UNL     1      24.209  17.774  37.618  0.00  0.00    +0.000 A 
ATOM      8  C   UNL     1      25.002  16.873  36.911  0.00  0.00    +0.000 A 
ATOM      9  C   UNL     1      25.399  16.729  35.602  0.00  0.00    +0.000 A 
ENDROOT
BRANCH   9  10
ATOM     10  N   UNL     1      25.068  17.593  34.530  0.00  0.00    +0.000 NA
ATOM     11  C   UNL     1      25.811  18.739  34.178  0.00  0.00    +0.000 C 
ATOM     12  O   UNL     1      26.793  19.055  34.795  0.00  0.00    +0.000 OA
BRANCH  11  13
ATOM     13  C   UNL     1      25.214  19.498  32.943  0.00  0.00    +0.000 C 
ATOM     14  C   UNL     1      23.687  18.833  32.966  0.00  0.00    +0.000 C 
ATOM     15  C   UNL     1      23.296  19.435  31.618  0.00  0.00    +0.000 C 
ATOM     16  C   UNL     1      23.186  20.749  31.753  0.00  0.00    +0.000 C 
ATOM     17  C   UNL     1      23.428  21.308  33.026  0.00  0.00    +0.000 C 
ATOM     18  C   UNL     1      24.775  20.920  33.774  0.00  0.00    +0.000 C 
BRANCH  18  19
ATOM     19  C   UNL     1      24.005  20.175  35.032  0.00  0.00    +0.000 C 
BRANCH  19  20
ATOM     20  C   UNL     1      23.960  21.112  36.146  0.00  0.00    +0.000 A 
ATOM     21  C   UNL     1      22.787  21.501  36.743  0.00  0.00    +0.000 A 
ATOM     22  C   UNL     1      22.769  22.404  37.813  0.00  0.00    +0.000 A 
ATOM     23  C   UNL     1      23.944  22.909  38.277  0.00  0.00    +0.000 A 
ATOM     24  C   UNL     1      25.131  22.547  37.710  0.00  0.00    +0.000 A 
ATOM     25  C   UNL     1      25.132  21.644  36.640  0.00  0.00    +0.000 A 
ENDBRANCH  19  20
ENDBRANCH  18  19
ENDBRANCH  11  13
ENDBRANCH   9  10
BRANCH   1  26
ATOM     26  C   UNL     1      26.828  15.067  34.278  0.00  0.00    +0.000 C 
ATOM     27  O   UNL     1      27.958  15.486  33.926  0.00  0.00    +0.000 OA
BRANCH  26  28
ATOM     28  O   UNL     1      26.255  14.097  33.497  0.00  0.00    +0.000 OA
BRANCH  28  30
ATOM     29  C   UNL     1      25.058  15.478  31.966  0.00  0.00    +0.000 C 
ATOM     30  C   UNL     1      24.978  14.269  32.861  0.00  0.00    +0.000 C 
ENDBRANCH  28  30
ENDBRANCH  26  28
ENDBRANCH   1  26
BRANCH   6  31
ATOM     31  O   UNL     1      23.223  18.495  39.746  0.00  0.00    +0.000 OA
ATOM     32  C   UNL     1      22.710  18.139  41.005  0.00  0.00    +0.000 C 
ENDBRANCH   6  31
TORSDOF 8
ENDMDL
MODEL 9
REMARK VINA RESULT:      -6.2      2.484      5.722
REMARK  Name = 
REMARK  8 active torsions:
REMARK  status: ('A' for Active; 'I' for Inactive)
REMARK    1  A    between atoms: C_2  and  O_3
REMARK    2  A    between atoms: O_3  and  C_4
REMARK    3  A    between atoms: C_4  and  C_6
REMARK    4  A    between atoms: C_11  and  O_12
REMARK    5  A    between atoms: C_16  and  N_17
REMARK    6  A    between atoms: C_18  and  C_20
REMARK    7  A    between atoms: C_25  and  C_26
REMARK    8  A    between atoms: C_26  and  C_27
REMARK                            x       y       z     vdW  Elec       q    Type
REMARK                         _______ _______ _______ _____ _____    ______ ____
ROOT
ATOM      1  C   UNL     1      38.871  -2.536  13.223  0.00  0.00    +0.000 A 
ATOM      2  N   UNL     1      37.849  -3.371  13.503  0.00  0.00    +0.000 NA
ATOM      3  C   UNL     1      36.998  -2.830  14.392  0.00  0.00    +0.000 A 
ATOM      4  C   UNL     1      35.829  -3.306  14.968  0.00  0.00    +0.000 A 
ATOM      5  C   UNL     1      35.156  -2.514  15.865  0.00  0.00    +0.000 A 
ATOM      6  C   UNL     1      35.606  -1.260  16.213  0.00  0.00    +0.000 A 
ATOM      7  C   UNL     1      36.769  -0.805  15.631  0.00  0.00    +0.000 A 
ATOM      8  C   UNL     1      37.484  -1.576  14.715  0.00  0.00    +0.000 A 
ATOM      9  C   UNL     1      38.638  -1.416  13.985  0.00  0.00    +0.000 A 
ENDROOT
BRANCH   9  10
ATOM     10  N   UNL     1      39.495  -0.290  14.015  0.00  0.00    +0.000 NA
ATOM     11  C   UNL     1      39.537   0.700  13.011  0.00  0.00    +0.000 C 
ATOM     12  O   UNL     1      38.827   0.632  12.043  0.00  0.00    +0.000 OA
BRANCH  11  13
ATOM     13  C   UNL     1      40.576   1.834  13.316  0.00  0.00    +0.000 C 
ATOM     14  C   UNL     1      40.214   2.843  12.041  0.00  0.00    +0.000 C 
ATOM     15  C   UNL     1      41.416   3.752  12.290  0.00  0.00    +0.000 C 
ATOM     16  C   UNL     1      41.222   4.415  13.422  0.00  0.00    +0.000 C 
ATOM     17  C   UNL     1      40.027   4.180  14.133  0.00  0.00    +0.000 C 
ATOM     18  C   UNL     1      39.627   2.676  14.454  0.00  0.00    +0.000 C 
BRANCH  18  19
ATOM     19  C   UNL     1      38.244   2.723  13.550  0.00  0.00    +0.000 C 
BRANCH  19  20
ATOM     20  C   UNL     1      37.111   2.695  14.465  0.00  0.00    +0.000 A 
ATOM     21  C   UNL     1      37.240   2.906  15.815  0.00  0.00    +0.000 A 
ATOM     22  C   UNL     1      36.136   2.874  16.674  0.00  0.00    +0.000 A 
ATOM     23  C   UNL     1      34.900   2.630  16.161  0.00  0.00    +0.000 A 
ATOM     24  C   UNL     1      34.730   2.415  14.824  0.00  0.00    +0.000 A 
ATOM     25  C   UNL     1      35.845   2.449  13.978  0.00  0.00    +0.000 A 
ENDBRANCH  19  20
ENDBRANCH  18  19
ENDBRANCH  11  13
ENDBRANCH   9  10
BRANCH   1  26
ATOM     26  C   UNL     1      39.949  -2.803  12.277  0.00  0.00    +0.000 C 
ATOM     27  O   UNL     1      39.786  -2.511  11.067  0.00  0.00    +0.000 OA
BRANCH  26  28
ATOM     28  O   UNL     1      41.151  -3.362  12.625  0.00  0.00    +0.000 OA
BRANCH  28  30
ATOM     29  C   UNL     1      42.925  -2.070  13.556  0.00  0.00    +0.000 C 
ATOM     30  C   UNL     1      42.411  -2.745  12.311  0.00  0.00    +0.000 C 
ENDBRANCH  28  30
ENDBRANCH  26  28
ENDBRANCH   1  26
BRANCH   6  31
ATOM     31  O   UNL     1      34.841  -0.560  17.128  0.00  0.00    +0.000 OA
ATOM     32  C   UNL     1      35.235  -0.345  18.459  0.00  0.00    +0.000 C 
ENDBRANCH   6  31
TORSDOF 8
ENDMDL
MODEL 10
REMARK VINA RESULT:      -6.1     26.456     29.633
REMARK  Name = 
REMARK  8 active torsions:
REMARK  status: ('A' for Active; 'I' for Inactive)
REMARK    1  A    between atoms: C_2  and  O_3
REMARK    2  A    between atoms: O_3  and  C_4
REMARK    3  A    between atoms: C_4  and  C_6
REMARK    4  A    between atoms: C_11  and  O_12
REMARK    5  A    between atoms: C_16  and  N_17
REMARK    6  A    between atoms: C_18  and  C_20
REMARK    7  A    between atoms: C_25  and  C_26
REMARK    8  A    between atoms: C_26  and  C_27
REMARK                            x       y       z     vdW  Elec       q    Type
REMARK                         _______ _______ _______ _____ _____    ______ ____
ROOT
ATOM      1  C   UNL     1      29.508  14.316  39.502  0.00  0.00    +0.000 A 
ATOM      2  N   UNL     1      30.555  13.703  38.913  0.00  0.00    +0.000 NA
ATOM      3  C   UNL     1      30.751  14.154  37.662  0.00  0.00    +0.000 A 
ATOM      4  C   UNL     1      31.687  13.826  36.692  0.00  0.00    +0.000 A 
ATOM      5  C   UNL     1      31.643  14.466  35.477  0.00  0.00    +0.000 A 
ATOM      6  C   UNL     1      30.696  15.425  35.192  0.00  0.00    +0.000 A 
ATOM      7  C   UNL     1      29.775  15.736  36.168  0.00  0.00    +0.000 A 
ATOM      8  C   UNL     1      29.784  15.111  37.414  0.00  0.00    +0.000 A 
ATOM      9  C   UNL     1      29.029  15.194  38.560  0.00  0.00    +0.000 A 
ENDROOT
BRANCH   9  10
ATOM     10  N   UNL     1      27.903  16.028  38.759  0.00  0.00    +0.000 NA
ATOM     11  C   UNL     1      26.566  15.594  38.641  0.00  0.00    +0.000 C 
ATOM     12  O   UNL     1      26.306  14.457  38.351  0.00  0.00    +0.000 OA
BRANCH  11  13
ATOM     13  C   UNL     1      25.527  16.734  38.926  0.00  0.00    +0.000 C 
ATOM     14  C   UNL     1      26.491  18.039  38.552  0.00  0.00    +0.000 C 
ATOM     15  C   UNL     1      25.491  19.060  39.090  0.00  0.00    +0.000 C 
ATOM     16  C   UNL     1      24.429  19.077  38.296  0.00  0.00    +0.000 C 
ATOM     17  C   UNL     1      24.422  18.216  37.179  0.00  0.00    +0.000 C 
ATOM     18  C   UNL     1      24.747  16.678  37.412  0.00  0.00    +0.000 C 
BRANCH  18  19
ATOM     19  C   UNL     1      26.118  16.702  36.491  0.00  0.00    +0.000 C 
BRANCH  19  20
ATOM     20  C   UNL     1      25.785  16.168  35.178  0.00  0.00    +0.000 A 
ATOM     21  C   UNL     1      25.989  14.854  34.837  0.00  0.00    +0.000 A 
ATOM     22  C   UNL     1      25.661  14.364  33.567  0.00  0.00    +0.000 A 
ATOM     23  C   UNL     1      25.124  15.208  32.646  0.00  0.00    +0.000 A 
ATOM     24  C   UNL     1      24.905  16.521  32.947  0.00  0.00    +0.000 A 
ATOM     25  C   UNL     1      25.240  16.996  34.221  0.00  0.00    +0.000 A 
ENDBRANCH  19  20
ENDBRANCH  18  19
ENDBRANCH  11  13
ENDBRANCH   9  10
BRANCH   1  26
ATOM     26  C   UNL     1      29.047  14.081  40.866  0.00  0.00    +0.000 C 
ATOM     27  O   UNL     1      29.551  14.746  41.805  0.00  0.00    +0.000 OA
BRANCH  26  28
ATOM     28  O   UNL     1      28.081  13.168  41.202  0.00  0.00    +0.000 OA
BRANCH  28  30
ATOM     29  C   UNL     1      26.880  11.111  41.097  0.00  0.00    +0.000 C 
ATOM     30  C   UNL     1      28.235  11.758  40.972  0.00  0.00    +0.000 C 
ENDBRANCH  28  30
ENDBRANCH  26  28
ENDBRANCH   1  26
BRANCH   6  31
ATOM     31  O   UNL     1      30.756  15.996  33.933  0.00  0.00    +0.000 OA
ATOM     32  C   UNL     1      31.946  16.471  33.357  0.00  0.00    +0.000 C 
ENDBRANCH   6  31
TORSDOF 8
ENDMDL
