MODEL 1
REMARK VINA RESULT:      -7.2      0.000      0.000
REMARK  Name = 
REMARK  2 active torsions:
REMARK  status: ('A' for Active; 'I' for Inactive)
REMARK    1  A    between atoms: C_2  and  N_3
REMARK    2  A    between atoms: N_3  and  N_4
REMARK                            x       y       z     vdW  Elec       q    Type
REMARK                         _______ _______ _______ _____ _____    ______ ____
ROOT
ATOM      1  N   UNL     1      16.937   9.716  34.038  0.00  0.00    +0.000 NA
ATOM      2  C   UNL     1      16.123  10.871  33.739  0.00  0.00    +0.000 A 
ATOM      3  N   UNL     1      15.406  11.612  34.568  0.00  0.00    +0.000 NA
ATOM      4  C   UNL     1      14.729  12.623  34.121  0.00  0.00    +0.000 A 
ATOM      5  C   UNL     1      13.926  13.493  34.892  0.00  0.00    +0.000 A 
ATOM      6  C   UNL     1      13.273  14.512  34.291  0.00  0.00    +0.000 A 
ATOM      7  C   UNL     1      13.308  14.807  32.946  0.00  0.00    +0.000 A 
ATOM      8  C   UNL     1      14.098  13.952  32.180  0.00  0.00    +0.000 A 
ATOM      9  C   UNL     1      14.789  12.885  32.776  0.00  0.00    +0.000 A 
ATOM     10  S   UNL     1      15.832  11.637  32.241  0.00  0.00    +0.000 S 
ENDROOT
BRANCH   1  11
ATOM     11  N   UNL     1      17.075   9.211  35.306  0.00  0.00    +0.000 NA
BRANCH  11  13
ATOM     12  C   UNL     1      19.281   9.463  35.972  0.00  0.00    +0.000 C 
ATOM     13  C   UNL     1      18.018   9.812  36.185  0.00  0.00    +0.000 C 
ATOM     14  C   UNL     1      17.539  10.741  37.230  0.00  0.00    +0.000 C 
ATOM     15  C   UNL     1      18.098  10.402  38.593  0.00  0.00    +0.000 C 
ATOM     16  C   UNL     1      19.060   9.239  38.514  0.00  0.00    +0.000 C 
ATOM     17  C   UNL     1      20.426   9.773  38.151  0.00  0.00    +0.000 C 
ATOM     18  C   UNL     1      20.523   9.853  36.647  0.00  0.00    +0.000 C 
ENDBRANCH  11  13
ENDBRANCH   1  11
TORSDOF 2
ENDMDL
MODEL 2
REMARK VINA RESULT:      -6.6      2.743      3.900
REMARK  Name = 
REMARK  2 active torsions:
REMARK  status: ('A' for Active; 'I' for Inactive)
REMARK    1  A    between atoms: C_2  and  N_3
REMARK    2  A    between atoms: N_3  and  N_4
REMARK                            x       y       z     vdW  Elec       q    Type
REMARK                         _______ _______ _______ _____ _____    ______ ____
ROOT
ATOM      1  N   UNL     1      17.805   9.525  37.758  0.00  0.00    +0.000 NA
ATOM      2  C   UNL     1      17.343   9.961  36.461  0.00  0.00    +0.000 A 
ATOM      3  N   UNL     1      16.399  10.843  36.175  0.00  0.00    +0.000 NA
ATOM      4  C   UNL     1      16.112  11.115  34.940  0.00  0.00    +0.000 A 
ATOM      5  C   UNL     1      15.133  12.032  34.496  0.00  0.00    +0.000 A 
ATOM      6  C   UNL     1      14.940  12.218  33.172  0.00  0.00    +0.000 A 
ATOM      7  C   UNL     1      15.626  11.580  32.162  0.00  0.00    +0.000 A 
ATOM      8  C   UNL     1      16.594  10.674  32.594  0.00  0.00    +0.000 A 
ATOM      9  C   UNL     1      16.817  10.460  33.963  0.00  0.00    +0.000 A 
ATOM     10  S   UNL     1      17.861   9.482  34.906  0.00  0.00    +0.000 S 
ENDROOT
BRANCH   1  11
ATOM     11  N   UNL     1      17.285  10.006  38.933  0.00  0.00    +0.000 NA
BRANCH  11  13
ATOM     12  C   UNL     1      18.302   8.229  40.021  0.00  0.00    +0.000 C 
ATOM     13  C   UNL     1      17.442   9.236  40.119  0.00  0.00    +0.000 C 
ATOM     14  C   UNL     1      16.665   9.600  41.322  0.00  0.00    +0.000 C 
ATOM     15  C   UNL     1      15.957   8.408  41.925  0.00  0.00    +0.000 C 
ATOM     16  C   UNL     1      16.291   7.138  41.175  0.00  0.00    +0.000 C 
ATOM     17  C   UNL     1      17.581   6.581  41.730  0.00  0.00    +0.000 C 
ATOM     18  C   UNL     1      18.733   7.224  40.997  0.00  0.00    +0.000 C 
ENDBRANCH  11  13
ENDBRANCH   1  11
TORSDOF 2
ENDMDL
MODEL 3
REMARK VINA RESULT:      -6.5      3.511      7.416
REMARK  Name = 
REMARK  2 active torsions:
REMARK  status: ('A' for Active; 'I' for Inactive)
REMARK    1  A    between atoms: C_2  and  N_3
REMARK    2  A    between atoms: N_3  and  N_4
REMARK                            x       y       z     vdW  Elec       q    Type
REMARK                         _______ _______ _______ _____ _____    ______ ____
ROOT
ATOM      1  N   UNL     1      18.991  11.103  38.749  0.00  0.00    +0.000 NA
ATOM      2  C   UNL     1      20.347  11.059  38.255  0.00  0.00    +0.000 A 
ATOM      3  N   UNL     1      20.907  10.163  37.460  0.00  0.00    +0.000 NA
ATOM      4  C   UNL     1      22.151  10.283  37.114  0.00  0.00    +0.000 A 
ATOM      5  C   UNL     1      22.870   9.402  36.274  0.00  0.00    +0.000 A 
ATOM      6  C   UNL     1      24.169   9.651  35.998  0.00  0.00    +0.000 A 
ATOM      7  C   UNL     1      24.901  10.720  36.467  0.00  0.00    +0.000 A 
ATOM      8  C   UNL     1      24.197  11.592  37.296  0.00  0.00    +0.000 A 
ATOM      9  C   UNL     1      22.847  11.360  37.602  0.00  0.00    +0.000 A 
ATOM     10  S   UNL     1      21.641  12.137  38.538  0.00  0.00    +0.000 S 
ENDROOT
BRANCH   1  11
ATOM     11  N   UNL     1      18.053  10.154  38.431  0.00  0.00    +0.000 NA
BRANCH  11  13
ATOM     12  C   UNL     1      17.511  10.094  36.178  0.00  0.00    +0.000 C 
ATOM     13  C   UNL     1      17.115  10.434  37.398  0.00  0.00    +0.000 C 
ATOM     14  C   UNL     1      15.823  11.058  37.749  0.00  0.00    +0.000 C 
ATOM     15  C   UNL     1      15.514  12.256  36.880  0.00  0.00    +0.000 C 
ATOM     16  C   UNL     1      16.582  12.456  35.828  0.00  0.00    +0.000 C 
ATOM     17  C   UNL     1      16.253  11.582  34.641  0.00  0.00    +0.000 C 
ATOM     18  C   UNL     1      16.850  10.215  34.875  0.00  0.00    +0.000 C 
ENDBRANCH  11  13
ENDBRANCH   1  11
TORSDOF 2
ENDMDL
MODEL 4
REMARK VINA RESULT:      -6.1     20.350     23.483
REMARK  Name = 
REMARK  2 active torsions:
REMARK  status: ('A' for Active; 'I' for Inactive)
REMARK    1  A    between atoms: C_2  and  N_3
REMARK    2  A    between atoms: N_3  and  N_4
REMARK                            x       y       z     vdW  Elec       q    Type
REMARK                         _______ _______ _______ _____ _____    ______ ____
ROOT
ATOM      1  N   UNL     1      33.568  -3.784  34.260  0.00  0.00    +0.000 NA
ATOM      2  C   UNL     1      33.851  -4.633  33.127  0.00  0.00    +0.000 A 
ATOM      3  N   UNL     1      33.481  -4.477  31.866  0.00  0.00    +0.000 NA
ATOM      4  C   UNL     1      33.830  -5.348  30.970  0.00  0.00    +0.000 A 
ATOM      5  C   UNL     1      33.504  -5.303  29.595  0.00  0.00    +0.000 A 
ATOM      6  C   UNL     1      33.937  -6.283  28.773  0.00  0.00    +0.000 A 
ATOM      7  C   UNL     1      34.695  -7.371  29.146  0.00  0.00    +0.000 A 
ATOM      8  C   UNL     1      35.019  -7.420  30.501  0.00  0.00    +0.000 A 
ATOM      9  C   UNL     1      34.584  -6.417  31.381  0.00  0.00    +0.000 A 
ATOM     10  S   UNL     1      34.742  -6.088  33.055  0.00  0.00    +0.000 S 
ENDROOT
BRANCH   1  11
ATOM     11  N   UNL     1      32.829  -2.633  34.160  0.00  0.00    +0.000 NA
BRANCH  11  13
ATOM     12  C   UNL     1      33.312  -0.782  35.470  0.00  0.00    +0.000 C 
ATOM     13  C   UNL     1      33.488  -1.380  34.298  0.00  0.00    +0.000 C 
ATOM     14  C   UNL     1      34.287  -0.859  33.169  0.00  0.00    +0.000 C 
ATOM     15  C   UNL     1      33.939   0.575  32.840  0.00  0.00    +0.000 C 
ATOM     16  C   UNL     1      32.911   1.123  33.804  0.00  0.00    +0.000 C 
ATOM     17  C   UNL     1      33.631   1.638  35.028  0.00  0.00    +0.000 C 
ATOM     18  C   UNL     1      33.812   0.493  35.994  0.00  0.00    +0.000 C 
ENDBRANCH  11  13
ENDBRANCH   1  11
TORSDOF 2
ENDMDL
MODEL 5
REMARK VINA RESULT:      -6.1     20.235     23.083
REMARK  Name = 
REMARK  2 active torsions:
REMARK  status: ('A' for Active; 'I' for Inactive)
REMARK    1  A    between atoms: C_2  and  N_3
REMARK    2  A    between atoms: N_3  and  N_4
REMARK                            x       y       z     vdW  Elec       q    Type
REMARK                         _______ _______ _______ _____ _____    ______ ____
ROOT
ATOM      1  N   UNL     1      33.387  -5.255  34.112  0.00  0.00    +0.000 NA
ATOM      2  C   UNL     1      33.228  -3.820  34.120  0.00  0.00    +0.000 A 
ATOM      3  N   UNL     1      33.898  -2.912  33.429  0.00  0.00    +0.000 NA
ATOM      4  C   UNL     1      33.617  -1.653  33.562  0.00  0.00    +0.000 A 
ATOM      5  C   UNL     1      34.251  -0.584  32.888  0.00  0.00    +0.000 A 
ATOM      6  C   UNL     1      33.854   0.686  33.125  0.00  0.00    +0.000 A 
ATOM      7  C   UNL     1      32.854   1.068  33.991  0.00  0.00    +0.000 A 
ATOM      8  C   UNL     1      32.226   0.018  34.659  0.00  0.00    +0.000 A 
ATOM      9  C   UNL     1      32.615  -1.312  34.434  0.00  0.00    +0.000 A 
ATOM     10  S   UNL     1      32.139  -2.853  35.011  0.00  0.00    +0.000 S 
ENDROOT
BRANCH   1  11
ATOM     11  N   UNL     1      34.318  -5.896  33.334  0.00  0.00    +0.000 NA
BRANCH  11  13
ATOM     12  C   UNL     1      34.698  -5.798  31.049  0.00  0.00    +0.000 C 
ATOM     13  C   UNL     1      33.951  -6.306  32.022  0.00  0.00    +0.000 C 
ATOM     14  C   UNL     1      32.809  -7.228  31.849  0.00  0.00    +0.000 C 
ATOM     15  C   UNL     1      31.830  -6.733  30.808  0.00  0.00    +0.000 C 
ATOM     16  C   UNL     1      32.318  -5.454  30.165  0.00  0.00    +0.000 C 
ATOM     17  C   UNL     1      33.251  -5.815  29.033  0.00  0.00    +0.000 C 
ATOM     18  C   UNL     1      34.644  -5.971  29.594  0.00  0.00    +0.000 C 
ENDBRANCH  11  13
ENDBRANCH   1  11
TORSDOF 2
ENDMDL
MODEL 6
REMARK VINA RESULT:      -5.9      5.708      7.624
REMARK  Name = 
REMARK  2 active torsions:
REMARK  status: ('A' for Active; 'I' for Inactive)
REMARK    1  A    between atoms: C_2  and  N_3
REMARK    2  A    between atoms: N_3  and  N_4
REMARK                            x       y       z     vdW  Elec       q    Type
REMARK                         _______ _______ _______ _____ _____    ______ ____
ROOT
ATOM      1  N   UNL     1      18.942  11.158  38.668  0.00  0.00    +0.000 NA
ATOM      2  C   UNL     1      20.300  11.081  38.185  0.00  0.00    +0.000 A 
ATOM      3  N   UNL     1      20.870  10.123  37.472  0.00  0.00    +0.000 NA
ATOM      4  C   UNL     1      22.114  10.222  37.122  0.00  0.00    +0.000 A 
ATOM      5  C   UNL     1      22.842   9.277  36.364  0.00  0.00    +0.000 A 
ATOM      6  C   UNL     1      24.140   9.510  36.071  0.00  0.00    +0.000 A 
ATOM      7  C   UNL     1      24.863  10.620  36.448  0.00  0.00    +0.000 A 
ATOM      8  C   UNL     1      24.150  11.556  37.196  0.00  0.00    +0.000 A 
ATOM      9  C   UNL     1      22.800  11.342  37.516  0.00  0.00    +0.000 A 
ATOM     10  S   UNL     1      21.586  12.189  38.378  0.00  0.00    +0.000 S 
ENDROOT
BRANCH   1  11
ATOM     11  N   UNL     1      18.011  10.179  38.431  0.00  0.00    +0.000 NA
BRANCH  11  13
ATOM     12  C   UNL     1      16.351   9.772  39.997  0.00  0.00    +0.000 C 
ATOM     13  C   UNL     1      17.536   9.404  39.525  0.00  0.00    +0.000 C 
ATOM     14  C   UNL     1      18.366   8.292  40.035  0.00  0.00    +0.000 C 
ATOM     15  C   UNL     1      18.532   8.347  41.536  0.00  0.00    +0.000 C 
ATOM     16  C   UNL     1      17.741   9.490  42.131  0.00  0.00    +0.000 C 
ATOM     17  C   UNL     1      16.323   9.021  42.362  0.00  0.00    +0.000 C 
ATOM     18  C   UNL     1      15.536   9.240  41.093  0.00  0.00    +0.000 C 
ENDBRANCH  11  13
ENDBRANCH   1  11
TORSDOF 2
ENDMDL
MODEL 7
REMARK VINA RESULT:      -5.9     22.200     24.008
REMARK  Name = 
REMARK  2 active torsions:
REMARK  status: ('A' for Active; 'I' for Inactive)
REMARK    1  A    between atoms: C_2  and  N_3
REMARK    2  A    between atoms: N_3  and  N_4
REMARK                            x       y       z     vdW  Elec       q    Type
REMARK                         _______ _______ _______ _____ _____    ______ ____
ROOT
ATOM      1  N   UNL     1      28.703  25.134  21.080  0.00  0.00    +0.000 NA
ATOM      2  C   UNL     1      28.867  24.452  22.342  0.00  0.00    +0.000 A 
ATOM      3  N   UNL     1      29.988  24.098  22.949  0.00  0.00    +0.000 NA
ATOM      4  C   UNL     1      29.947  23.486  24.092  0.00  0.00    +0.000 A 
ATOM      5  C   UNL     1      31.063  23.054  24.844  0.00  0.00    +0.000 A 
ATOM      6  C   UNL     1      30.871  22.425  26.025  0.00  0.00    +0.000 A 
ATOM      7  C   UNL     1      29.651  22.148  26.600  0.00  0.00    +0.000 A 
ATOM      8  C   UNL     1      28.547  22.572  25.862  0.00  0.00    +0.000 A 
ATOM      9  C   UNL     1      28.714  23.227  24.632  0.00  0.00    +0.000 A 
ATOM     10  S   UNL     1      27.682  23.894  23.438  0.00  0.00    +0.000 S 
ENDROOT
BRANCH   1  11
ATOM     11  N   UNL     1      29.763  25.524  20.302  0.00  0.00    +0.000 NA
BRANCH  11  13
ATOM     12  C   UNL     1      29.460  27.775  20.765  0.00  0.00    +0.000 C 
ATOM     13  C   UNL     1      29.831  26.876  19.863  0.00  0.00    +0.000 C 
ATOM     14  C   UNL     1      30.292  27.164  18.489  0.00  0.00    +0.000 C 
ATOM     15  C   UNL     1      29.357  28.100  17.759  0.00  0.00    +0.000 C 
ATOM     16  C   UNL     1      28.228  28.554  18.658  0.00  0.00    +0.000 C 
ATOM     17  C   UNL     1      28.704  29.744  19.458  0.00  0.00    +0.000 C 
ATOM     18  C   UNL     1      29.389  29.239  20.704  0.00  0.00    +0.000 C 
ENDBRANCH  11  13
ENDBRANCH   1  11
TORSDOF 2
ENDMDL
MODEL 8
REMARK VINA RESULT:      -5.8     18.184     19.551
REMARK  Name = 
REMARK  2 active torsions:
REMARK  status: ('A' for Active; 'I' for Inactive)
REMARK    1  A    between atoms: C_2  and  N_3
REMARK    2  A    between atoms: N_3  and  N_4
REMARK                            x       y       z     vdW  Elec       q    Type
REMARK                         _______ _______ _______ _____ _____    ______ ____
ROOT
ATOM      1  N   UNL     1      25.359  24.357  24.505  0.00  0.00    +0.000 NA
ATOM      2  C   UNL     1      25.400  24.539  25.937  0.00  0.00    +0.000 A 
ATOM      3  N   UNL     1      25.970  23.770  26.851  0.00  0.00    +0.000 NA
ATOM      4  C   UNL     1      25.908  24.091  28.105  0.00  0.00    +0.000 A 
ATOM      5  C   UNL     1      26.470  23.364  29.179  0.00  0.00    +0.000 A 
ATOM      6  C   UNL     1      26.328  23.818  30.443  0.00  0.00    +0.000 A 
ATOM      7  C   UNL     1      25.664  24.966  30.815  0.00  0.00    +0.000 A 
ATOM      8  C   UNL     1      25.107  25.688  29.761  0.00  0.00    +0.000 A 
ATOM      9  C   UNL     1      25.238  25.242  28.436  0.00  0.00    +0.000 A 
ATOM     10  S   UNL     1      24.736  25.789  26.893  0.00  0.00    +0.000 S 
ENDROOT
BRANCH   1  11
ATOM     11  N   UNL     1      25.945  23.290  23.874  0.00  0.00    +0.000 NA
BRANCH  11  13
ATOM     12  C   UNL     1      28.233  23.040  24.152  0.00  0.00    +0.000 C 
ATOM     13  C   UNL     1      27.257  23.441  23.346  0.00  0.00    +0.000 C 
ATOM     14  C   UNL     1      27.428  24.011  21.993  0.00  0.00    +0.000 C 
ATOM     15  C   UNL     1      28.450  25.124  21.969  0.00  0.00    +0.000 C 
ATOM     16  C   UNL     1      29.083  25.313  23.330  0.00  0.00    +0.000 C 
ATOM     17  C   UNL     1      30.230  24.339  23.461  0.00  0.00    +0.000 C 
ATOM     18  C   UNL     1      29.689  23.030  23.982  0.00  0.00    +0.000 C 
ENDBRANCH  11  13
ENDBRANCH   1  11
TORSDOF 2
ENDMDL
MODEL 9
REMARK VINA RESULT:      -5.7      6.194      7.720
REMARK  Name = 
REMARK  2 active torsions:
REMARK  status: ('A' for Active; 'I' for Inactive)
REMARK    1  A    between atoms: C_2  and  N_3
REMARK    2  A    between atoms: N_3  and  N_4
REMARK                            x       y       z     vdW  Elec       q    Type
REMARK                         _______ _______ _______ _____ _____    ______ ____
ROOT
ATOM      1  N   UNL     1      19.114  10.683  39.151  0.00  0.00    +0.000 NA
ATOM      2  C   UNL     1      20.405  10.748  38.508  0.00  0.00    +0.000 A 
ATOM      3  N   UNL     1      21.007   9.830  37.770  0.00  0.00    +0.000 NA
ATOM      4  C   UNL     1      22.179  10.062  37.265  0.00  0.00    +0.000 A 
ATOM      5  C   UNL     1      22.930   9.173  36.463  0.00  0.00    +0.000 A 
ATOM      6  C   UNL     1      24.143   9.549  36.003  0.00  0.00    +0.000 A 
ATOM      7  C   UNL     1      24.755  10.760  36.243  0.00  0.00    +0.000 A 
ATOM      8  C   UNL     1      24.018  11.640  37.034  0.00  0.00    +0.000 A 
ATOM      9  C   UNL     1      22.755  11.279  37.527  0.00  0.00    +0.000 A 
ATOM     10  S   UNL     1      21.550  12.016  38.496  0.00  0.00    +0.000 S 
ENDROOT
BRANCH   1  11
ATOM     11  N   UNL     1      18.297   9.584  39.070  0.00  0.00    +0.000 NA
BRANCH  11  13
ATOM     12  C   UNL     1      18.168   7.553  40.181  0.00  0.00    +0.000 C 
ATOM     13  C   UNL     1      17.992   8.866  40.260  0.00  0.00    +0.000 C 
ATOM     14  C   UNL     1      17.519   9.609  41.447  0.00  0.00    +0.000 C 
ATOM     15  C   UNL     1      16.268   9.000  42.038  0.00  0.00    +0.000 C 
ATOM     16  C   UNL     1      15.870   7.744  41.296  0.00  0.00    +0.000 C 
ATOM     17  C   UNL     1      16.641   6.582  41.877  0.00  0.00    +0.000 C 
ATOM     18  C   UNL     1      17.968   6.487  41.166  0.00  0.00    +0.000 C 
ENDBRANCH  11  13
ENDBRANCH   1  11
TORSDOF 2
ENDMDL
MODEL 10
REMARK VINA RESULT:      -5.7     20.803     22.647
REMARK  Name = 
REMARK  2 active torsions:
REMARK  status: ('A' for Active; 'I' for Inactive)
REMARK    1  A    between atoms: C_2  and  N_3
REMARK    2  A    between atoms: N_3  and  N_4
REMARK                            x       y       z     vdW  Elec       q    Type
REMARK                         _______ _______ _______ _____ _____    ______ ____
ROOT
ATOM      1  N   UNL     1      14.672  -8.872  25.957  0.00  0.00    +0.000 NA
ATOM      2  C   UNL     1      16.038  -8.408  25.893  0.00  0.00    +0.000 A 
ATOM      3  N   UNL     1      16.514  -7.203  26.163  0.00  0.00    +0.000 NA
ATOM      4  C   UNL     1      17.784  -6.962  26.052  0.00  0.00    +0.000 A 
ATOM      5  C   UNL     1      18.422  -5.728  26.308  0.00  0.00    +0.000 A 
ATOM      6  C   UNL     1      19.759  -5.619  26.149  0.00  0.00    +0.000 A 
ATOM      7  C   UNL     1      20.606  -6.628  25.747  0.00  0.00    +0.000 A 
ATOM      8  C   UNL     1      19.982  -7.849  25.494  0.00  0.00    +0.000 A 
ATOM      9  C   UNL     1      18.595  -7.993  25.649  0.00  0.00    +0.000 A 
ATOM     10  S   UNL     1      17.455  -9.257  25.456  0.00  0.00    +0.000 S 
ENDROOT
BRANCH   1  11
ATOM     11  N   UNL     1      13.629  -8.063  26.330  0.00  0.00    +0.000 NA
BRANCH  11  13
ATOM     12  C   UNL     1      11.601  -8.887  27.093  0.00  0.00    +0.000 C 
ATOM     13  C   UNL     1      12.300  -8.480  26.041  0.00  0.00    +0.000 C 
ATOM     14  C   UNL     1      11.818  -8.431  24.644  0.00  0.00    +0.000 C 
ATOM     15  C   UNL     1      11.173  -9.730  24.219  0.00  0.00    +0.000 C 
ATOM     16  C   UNL     1      11.127 -10.717  25.364  0.00  0.00    +0.000 C 
ATOM     17  C   UNL     1       9.891 -10.438  26.185  0.00  0.00    +0.000 C 
ATOM     18  C   UNL     1      10.227  -9.384  27.211  0.00  0.00    +0.000 C 
ENDBRANCH  11  13
ENDBRANCH   1  11
TORSDOF 2
ENDMDL
