MODEL 1
REMARK VINA RESULT:      -6.3      0.000      0.000
REMARK  Name = 
REMARK  2 active torsions:
REMARK  status: ('A' for Active; 'I' for Inactive)
REMARK    1  A    between atoms: C_7  and  N_8
REMARK    2  A    between atoms: C_9  and  C_11
REMARK                            x       y       z     vdW  Elec       q    Type
REMARK                         _______ _______ _______ _____ _____    ______ ____
ROOT
ATOM      1  N   UNL     1      28.790  22.244  27.097  0.00  0.00    +0.000 NA
ATOM      2  C   UNL     1      29.052  23.212  28.091  0.00  0.00    +0.000 C 
ATOM      3  O   UNL     1      28.844  24.407  27.786  0.00  0.00    +0.000 OA
ENDROOT
BRANCH   2   4
ATOM      4  C   UNL     1      29.557  22.848  29.450  0.00  0.00    +0.000 A 
ATOM      5  C   UNL     1      28.692  22.707  30.499  0.00  0.00    +0.000 A 
ATOM      6  N   UNL     1      27.252  22.873  30.474  0.00  0.00    +0.000 NA
ATOM      7  S   UNL     1      29.714  22.298  31.798  0.00  0.00    +0.000 S 
ATOM      8  C   UNL     1      31.211  22.314  30.991  0.00  0.00    +0.000 A 
ATOM      9  C   UNL     1      30.872  22.642  29.709  0.00  0.00    +0.000 A 
ATOM     10  C   UNL     1      32.075  22.720  28.770  0.00  0.00    +0.000 C 
ATOM     11  C   UNL     1      32.768  21.367  28.956  0.00  0.00    +0.000 C 
ATOM     12  C   UNL     1      33.417  21.371  30.299  0.00  0.00    +0.000 C 
ATOM     13  C   UNL     1      32.656  22.065  31.375  0.00  0.00    +0.000 C 
ENDBRANCH   2   4
BRANCH   1  20
ATOM     14  C   UNL     1      30.588  22.599  24.930  0.00  0.00    +0.000 C 
ATOM     15  C   UNL     1      29.130  22.823  24.740  0.00  0.00    +0.000 A 
ATOM     16  C   UNL     1      28.596  23.206  23.527  0.00  0.00    +0.000 A 
ATOM     17  C   UNL     1      27.244  23.413  23.357  0.00  0.00    +0.000 A 
ATOM     18  C   UNL     1      26.405  23.229  24.434  0.00  0.00    +0.000 A 
ATOM     19  C   UNL     1      26.952  22.850  25.627  0.00  0.00    +0.000 A 
ATOM     20  C   UNL     1      28.309  22.640  25.809  0.00  0.00    +0.000 A 
ENDBRANCH   1  20
TORSDOF 2
ENDMDL
MODEL 2
REMARK VINA RESULT:      -6.2     17.908     19.074
REMARK  Name = 
REMARK  2 active torsions:
REMARK  status: ('A' for Active; 'I' for Inactive)
REMARK    1  A    between atoms: C_7  and  N_8
REMARK    2  A    between atoms: C_9  and  C_11
REMARK                            x       y       z     vdW  Elec       q    Type
REMARK                         _______ _______ _______ _____ _____    ______ ____
ROOT
ATOM      1  N   UNL     1      17.707   9.944  37.262  0.00  0.00    +0.000 NA
ATOM      2  C   UNL     1      18.720  10.625  37.973  0.00  0.00    +0.000 C 
ATOM      3  O   UNL     1      18.684  11.875  37.952  0.00  0.00    +0.000 OA
ENDROOT
BRANCH   2   4
ATOM      4  C   UNL     1      19.796   9.905  38.721  0.00  0.00    +0.000 A 
ATOM      5  C   UNL     1      19.507   9.213  39.862  0.00  0.00    +0.000 A 
ATOM      6  N   UNL     1      18.210   9.069  40.494  0.00  0.00    +0.000 NA
ATOM      7  S   UNL     1      21.017   8.583  40.334  0.00  0.00    +0.000 S 
ATOM      8  C   UNL     1      21.982   9.207  39.080  0.00  0.00    +0.000 A 
ATOM      9  C   UNL     1      21.089   9.901  38.312  0.00  0.00    +0.000 A 
ATOM     10  C   UNL     1      21.731  10.567  37.097  0.00  0.00    +0.000 C 
ATOM     11  C   UNL     1      22.465   9.418  36.399  0.00  0.00    +0.000 C 
ATOM     12  C   UNL     1      23.653   9.068  37.229  0.00  0.00    +0.000 C 
ATOM     13  C   UNL     1      23.449   9.145  38.703  0.00  0.00    +0.000 C 
ENDBRANCH   2   4
BRANCH   1  20
ATOM     14  C   UNL     1      17.751  10.111  34.430  0.00  0.00    +0.000 C 
ATOM     15  C   UNL     1      16.676  10.785  35.205  0.00  0.00    +0.000 A 
ATOM     16  C   UNL     1      15.671  11.507  34.595  0.00  0.00    +0.000 A 
ATOM     17  C   UNL     1      14.677  12.131  35.318  0.00  0.00    +0.000 A 
ATOM     18  C   UNL     1      14.692  12.025  36.691  0.00  0.00    +0.000 A 
ATOM     19  C   UNL     1      15.694  11.306  37.278  0.00  0.00    +0.000 A 
ATOM     20  C   UNL     1      16.698  10.676  36.560  0.00  0.00    +0.000 A 
ENDBRANCH   1  20
TORSDOF 2
ENDMDL
MODEL 3
REMARK VINA RESULT:      -6.2      2.410      6.501
REMARK  Name = 
REMARK  2 active torsions:
REMARK  status: ('A' for Active; 'I' for Inactive)
REMARK    1  A    between atoms: C_7  and  N_8
REMARK    2  A    between atoms: C_9  and  C_11
REMARK                            x       y       z     vdW  Elec       q    Type
REMARK                         _______ _______ _______ _____ _____    ______ ____
ROOT
ATOM      1  N   UNL     1      29.400  23.533  27.468  0.00  0.00    +0.000 NA
ATOM      2  C   UNL     1      28.388  22.780  26.832  0.00  0.00    +0.000 C 
ATOM      3  O   UNL     1      28.250  21.592  27.201  0.00  0.00    +0.000 OA
ENDROOT
BRANCH   2   4
ATOM      4  C   UNL     1      27.513  23.354  25.765  0.00  0.00    +0.000 A 
ATOM      5  C   UNL     1      26.286  23.870  26.074  0.00  0.00    +0.000 A 
ATOM      6  N   UNL     1      25.673  23.943  27.385  0.00  0.00    +0.000 NA
ATOM      7  S   UNL     1      25.687  24.389  24.567  0.00  0.00    +0.000 S 
ATOM      8  C   UNL     1      26.997  23.943  23.578  0.00  0.00    +0.000 A 
ATOM      9  C   UNL     1      27.883  23.393  24.461  0.00  0.00    +0.000 A 
ATOM     10  C   UNL     1      29.170  22.907  23.797  0.00  0.00    +0.000 C 
ATOM     11  C   UNL     1      29.666  24.132  23.025  0.00  0.00    +0.000 C 
ATOM     12  C   UNL     1      28.762  24.327  21.854  0.00  0.00    +0.000 C 
ATOM     13  C   UNL     1      27.323  24.030  22.100  0.00  0.00    +0.000 C 
ENDBRANCH   2   4
BRANCH   1  20
ATOM     14  C   UNL     1      28.687  23.759  30.205  0.00  0.00    +0.000 C 
ATOM     15  C   UNL     1      29.915  23.020  29.807  0.00  0.00    +0.000 A 
ATOM     16  C   UNL     1      30.746  22.423  30.732  0.00  0.00    +0.000 A 
ATOM     17  C   UNL     1      31.884  21.739  30.359  0.00  0.00    +0.000 A 
ATOM     18  C   UNL     1      32.193  21.652  29.020  0.00  0.00    +0.000 A 
ATOM     19  C   UNL     1      31.358  22.250  28.118  0.00  0.00    +0.000 A 
ATOM     20  C   UNL     1      30.214  22.939  28.484  0.00  0.00    +0.000 A 
ENDBRANCH   1  20
TORSDOF 2
ENDMDL
MODEL 4
REMARK VINA RESULT:      -6.1      4.227      6.398
REMARK  Name = 
REMARK  2 active torsions:
REMARK  status: ('A' for Active; 'I' for Inactive)
REMARK    1  A    between atoms: C_7  and  N_8
REMARK    2  A    between atoms: C_9  and  C_11
REMARK                            x       y       z     vdW  Elec       q    Type
REMARK                         _______ _______ _______ _____ _____    ______ ____
ROOT
ATOM      1  N   UNL     1      25.795  25.852  25.400  0.00  0.00    +0.000 NA
ATOM      2  C   UNL     1      26.104  24.747  24.579  0.00  0.00    +0.000 C 
ATOM      3  O   UNL     1      25.157  23.990  24.268  0.00  0.00    +0.000 OA
ENDROOT
BRANCH   2   4
ATOM      4  C   UNL     1      27.491  24.472  24.092  0.00  0.00    +0.000 A 
ATOM      5  C   UNL     1      27.997  25.147  23.017  0.00  0.00    +0.000 A 
ATOM      6  N   UNL     1      27.329  26.162  22.227  0.00  0.00    +0.000 NA
ATOM      7  S   UNL     1      29.565  24.504  22.853  0.00  0.00    +0.000 S 
ATOM      8  C   UNL     1      29.549  23.398  24.144  0.00  0.00    +0.000 A 
ATOM      9  C   UNL     1      28.303  23.559  24.680  0.00  0.00    +0.000 A 
ATOM     10  C   UNL     1      28.042  22.653  25.882  0.00  0.00    +0.000 C 
ATOM     11  C   UNL     1      29.218  22.946  26.818  0.00  0.00    +0.000 C 
ATOM     12  C   UNL     1      30.438  22.332  26.220  0.00  0.00    +0.000 C 
ATOM     13  C   UNL     1      30.527  22.401  24.735  0.00  0.00    +0.000 C 
ENDBRANCH   2   4
BRANCH   1  20
ATOM     14  C   UNL     1      25.010  25.154  28.036  0.00  0.00    +0.000 C 
ATOM     15  C   UNL     1      24.028  25.756  27.095  0.00  0.00    +0.000 A 
ATOM     16  C   UNL     1      22.718  25.998  27.453  0.00  0.00    +0.000 A 
ATOM     17  C   UNL     1      21.812  26.556  26.577  0.00  0.00    +0.000 A 
ATOM     18  C   UNL     1      22.234  26.881  25.306  0.00  0.00    +0.000 A 
ATOM     19  C   UNL     1      23.535  26.634  24.970  0.00  0.00    +0.000 A 
ATOM     20  C   UNL     1      24.453  26.073  25.843  0.00  0.00    +0.000 A 
ENDBRANCH   1  20
TORSDOF 2
ENDMDL
MODEL 5
REMARK VINA RESULT:      -6.0      1.229      2.074
REMARK  Name = 
REMARK  2 active torsions:
REMARK  status: ('A' for Active; 'I' for Inactive)
REMARK    1  A    between atoms: C_7  and  N_8
REMARK    2  A    between atoms: C_9  and  C_11
REMARK                            x       y       z     vdW  Elec       q    Type
REMARK                         _______ _______ _______ _____ _____    ______ ____
ROOT
ATOM      1  N   UNL     1      28.339  22.734  25.883  0.00  0.00    +0.000 NA
ATOM      2  C   UNL     1      28.513  23.659  26.936  0.00  0.00    +0.000 C 
ATOM      3  O   UNL     1      28.475  24.873  26.635  0.00  0.00    +0.000 OA
ENDROOT
BRANCH   2   4
ATOM      4  C   UNL     1      28.735  23.229  28.351  0.00  0.00    +0.000 A 
ATOM      5  C   UNL     1      27.680  23.075  29.205  0.00  0.00    +0.000 A 
ATOM      6  N   UNL     1      26.277  23.286  28.909  0.00  0.00    +0.000 NA
ATOM      7  S   UNL     1      28.420  22.588  30.659  0.00  0.00    +0.000 S 
ATOM      8  C   UNL     1      30.046  22.589  30.158  0.00  0.00    +0.000 A 
ATOM      9  C   UNL     1      29.970  22.974  28.849  0.00  0.00    +0.000 A 
ATOM     10  C   UNL     1      31.334  23.051  28.165  0.00  0.00    +0.000 C 
ATOM     11  C   UNL     1      31.947  21.672  28.423  0.00  0.00    +0.000 C 
ATOM     12  C   UNL     1      32.322  21.605  29.865  0.00  0.00    +0.000 C 
ATOM     13  C   UNL     1      31.383  22.281  30.803  0.00  0.00    +0.000 C 
ENDBRANCH   2   4
BRANCH   1  20
ATOM     14  C   UNL     1      25.712  23.026  24.849  0.00  0.00    +0.000 C 
ATOM     15  C   UNL     1      26.892  23.349  24.004  0.00  0.00    +0.000 A 
ATOM     16  C   UNL     1      26.766  23.796  22.705  0.00  0.00    +0.000 A 
ATOM     17  C   UNL     1      27.862  24.093  21.924  0.00  0.00    +0.000 A 
ATOM     18  C   UNL     1      29.120  23.938  22.464  0.00  0.00    +0.000 A 
ATOM     19  C   UNL     1      29.225  23.495  23.752  0.00  0.00    +0.000 A 
ATOM     20  C   UNL     1      28.130  23.193  24.544  0.00  0.00    +0.000 A 
ENDBRANCH   1  20
TORSDOF 2
ENDMDL
MODEL 6
REMARK VINA RESULT:      -5.8     32.113     32.710
REMARK  Name = 
REMARK  2 active torsions:
REMARK  status: ('A' for Active; 'I' for Inactive)
REMARK    1  A    between atoms: C_7  and  N_8
REMARK    2  A    between atoms: C_9  and  C_11
REMARK                            x       y       z     vdW  Elec       q    Type
REMARK                         _______ _______ _______ _____ _____    ______ ____
ROOT
ATOM      1  N   UNL     1      22.237  -8.049  25.587  0.00  0.00    +0.000 NA
ATOM      2  C   UNL     1      20.891  -8.148  25.174  0.00  0.00    +0.000 C 
ATOM      3  O   UNL     1      20.687  -8.498  23.990  0.00  0.00    +0.000 OA
ENDROOT
BRANCH   2   4
ATOM      4  C   UNL     1      19.747  -7.853  26.091  0.00  0.00    +0.000 A 
ATOM      5  C   UNL     1      19.273  -6.579  26.223  0.00  0.00    +0.000 A 
ATOM      6  N   UNL     1      19.759  -5.390  25.552  0.00  0.00    +0.000 NA
ATOM      7  S   UNL     1      18.003  -6.747  27.346  0.00  0.00    +0.000 S 
ATOM      8  C   UNL     1      18.098  -8.422  27.624  0.00  0.00    +0.000 A 
ATOM      9  C   UNL     1      19.132  -8.815  26.822  0.00  0.00    +0.000 A 
ATOM     10  C   UNL     1      19.417 -10.314  26.899  0.00  0.00    +0.000 C 
ATOM     11  C   UNL     1      18.059 -10.956  26.605  0.00  0.00    +0.000 C 
ATOM     12  C   UNL     1      17.187 -10.741  27.796  0.00  0.00    +0.000 C 
ATOM     13  C   UNL     1      17.350  -9.427  28.478  0.00  0.00    +0.000 C 
ENDBRANCH   2   4
BRANCH   1  20
ATOM     14  C   UNL     1      23.486  -5.971  24.113  0.00  0.00    +0.000 C 
ATOM     15  C   UNL     1      23.928  -7.381  23.946  0.00  0.00    +0.000 A 
ATOM     16  C   UNL     1      24.945  -7.736  23.083  0.00  0.00    +0.000 A 
ATOM     17  C   UNL     1      25.351  -9.044  22.931  0.00  0.00    +0.000 A 
ATOM     18  C   UNL     1      24.719 -10.022  23.666  0.00  0.00    +0.000 A 
ATOM     19  C   UNL     1      23.715  -9.652  24.515  0.00  0.00    +0.000 A 
ATOM     20  C   UNL     1      23.299  -8.341  24.674  0.00  0.00    +0.000 A 
ENDBRANCH   1  20
TORSDOF 2
ENDMDL
MODEL 7
REMARK VINA RESULT:      -5.7     18.006     20.040
REMARK  Name = 
REMARK  2 active torsions:
REMARK  status: ('A' for Active; 'I' for Inactive)
REMARK    1  A    between atoms: C_7  and  N_8
REMARK    2  A    between atoms: C_9  and  C_11
REMARK                            x       y       z     vdW  Elec       q    Type
REMARK                         _______ _______ _______ _____ _____    ______ ____
ROOT
ATOM      1  N   UNL     1      20.384   9.523  37.722  0.00  0.00    +0.000 NA
ATOM      2  C   UNL     1      19.626  10.644  38.127  0.00  0.00    +0.000 C 
ATOM      3  O   UNL     1      20.240  11.727  38.249  0.00  0.00    +0.000 OA
ENDROOT
BRANCH   2   4
ATOM      4  C   UNL     1      18.159  10.563  38.403  0.00  0.00    +0.000 A 
ATOM      5  C   UNL     1      17.255  11.088  37.523  0.00  0.00    +0.000 A 
ATOM      6  N   UNL     1      17.542  11.762  36.272  0.00  0.00    +0.000 NA
ATOM      7  S   UNL     1      15.755  10.757  38.257  0.00  0.00    +0.000 S 
ATOM      8  C   UNL     1      16.300   9.961  39.658  0.00  0.00    +0.000 A 
ATOM      9  C   UNL     1      17.659   9.973  39.517  0.00  0.00    +0.000 A 
ATOM     10  C   UNL     1      18.390   9.301  40.677  0.00  0.00    +0.000 C 
ATOM     11  C   UNL     1      17.737   7.918  40.764  0.00  0.00    +0.000 C 
ATOM     12  C   UNL     1      16.365   8.099  41.320  0.00  0.00    +0.000 C 
ATOM     13  C   UNL     1      15.648   9.325  40.870  0.00  0.00    +0.000 C 
ENDBRANCH   2   4
BRANCH   1  20
ATOM     14  C   UNL     1      22.277   8.849  39.725  0.00  0.00    +0.000 C 
ATOM     15  C   UNL     1      22.731   9.339  38.397  0.00  0.00    +0.000 A 
ATOM     16  C   UNL     1      24.067   9.485  38.085  0.00  0.00    +0.000 A 
ATOM     17  C   UNL     1      24.484   9.940  36.852  0.00  0.00    +0.000 A 
ATOM     18  C   UNL     1      23.533  10.256  35.907  0.00  0.00    +0.000 A 
ATOM     19  C   UNL     1      22.215  10.105  36.235  0.00  0.00    +0.000 A 
ATOM     20  C   UNL     1      21.786   9.649  37.470  0.00  0.00    +0.000 A 
ENDBRANCH   1  20
TORSDOF 2
ENDMDL
MODEL 8
REMARK VINA RESULT:      -5.7     27.181     28.718
REMARK  Name = 
REMARK  2 active torsions:
REMARK  status: ('A' for Active; 'I' for Inactive)
REMARK    1  A    between atoms: C_7  and  N_8
REMARK    2  A    between atoms: C_9  and  C_11
REMARK                            x       y       z     vdW  Elec       q    Type
REMARK                         _______ _______ _______ _____ _____    ______ ____
ROOT
ATOM      1  N   UNL     1      35.029  -5.580  31.758  0.00  0.00    +0.000 NA
ATOM      2  C   UNL     1      34.120  -5.438  32.829  0.00  0.00    +0.000 C 
ATOM      3  O   UNL     1      32.960  -5.873  32.649  0.00  0.00    +0.000 OA
ENDROOT
BRANCH   2   4
ATOM      4  C   UNL     1      34.502  -4.798  34.125  0.00  0.00    +0.000 A 
ATOM      5  C   UNL     1      35.284  -5.464  35.026  0.00  0.00    +0.000 A 
ATOM      6  N   UNL     1      35.834  -6.798  34.889  0.00  0.00    +0.000 NA
ATOM      7  S   UNL     1      35.440  -4.354  36.307  0.00  0.00    +0.000 S 
ATOM      8  C   UNL     1      34.514  -3.073  35.680  0.00  0.00    +0.000 A 
ATOM      9  C   UNL     1      34.100  -3.549  34.468  0.00  0.00    +0.000 A 
ATOM     10  C   UNL     1      33.233  -2.557  33.696  0.00  0.00    +0.000 C 
ATOM     11  C   UNL     1      34.082  -1.283  33.661  0.00  0.00    +0.000 C 
ATOM     12  C   UNL     1      34.081  -0.700  35.034  0.00  0.00    +0.000 C 
ATOM     13  C   UNL     1      34.116  -1.687  36.149  0.00  0.00    +0.000 C 
ENDBRANCH   2   4
BRANCH   1  20
ATOM     14  C   UNL     1      35.399  -8.363  31.351  0.00  0.00    +0.000 C 
ATOM     15  C   UNL     1      34.773  -7.526  30.293  0.00  0.00    +0.000 A 
ATOM     16  C   UNL     1      34.351  -8.055  29.090  0.00  0.00    +0.000 A 
ATOM     17  C   UNL     1      33.771  -7.275  28.113  0.00  0.00    +0.000 A 
ATOM     18  C   UNL     1      33.609  -5.928  28.351  0.00  0.00    +0.000 A 
ATOM     19  C   UNL     1      34.032  -5.423  29.548  0.00  0.00    +0.000 A 
ATOM     20  C   UNL     1      34.617  -6.198  30.535  0.00  0.00    +0.000 A 
ENDBRANCH   1  20
TORSDOF 2
ENDMDL
MODEL 9
REMARK VINA RESULT:      -5.7     21.657     23.632
REMARK  Name = 
REMARK  2 active torsions:
REMARK  status: ('A' for Active; 'I' for Inactive)
REMARK    1  A    between atoms: C_7  and  N_8
REMARK    2  A    between atoms: C_9  and  C_11
REMARK                            x       y       z     vdW  Elec       q    Type
REMARK                         _______ _______ _______ _____ _____    ______ ____
ROOT
ATOM      1  N   UNL     1      33.089   0.366  35.807  0.00  0.00    +0.000 NA
ATOM      2  C   UNL     1      34.168   0.886  36.555  0.00  0.00    +0.000 C 
ATOM      3  O   UNL     1      35.197   0.179  36.632  0.00  0.00    +0.000 OA
ENDROOT
BRANCH   2   4
ATOM      4  C   UNL     1      34.104   2.217  37.234  0.00  0.00    +0.000 A 
ATOM      5  C   UNL     1      34.179   2.308  38.595  0.00  0.00    +0.000 A 
ATOM      6  N   UNL     1      34.321   1.217  39.538  0.00  0.00    +0.000 NA
ATOM      7  S   UNL     1      34.066   3.983  38.883  0.00  0.00    +0.000 S 
ATOM      8  C   UNL     1      33.926   4.532  37.280  0.00  0.00    +0.000 A 
ATOM      9  C   UNL     1      33.972   3.379  36.548  0.00  0.00    +0.000 A 
ATOM     10  C   UNL     1      33.864   3.617  35.043  0.00  0.00    +0.000 C 
ATOM     11  C   UNL     1      34.968   4.638  34.757  0.00  0.00    +0.000 C 
ATOM     12  C   UNL     1      34.529   5.950  35.315  0.00  0.00    +0.000 C 
ATOM     13  C   UNL     1      33.781   5.880  36.601  0.00  0.00    +0.000 C 
ENDBRANCH   2   4
BRANCH   1  20
ATOM     14  C   UNL     1      33.967   0.152  33.117  0.00  0.00    +0.000 C 
ATOM     15  C   UNL     1      33.612  -1.068  33.891  0.00  0.00    +0.000 A 
ATOM     16  C   UNL     1      33.691  -2.333  33.346  0.00  0.00    +0.000 A 
ATOM     17  C   UNL     1      33.360  -3.461  34.067  0.00  0.00    +0.000 A 
ATOM     18  C   UNL     1      32.938  -3.313  35.370  0.00  0.00    +0.000 A 
ATOM     19  C   UNL     1      32.866  -2.052  35.892  0.00  0.00    +0.000 A 
ATOM     20  C   UNL     1      33.196  -0.914  35.175  0.00  0.00    +0.000 A 
ENDBRANCH   1  20
TORSDOF 2
ENDMDL
MODEL 10
REMARK VINA RESULT:      -5.6     31.757     32.455
REMARK  Name = 
REMARK  2 active torsions:
REMARK  status: ('A' for Active; 'I' for Inactive)
REMARK    1  A    between atoms: C_7  and  N_8
REMARK    2  A    between atoms: C_9  and  C_11
REMARK                            x       y       z     vdW  Elec       q    Type
REMARK                         _______ _______ _______ _____ _____    ______ ____
ROOT
ATOM      1  N   UNL     1      20.677  -8.189  25.048  0.00  0.00    +0.000 NA
ATOM      2  C   UNL     1      22.066  -7.959  24.939  0.00  0.00    +0.000 C 
ATOM      3  O   UNL     1      22.521  -6.952  25.527  0.00  0.00    +0.000 OA
ENDROOT
BRANCH   2   4
ATOM      4  C   UNL     1      22.970  -8.861  24.162  0.00  0.00    +0.000 A 
ATOM      5  C   UNL     1      23.569  -9.932  24.763  0.00  0.00    +0.000 A 
ATOM      6  N   UNL     1      23.442 -10.342  26.148  0.00  0.00    +0.000 NA
ATOM      7  S   UNL     1      24.475 -10.634  23.504  0.00  0.00    +0.000 S 
ATOM      8  C   UNL     1      24.078  -9.562  22.245  0.00  0.00    +0.000 A 
ATOM      9  C   UNL     1      23.236  -8.669  22.846  0.00  0.00    +0.000 A 
ATOM     10  C   UNL     1      22.732  -7.584  21.897  0.00  0.00    +0.000 C 
ATOM     11  C   UNL     1      22.146  -8.372  20.723  0.00  0.00    +0.000 C 
ATOM     12  C   UNL     1      23.284  -8.957  19.956  0.00  0.00    +0.000 C 
ATOM     13  C   UNL     1      24.433  -9.429  20.777  0.00  0.00    +0.000 C 
ENDBRANCH   2   4
BRANCH   1  20
ATOM     14  C   UNL     1      18.796  -9.194  26.918  0.00  0.00    +0.000 C 
ATOM     15  C   UNL     1      18.937  -7.729  26.709  0.00  0.00    +0.000 A 
ATOM     16  C   UNL     1      18.175  -6.810  27.401  0.00  0.00    +0.000 A 
ATOM     17  C   UNL     1      18.309  -5.453  27.203  0.00  0.00    +0.000 A 
ATOM     18  C   UNL     1      19.234  -5.006  26.286  0.00  0.00    +0.000 A 
ATOM     19  C   UNL     1      19.980  -5.930  25.611  0.00  0.00    +0.000 A 
ATOM     20  C   UNL     1      19.852  -7.296  25.802  0.00  0.00    +0.000 A 
ENDBRANCH   1  20
TORSDOF 2
ENDMDL
