MODEL 1
REMARK VINA RESULT:      -9.4      0.000      0.000
REMARK  Name = 
REMARK  8 active torsions:
REMARK  status: ('A' for Active; 'I' for Inactive)
REMARK    1  A    between atoms: C_2  and  C_5
REMARK    2  A    between atoms: C_8  and  C_9
REMARK    3  A    between atoms: C_12  and  C_14
REMARK    4  A    between atoms: C_14  and  O_15
REMARK    5  A    between atoms: O_15  and  C_16
REMARK    6  A    between atoms: C_16  and  C_18
REMARK    7  A    between atoms: C_23  and  O_24
REMARK    8  A    between atoms: O_24  and  C_25
REMARK                            x       y       z     vdW  Elec       q    Type
REMARK                         _______ _______ _______ _____ _____    ______ ____
ROOT
ATOM      1  C   UNL     1      35.776   1.932  16.731  0.00  0.00    +0.000 C 
ENDROOT
BRANCH   1   5
ATOM      2  C   UNL     1      38.224   4.900  16.650  0.00  0.00    +0.000 C 
ATOM      3  O   UNL     1      37.769   5.503  15.623  0.00  0.00    +0.000 OA
ATOM      4  N   UNL     1      37.571   3.709  17.028  0.00  0.00    +0.000 NA
ATOM      5  C   UNL     1      36.456   3.186  16.323  0.00  0.00    +0.000 C 
ATOM      6  O   UNL     1      36.076   3.858  15.317  0.00  0.00    +0.000 OA
BRANCH   2  10
ATOM      7  C   UNL     1      41.408   6.493  18.971  0.00  0.00    +0.000 A 
ATOM      8  C   UNL     1      40.255   6.019  19.547  0.00  0.00    +0.000 A 
ATOM      9  C   UNL     1      39.260   5.519  18.740  0.00  0.00    +0.000 A 
ATOM     10  C   UNL     1      39.372   5.474  17.339  0.00  0.00    +0.000 A 
ATOM     11  C   UNL     1      40.509   5.942  16.774  0.00  0.00    +0.000 A 
ATOM     12  C   UNL     1      41.552   6.465  17.579  0.00  0.00    +0.000 A 
BRANCH   7  14
ATOM     13  C   UNL     1      43.717   7.123  18.893  0.00  0.00    +0.000 C 
ATOM     14  C   UNL     1      42.487   7.069  19.813  0.00  0.00    +0.000 C 
ATOM     15  C   UNL     1      42.739   6.191  21.007  0.00  0.00    +0.000 C 
ATOM     16  C   UNL     1      42.096   8.476  20.200  0.00  0.00    +0.000 C 
ENDBRANCH   7  14
ENDBRANCH   2  10
ENDBRANCH   1   5
BRANCH   1  17
ATOM     17  O   UNL     1      36.773   0.893  16.710  0.00  0.00    +0.000 OA
BRANCH  17  18
ATOM     18  C   UNL     1      36.438  -0.429  16.918  0.00  0.00    +0.000 C 
ATOM     19  O   UNL     1      35.350  -0.832  16.368  0.00  0.00    +0.000 OA
BRANCH  18  20
ATOM     20  C   UNL     1      37.139  -1.422  17.689  0.00  0.00    +0.000 A 
ATOM     21  C   UNL     1      36.996  -1.462  19.090  0.00  0.00    +0.000 A 
ATOM     22  C   UNL     1      37.701  -2.340  19.859  0.00  0.00    +0.000 A 
ATOM     23  C   UNL     1      38.576  -3.205  19.221  0.00  0.00    +0.000 A 
ATOM     24  C   UNL     1      38.736  -3.190  17.870  0.00  0.00    +0.000 A 
ATOM     25  C   UNL     1      38.017  -2.297  17.089  0.00  0.00    +0.000 A 
BRANCH  25  26
ATOM     26  O   UNL     1      38.248  -2.349  15.725  0.00  0.00    +0.000 OA
BRANCH  26  27
ATOM     27  C   UNL     1      39.395  -1.739  15.185  0.00  0.00    +0.000 A 
ATOM     28  C   UNL     1      39.504  -0.474  14.872  0.00  0.00    +0.000 A 
ATOM     29  C   UNL     1      40.655   0.076  14.359  0.00  0.00    +0.000 A 
ATOM     30  C   UNL     1      41.748  -0.743  14.172  0.00  0.00    +0.000 A 
ATOM     31  C   UNL     1      41.645  -2.075  14.501  0.00  0.00    +0.000 A 
ATOM     32  C   UNL     1      40.484  -2.609  15.005  0.00  0.00    +0.000 A 
ENDBRANCH  26  27
ENDBRANCH  25  26
ENDBRANCH  18  20
ENDBRANCH  17  18
ENDBRANCH   1  17
TORSDOF 8
ENDMDL
MODEL 2
REMARK VINA RESULT:      -9.1      1.087      3.517
REMARK  Name = 
REMARK  8 active torsions:
REMARK  status: ('A' for Active; 'I' for Inactive)
REMARK    1  A    between atoms: C_2  and  C_5
REMARK    2  A    between atoms: C_8  and  C_9
REMARK    3  A    between atoms: C_12  and  C_14
REMARK    4  A    between atoms: C_14  and  O_15
REMARK    5  A    between atoms: O_15  and  C_16
REMARK    6  A    between atoms: C_16  and  C_18
REMARK    7  A    between atoms: C_23  and  O_24
REMARK    8  A    between atoms: O_24  and  C_25
REMARK                            x       y       z     vdW  Elec       q    Type
REMARK                         _______ _______ _______ _____ _____    ______ ____
ROOT
ATOM      1  C   UNL     1      36.840   2.349  15.415  0.00  0.00    +0.000 C 
ENDROOT
BRANCH   1   5
ATOM      2  C   UNL     1      38.626   5.411  16.914  0.00  0.00    +0.000 C 
ATOM      3  O   UNL     1      38.002   6.329  16.287  0.00  0.00    +0.000 OA
ATOM      4  N   UNL     1      38.249   4.081  16.631  0.00  0.00    +0.000 NA
ATOM      5  C   UNL     1      37.228   3.752  15.703  0.00  0.00    +0.000 C 
ATOM      6  O   UNL     1      36.665   4.734  15.132  0.00  0.00    +0.000 OA
BRANCH   2  10
ATOM      7  C   UNL     1      41.884   6.598  19.370  0.00  0.00    +0.000 A 
ATOM      8  C   UNL     1      42.007   6.476  18.008  0.00  0.00    +0.000 A 
ATOM      9  C   UNL     1      40.916   6.086  17.269  0.00  0.00    +0.000 A 
ATOM     10  C   UNL     1      39.669   5.799  17.854  0.00  0.00    +0.000 A 
ATOM     11  C   UNL     1      39.551   5.918  19.196  0.00  0.00    +0.000 A 
ATOM     12  C   UNL     1      40.658   6.318  19.985  0.00  0.00    +0.000 A 
BRANCH   7  14
ATOM     13  C   UNL     1      44.254   6.917  19.240  0.00  0.00    +0.000 C 
ATOM     14  C   UNL     1      43.054   6.987  20.198  0.00  0.00    +0.000 C 
ATOM     15  C   UNL     1      43.219   6.032  21.348  0.00  0.00    +0.000 C 
ATOM     16  C   UNL     1      42.867   8.416  20.653  0.00  0.00    +0.000 C 
ENDBRANCH   7  14
ENDBRANCH   2  10
ENDBRANCH   1   5
BRANCH   1  17
ATOM     17  O   UNL     1      38.038   1.556  15.525  0.00  0.00    +0.000 OA
BRANCH  17  18
ATOM     18  C   UNL     1      38.302   0.528  14.645  0.00  0.00    +0.000 C 
ATOM     19  O   UNL     1      37.628   0.529  13.552  0.00  0.00    +0.000 OA
BRANCH  18  20
ATOM     20  C   UNL     1      39.227  -0.566  14.794  0.00  0.00    +0.000 A 
ATOM     21  C   UNL     1      40.570  -0.416  14.396  0.00  0.00    +0.000 A 
ATOM     22  C   UNL     1      41.456  -1.451  14.455  0.00  0.00    +0.000 A 
ATOM     23  C   UNL     1      40.997  -2.673  14.920  0.00  0.00    +0.000 A 
ATOM     24  C   UNL     1      39.705  -2.849  15.311  0.00  0.00    +0.000 A 
ATOM     25  C   UNL     1      38.806  -1.794  15.252  0.00  0.00    +0.000 A 
BRANCH  25  26
ATOM     26  O   UNL     1      37.513  -2.065  15.665  0.00  0.00    +0.000 OA
BRANCH  26  27
ATOM     27  C   UNL     1      37.059  -1.587  16.908  0.00  0.00    +0.000 A 
ATOM     28  C   UNL     1      37.703  -1.695  18.041  0.00  0.00    +0.000 A 
ATOM     29  C   UNL     1      37.222  -1.196  19.229  0.00  0.00    +0.000 A 
ATOM     30  C   UNL     1      36.006  -0.546  19.224  0.00  0.00    +0.000 A 
ATOM     31  C   UNL     1      35.322  -0.425  18.036  0.00  0.00    +0.000 A 
ATOM     32  C   UNL     1      35.815  -0.936  16.860  0.00  0.00    +0.000 A 
ENDBRANCH  26  27
ENDBRANCH  25  26
ENDBRANCH  18  20
ENDBRANCH  17  18
ENDBRANCH   1  17
TORSDOF 8
ENDMDL
MODEL 3
REMARK VINA RESULT:      -8.9      2.061      3.439
REMARK  Name = 
REMARK  8 active torsions:
REMARK  status: ('A' for Active; 'I' for Inactive)
REMARK    1  A    between atoms: C_2  and  C_5
REMARK    2  A    between atoms: C_8  and  C_9
REMARK    3  A    between atoms: C_12  and  C_14
REMARK    4  A    between atoms: C_14  and  O_15
REMARK    5  A    between atoms: O_15  and  C_16
REMARK    6  A    between atoms: C_16  and  C_18
REMARK    7  A    between atoms: C_23  and  O_24
REMARK    8  A    between atoms: O_24  and  C_25
REMARK                            x       y       z     vdW  Elec       q    Type
REMARK                         _______ _______ _______ _____ _____    ______ ____
ROOT
ATOM      1  C   UNL     1      35.767   1.556  16.454  0.00  0.00    +0.000 C 
ENDROOT
BRANCH   1   5
ATOM      2  C   UNL     1      37.996   4.684  16.713  0.00  0.00    +0.000 C 
ATOM      3  O   UNL     1      37.540   5.333  15.715  0.00  0.00    +0.000 OA
ATOM      4  N   UNL     1      37.416   3.424  16.968  0.00  0.00    +0.000 NA
ATOM      5  C   UNL     1      36.371   2.883  16.175  0.00  0.00    +0.000 C 
ATOM      6  O   UNL     1      35.984   3.605  15.207  0.00  0.00    +0.000 OA
BRANCH   2  10
ATOM      7  C   UNL     1      41.291   6.507  18.683  0.00  0.00    +0.000 A 
ATOM      8  C   UNL     1      41.242   6.375  17.316  0.00  0.00    +0.000 A 
ATOM      9  C   UNL     1      40.149   5.774  16.740  0.00  0.00    +0.000 A 
ATOM     10  C   UNL     1      39.071   5.279  17.495  0.00  0.00    +0.000 A 
ATOM     11  C   UNL     1      39.122   5.408  18.841  0.00  0.00    +0.000 A 
ATOM     12  C   UNL     1      40.235   6.024  19.465  0.00  0.00    +0.000 A 
BRANCH   7  14
ATOM     13  C   UNL     1      42.119   8.615  19.458  0.00  0.00    +0.000 C 
ATOM     14  C   UNL     1      42.472   7.124  19.336  0.00  0.00    +0.000 C 
ATOM     15  C   UNL     1      43.699   6.922  18.491  0.00  0.00    +0.000 C 
ATOM     16  C   UNL     1      42.618   6.535  20.721  0.00  0.00    +0.000 C 
ENDBRANCH   7  14
ENDBRANCH   2  10
ENDBRANCH   1   5
BRANCH   1  17
ATOM     17  O   UNL     1      36.740   0.809  17.211  0.00  0.00    +0.000 OA
BRANCH  17  18
ATOM     18  C   UNL     1      36.388  -0.329  17.906  0.00  0.00    +0.000 C 
ATOM     19  O   UNL     1      35.282  -0.279  18.556  0.00  0.00    +0.000 OA
BRANCH  18  20
ATOM     20  C   UNL     1      37.107  -1.572  18.015  0.00  0.00    +0.000 A 
ATOM     21  C   UNL     1      37.844  -1.864  19.180  0.00  0.00    +0.000 A 
ATOM     22  C   UNL     1      38.596  -2.996  19.290  0.00  0.00    +0.000 A 
ATOM     23  C   UNL     1      38.621  -3.865  18.211  0.00  0.00    +0.000 A 
ATOM     24  C   UNL     1      37.921  -3.611  17.072  0.00  0.00    +0.000 A 
ATOM     25  C   UNL     1      37.155  -2.460  16.963  0.00  0.00    +0.000 A 
BRANCH  25  26
ATOM     26  O   UNL     1      36.481  -2.280  15.768  0.00  0.00    +0.000 OA
BRANCH  26  27
ATOM     27  C   UNL     1      35.366  -3.083  15.465  0.00  0.00    +0.000 A 
ATOM     28  C   UNL     1      35.323  -3.997  14.530  0.00  0.00    +0.000 A 
ATOM     29  C   UNL     1      34.210  -4.767  14.283  0.00  0.00    +0.000 A 
ATOM     30  C   UNL     1      33.090  -4.570  15.062  0.00  0.00    +0.000 A 
ATOM     31  C   UNL     1      33.126  -3.613  16.050  0.00  0.00    +0.000 A 
ATOM     32  C   UNL     1      34.244  -2.849  16.277  0.00  0.00    +0.000 A 
ENDBRANCH  26  27
ENDBRANCH  25  26
ENDBRANCH  18  20
ENDBRANCH  17  18
ENDBRANCH   1  17
TORSDOF 8
ENDMDL
MODEL 4
REMARK VINA RESULT:      -8.9      1.918      2.488
REMARK  Name = 
REMARK  8 active torsions:
REMARK  status: ('A' for Active; 'I' for Inactive)
REMARK    1  A    between atoms: C_2  and  C_5
REMARK    2  A    between atoms: C_8  and  C_9
REMARK    3  A    between atoms: C_12  and  C_14
REMARK    4  A    between atoms: C_14  and  O_15
REMARK    5  A    between atoms: O_15  and  C_16
REMARK    6  A    between atoms: C_16  and  C_18
REMARK    7  A    between atoms: C_23  and  O_24
REMARK    8  A    between atoms: O_24  and  C_25
REMARK                            x       y       z     vdW  Elec       q    Type
REMARK                         _______ _______ _______ _____ _____    ______ ____
ROOT
ATOM      1  C   UNL     1      37.717   2.479  14.972  0.00  0.00    +0.000 C 
ENDROOT
BRANCH   1   5
ATOM      2  C   UNL     1      38.979   5.487  17.015  0.00  0.00    +0.000 C 
ATOM      3  O   UNL     1      38.143   6.362  16.614  0.00  0.00    +0.000 OA
ATOM      4  N   UNL     1      38.849   4.191  16.474  0.00  0.00    +0.000 NA
ATOM      5  C   UNL     1      37.844   3.847  15.533  0.00  0.00    +0.000 C 
ATOM      6  O   UNL     1      37.059   4.785  15.198  0.00  0.00    +0.000 OA
BRANCH   2  10
ATOM      7  C   UNL     1      42.162   6.719  19.546  0.00  0.00    +0.000 A 
ATOM      8  C   UNL     1      42.319   6.600  18.187  0.00  0.00    +0.000 A 
ATOM      9  C   UNL     1      41.250   6.194  17.423  0.00  0.00    +0.000 A 
ATOM     10  C   UNL     1      39.994   5.889  17.979  0.00  0.00    +0.000 A 
ATOM     11  C   UNL     1      39.844   6.006  19.318  0.00  0.00    +0.000 A 
ATOM     12  C   UNL     1      40.926   6.422  20.132  0.00  0.00    +0.000 A 
BRANCH   7  14
ATOM     13  C   UNL     1      42.947   8.535  20.895  0.00  0.00    +0.000 C 
ATOM     14  C   UNL     1      43.307   7.124  20.402  0.00  0.00    +0.000 C 
ATOM     15  C   UNL     1      44.578   7.136  19.599  0.00  0.00    +0.000 C 
ATOM     16  C   UNL     1      43.377   6.189  21.586  0.00  0.00    +0.000 C 
ENDBRANCH   7  14
ENDBRANCH   2  10
ENDBRANCH   1   5
BRANCH   1  17
ATOM     17  O   UNL     1      37.242   1.636  16.040  0.00  0.00    +0.000 OA
BRANCH  17  18
ATOM     18  C   UNL     1      35.950   1.152  16.051  0.00  0.00    +0.000 C 
ATOM     19  O   UNL     1      35.015   2.030  16.011  0.00  0.00    +0.000 OA
BRANCH  18  20
ATOM     20  C   UNL     1      35.505  -0.216  16.120  0.00  0.00    +0.000 A 
ATOM     21  C   UNL     1      34.620  -0.622  17.139  0.00  0.00    +0.000 A 
ATOM     22  C   UNL     1      34.235  -1.923  17.278  0.00  0.00    +0.000 A 
ATOM     23  C   UNL     1      34.744  -2.850  16.384  0.00  0.00    +0.000 A 
ATOM     24  C   UNL     1      35.601  -2.489  15.390  0.00  0.00    +0.000 A 
ATOM     25  C   UNL     1      35.990  -1.165  15.248  0.00  0.00    +0.000 A 
BRANCH  25  26
ATOM     26  O   UNL     1      36.868  -0.890  14.215  0.00  0.00    +0.000 OA
BRANCH  26  27
ATOM     27  C   UNL     1      38.165  -1.435  14.234  0.00  0.00    +0.000 A 
ATOM     28  C   UNL     1      39.029  -1.300  15.207  0.00  0.00    +0.000 A 
ATOM     29  C   UNL     1      40.282  -1.866  15.183  0.00  0.00    +0.000 A 
ATOM     30  C   UNL     1      40.643  -2.616  14.083  0.00  0.00    +0.000 A 
ATOM     31  C   UNL     1      39.741  -2.766  13.055  0.00  0.00    +0.000 A 
ATOM     32  C   UNL     1      38.496  -2.187  13.094  0.00  0.00    +0.000 A 
ENDBRANCH  26  27
ENDBRANCH  25  26
ENDBRANCH  18  20
ENDBRANCH  17  18
ENDBRANCH   1  17
TORSDOF 8
ENDMDL
MODEL 5
REMARK VINA RESULT:      -8.6      2.499      3.881
REMARK  Name = 
REMARK  8 active torsions:
REMARK  status: ('A' for Active; 'I' for Inactive)
REMARK    1  A    between atoms: C_2  and  C_5
REMARK    2  A    between atoms: C_8  and  C_9
REMARK    3  A    between atoms: C_12  and  C_14
REMARK    4  A    between atoms: C_14  and  O_15
REMARK    5  A    between atoms: O_15  and  C_16
REMARK    6  A    between atoms: C_16  and  C_18
REMARK    7  A    between atoms: C_23  and  O_24
REMARK    8  A    between atoms: O_24  and  C_25
REMARK                            x       y       z     vdW  Elec       q    Type
REMARK                         _______ _______ _______ _____ _____    ______ ____
ROOT
ATOM      1  C   UNL     1      38.030   0.211  14.232  0.00  0.00    +0.000 C 
ENDROOT
BRANCH   1   5
ATOM      2  C   UNL     1      38.080   3.773  15.689  0.00  0.00    +0.000 C 
ATOM      3  O   UNL     1      37.002   4.213  15.170  0.00  0.00    +0.000 OA
ATOM      4  N   UNL     1      38.435   2.443  15.382  0.00  0.00    +0.000 NA
ATOM      5  C   UNL     1      37.647   1.610  14.546  0.00  0.00    +0.000 C 
ATOM      6  O   UNL     1      36.593   2.137  14.079  0.00  0.00    +0.000 OA
BRANCH   2  10
ATOM      7  C   UNL     1      40.161   6.246  18.447  0.00  0.00    +0.000 A 
ATOM      8  C   UNL     1      39.132   5.425  18.839  0.00  0.00    +0.000 A 
ATOM      9  C   UNL     1      38.497   4.651  17.898  0.00  0.00    +0.000 A 
ATOM     10  C   UNL     1      38.856   4.667  16.538  0.00  0.00    +0.000 A 
ATOM     11  C   UNL     1      39.869   5.477  16.154  0.00  0.00    +0.000 A 
ATOM     12  C   UNL     1      40.544   6.287  17.101  0.00  0.00    +0.000 A 
BRANCH   7  14
ATOM     13  C   UNL     1      39.724   7.618  20.361  0.00  0.00    +0.000 C 
ATOM     14  C   UNL     1      40.846   7.117  19.436  0.00  0.00    +0.000 C 
ATOM     15  C   UNL     1      41.527   8.261  18.738  0.00  0.00    +0.000 C 
ATOM     16  C   UNL     1      41.807   6.271  20.238  0.00  0.00    +0.000 C 
ENDBRANCH   7  14
ENDBRANCH   2  10
ENDBRANCH   1   5
BRANCH   1  17
ATOM     17  O   UNL     1      38.750  -0.289  15.376  0.00  0.00    +0.000 OA
BRANCH  17  18
ATOM     18  C   UNL     1      38.154  -1.138  16.285  0.00  0.00    +0.000 C 
ATOM     19  O   UNL     1      38.825  -2.182  16.612  0.00  0.00    +0.000 OA
BRANCH  18  20
ATOM     20  C   UNL     1      36.862  -1.019  16.909  0.00  0.00    +0.000 A 
ATOM     21  C   UNL     1      36.718  -0.294  18.108  0.00  0.00    +0.000 A 
ATOM     22  C   UNL     1      35.525  -0.221  18.765  0.00  0.00    +0.000 A 
ATOM     23  C   UNL     1      34.442  -0.890  18.219  0.00  0.00    +0.000 A 
ATOM     24  C   UNL     1      34.549  -1.600  17.063  0.00  0.00    +0.000 A 
ATOM     25  C   UNL     1      35.762  -1.671  16.395  0.00  0.00    +0.000 A 
BRANCH  25  26
ATOM     26  O   UNL     1      35.780  -2.419  15.231  0.00  0.00    +0.000 OA
BRANCH  26  27
ATOM     27  C   UNL     1      35.291  -3.738  15.238  0.00  0.00    +0.000 A 
ATOM     28  C   UNL     1      34.295  -4.181  14.516  0.00  0.00    +0.000 A 
ATOM     29  C   UNL     1      33.865  -5.487  14.550  0.00  0.00    +0.000 A 
ATOM     30  C   UNL     1      34.519  -6.372  15.380  0.00  0.00    +0.000 A 
ATOM     31  C   UNL     1      35.570  -5.917  16.142  0.00  0.00    +0.000 A 
ATOM     32  C   UNL     1      35.981  -4.607  16.100  0.00  0.00    +0.000 A 
ENDBRANCH  26  27
ENDBRANCH  25  26
ENDBRANCH  18  20
ENDBRANCH  17  18
ENDBRANCH   1  17
TORSDOF 8
ENDMDL
MODEL 6
REMARK VINA RESULT:      -8.6      1.968      3.406
REMARK  Name = 
REMARK  8 active torsions:
REMARK  status: ('A' for Active; 'I' for Inactive)
REMARK    1  A    between atoms: C_2  and  C_5
REMARK    2  A    between atoms: C_8  and  C_9
REMARK    3  A    between atoms: C_12  and  C_14
REMARK    4  A    between atoms: C_14  and  O_15
REMARK    5  A    between atoms: O_15  and  C_16
REMARK    6  A    between atoms: C_16  and  C_18
REMARK    7  A    between atoms: C_23  and  O_24
REMARK    8  A    between atoms: O_24  and  C_25
REMARK                            x       y       z     vdW  Elec       q    Type
REMARK                         _______ _______ _______ _____ _____    ______ ____
ROOT
ATOM      1  C   UNL     1      35.788   0.256  16.610  0.00  0.00    +0.000 C 
ENDROOT
BRANCH   1   5
ATOM      2  C   UNL     1      37.499   3.695  16.369  0.00  0.00    +0.000 C 
ATOM      3  O   UNL     1      36.931   4.124  15.311  0.00  0.00    +0.000 OA
ATOM      4  N   UNL     1      37.129   2.408  16.810  0.00  0.00    +0.000 NA
ATOM      5  C   UNL     1      36.170   1.609  16.135  0.00  0.00    +0.000 C 
ATOM      6  O   UNL     1      35.659   2.123  15.095  0.00  0.00    +0.000 OA
BRANCH   2  10
ATOM      7  C   UNL     1      40.461   6.298  17.953  0.00  0.00    +0.000 A 
ATOM      8  C   UNL     1      40.312   6.103  16.601  0.00  0.00    +0.000 A 
ATOM      9  C   UNL     1      39.335   5.246  16.152  0.00  0.00    +0.000 A 
ATOM     10  C   UNL     1      38.479   4.550  17.024  0.00  0.00    +0.000 A 
ATOM     11  C   UNL     1      38.630   4.742  18.355  0.00  0.00    +0.000 A 
ATOM     12  C   UNL     1      39.626   5.620  18.849  0.00  0.00    +0.000 A 
BRANCH   7  14
ATOM     13  C   UNL     1      41.250   8.554  17.810  0.00  0.00    +0.000 C 
ATOM     14  C   UNL     1      41.527   7.193  18.469  0.00  0.00    +0.000 C 
ATOM     15  C   UNL     1      42.882   6.667  18.083  0.00  0.00    +0.000 C 
ATOM     16  C   UNL     1      41.361   7.325  19.966  0.00  0.00    +0.000 C 
ENDBRANCH   7  14
ENDBRANCH   2  10
ENDBRANCH   1   5
BRANCH   1  17
ATOM     17  O   UNL     1      36.618  -0.683  15.901  0.00  0.00    +0.000 OA
BRANCH  17  18
ATOM     18  C   UNL     1      37.855  -1.056  16.384  0.00  0.00    +0.000 C 
ATOM     19  O   UNL     1      37.976  -1.102  17.661  0.00  0.00    +0.000 OA
BRANCH  18  20
ATOM     20  C   UNL     1      39.045  -1.387  15.643  0.00  0.00    +0.000 A 
ATOM     21  C   UNL     1      39.542  -2.705  15.653  0.00  0.00    +0.000 A 
ATOM     22  C   UNL     1      40.705  -3.039  15.024  0.00  0.00    +0.000 A 
ATOM     23  C   UNL     1      41.397  -2.036  14.365  0.00  0.00    +0.000 A 
ATOM     24  C   UNL     1      40.943  -0.754  14.337  0.00  0.00    +0.000 A 
ATOM     25  C   UNL     1      39.759  -0.416  14.976  0.00  0.00    +0.000 A 
BRANCH  25  26
ATOM     26  O   UNL     1      39.377   0.912  14.901  0.00  0.00    +0.000 OA
BRANCH  26  27
ATOM     27  C   UNL     1      38.849   1.421  13.700  0.00  0.00    +0.000 A 
ATOM     28  C   UNL     1      37.936   0.839  12.967  0.00  0.00    +0.000 A 
ATOM     29  C   UNL     1      37.442   1.387  11.806  0.00  0.00    +0.000 A 
ATOM     30  C   UNL     1      37.929   2.612  11.400  0.00  0.00    +0.000 A 
ATOM     31  C   UNL     1      38.888   3.234  12.165  0.00  0.00    +0.000 A 
ATOM     32  C   UNL     1      39.374   2.667  13.318  0.00  0.00    +0.000 A 
ENDBRANCH  26  27
ENDBRANCH  25  26
ENDBRANCH  18  20
ENDBRANCH  17  18
ENDBRANCH   1  17
TORSDOF 8
ENDMDL
MODEL 7
REMARK VINA RESULT:      -8.3      1.800      3.972
REMARK  Name = 
REMARK  8 active torsions:
REMARK  status: ('A' for Active; 'I' for Inactive)
REMARK    1  A    between atoms: C_2  and  C_5
REMARK    2  A    between atoms: C_8  and  C_9
REMARK    3  A    between atoms: C_12  and  C_14
REMARK    4  A    between atoms: C_14  and  O_15
REMARK    5  A    between atoms: O_15  and  C_16
REMARK    6  A    between atoms: C_16  and  C_18
REMARK    7  A    between atoms: C_23  and  O_24
REMARK    8  A    between atoms: O_24  and  C_25
REMARK                            x       y       z     vdW  Elec       q    Type
REMARK                         _______ _______ _______ _____ _____    ______ ____
ROOT
ATOM      1  C   UNL     1      39.746   0.476  13.461  0.00  0.00    +0.000 C 
ENDROOT
BRANCH   1   5
ATOM      2  C   UNL     1      38.944   3.836  15.157  0.00  0.00    +0.000 C 
ATOM      3  O   UNL     1      38.166   4.323  14.272  0.00  0.00    +0.000 OA
ATOM      4  N   UNL     1      39.478   2.557  14.898  0.00  0.00    +0.000 NA
ATOM      5  C   UNL     1      39.178   1.822  13.722  0.00  0.00    +0.000 C 
ATOM      6  O   UNL     1      38.393   2.388  12.903  0.00  0.00    +0.000 OA
BRANCH   2  10
ATOM      7  C   UNL     1      39.994   6.345  18.422  0.00  0.00    +0.000 A 
ATOM      8  C   UNL     1      40.610   6.448  17.198  0.00  0.00    +0.000 A 
ATOM      9  C   UNL     1      40.226   5.605  16.183  0.00  0.00    +0.000 A 
ATOM     10  C   UNL     1      39.225   4.630  16.345  0.00  0.00    +0.000 A 
ATOM     11  C   UNL     1      38.621   4.530  17.551  0.00  0.00    +0.000 A 
ATOM     12  C   UNL     1      38.994   5.385  18.618  0.00  0.00    +0.000 A 
BRANCH   7  14
ATOM     13  C   UNL     1      39.108   7.524  20.308  0.00  0.00    +0.000 C 
ATOM     14  C   UNL     1      40.409   7.220  19.548  0.00  0.00    +0.000 C 
ATOM     15  C   UNL     1      41.040   8.480  19.022  0.00  0.00    +0.000 C 
ATOM     16  C   UNL     1      41.337   6.439  20.448  0.00  0.00    +0.000 C 
ENDBRANCH   7  14
ENDBRANCH   2  10
ENDBRANCH   1   5
BRANCH   1  17
ATOM     17  O   UNL     1      38.651  -0.361  13.039  0.00  0.00    +0.000 OA
BRANCH  17  18
ATOM     18  C   UNL     1      38.536  -1.665  13.474  0.00  0.00    +0.000 C 
ATOM     19  O   UNL     1      38.449  -2.563  12.561  0.00  0.00    +0.000 OA
BRANCH  18  20
ATOM     20  C   UNL     1      38.481  -2.158  14.826  0.00  0.00    +0.000 A 
ATOM     21  C   UNL     1      39.611  -2.773  15.401  0.00  0.00    +0.000 A 
ATOM     22  C   UNL     1      39.574  -3.316  16.651  0.00  0.00    +0.000 A 
ATOM     23  C   UNL     1      38.381  -3.250  17.353  0.00  0.00    +0.000 A 
ATOM     24  C   UNL     1      37.273  -2.663  16.824  0.00  0.00    +0.000 A 
ATOM     25  C   UNL     1      37.313  -2.110  15.553  0.00  0.00    +0.000 A 
BRANCH  25  26
ATOM     26  O   UNL     1      36.139  -1.539  15.094  0.00  0.00    +0.000 OA
BRANCH  26  27
ATOM     27  C   UNL     1      35.725  -0.290  15.593  0.00  0.00    +0.000 A 
ATOM     28  C   UNL     1      35.171  -0.087  16.760  0.00  0.00    +0.000 A 
ATOM     29  C   UNL     1      34.797   1.159  17.207  0.00  0.00    +0.000 A 
ATOM     30  C   UNL     1      35.024   2.246  16.389  0.00  0.00    +0.000 A 
ATOM     31  C   UNL     1      35.609   2.043  15.161  0.00  0.00    +0.000 A 
ATOM     32  C   UNL     1      35.969   0.790  14.728  0.00  0.00    +0.000 A 
ENDBRANCH  26  27
ENDBRANCH  25  26
ENDBRANCH  18  20
ENDBRANCH  17  18
ENDBRANCH   1  17
TORSDOF 8
ENDMDL
MODEL 8
REMARK VINA RESULT:      -8.1      2.519      4.012
REMARK  Name = 
REMARK  8 active torsions:
REMARK  status: ('A' for Active; 'I' for Inactive)
REMARK    1  A    between atoms: C_2  and  C_5
REMARK    2  A    between atoms: C_8  and  C_9
REMARK    3  A    between atoms: C_12  and  C_14
REMARK    4  A    between atoms: C_14  and  O_15
REMARK    5  A    between atoms: O_15  and  C_16
REMARK    6  A    between atoms: C_16  and  C_18
REMARK    7  A    between atoms: C_23  and  O_24
REMARK    8  A    between atoms: O_24  and  C_25
REMARK                            x       y       z     vdW  Elec       q    Type
REMARK                         _______ _______ _______ _____ _____    ______ ____
ROOT
ATOM      1  C   UNL     1      39.317   0.704  14.449  0.00  0.00    +0.000 C 
ENDROOT
BRANCH   1   5
ATOM      2  C   UNL     1      39.165   4.444  15.343  0.00  0.00    +0.000 C 
ATOM      3  O   UNL     1      39.370   4.933  14.184  0.00  0.00    +0.000 OA
ATOM      4  N   UNL     1      39.147   3.038  15.445  0.00  0.00    +0.000 NA
ATOM      5  C   UNL     1      39.340   2.183  14.329  0.00  0.00    +0.000 C 
ATOM      6  O   UNL     1      39.534   2.762  13.219  0.00  0.00    +0.000 OA
BRANCH   2  10
ATOM      7  C   UNL     1      38.490   7.362  18.358  0.00  0.00    +0.000 A 
ATOM      8  C   UNL     1      38.294   7.634  17.026  0.00  0.00    +0.000 A 
ATOM      9  C   UNL     1      38.532   6.647  16.099  0.00  0.00    +0.000 A 
ATOM     10  C   UNL     1      38.976   5.362  16.459  0.00  0.00    +0.000 A 
ATOM     11  C   UNL     1      39.170   5.098  17.771  0.00  0.00    +0.000 A 
ATOM     12  C   UNL     1      38.932   6.094  18.751  0.00  0.00    +0.000 A 
BRANCH   7  14
ATOM     13  C   UNL     1      38.953   7.881  20.649  0.00  0.00    +0.000 C 
ATOM     14  C   UNL     1      38.271   8.417  19.380  0.00  0.00    +0.000 C 
ATOM     15  C   UNL     1      36.799   8.631  19.600  0.00  0.00    +0.000 C 
ATOM     16  C   UNL     1      38.979   9.675  18.932  0.00  0.00    +0.000 C 
ENDBRANCH   7  14
ENDBRANCH   2  10
ENDBRANCH   1   5
BRANCH   1  17
ATOM     17  O   UNL     1      38.382   0.222  13.464  0.00  0.00    +0.000 OA
BRANCH  17  18
ATOM     18  C   UNL     1      37.026   0.439  13.595  0.00  0.00    +0.000 C 
ATOM     19  O   UNL     1      36.396   0.755  12.522  0.00  0.00    +0.000 OA
BRANCH  18  20
ATOM     20  C   UNL     1      36.218   0.376  14.785  0.00  0.00    +0.000 A 
ATOM     21  C   UNL     1      35.761   1.561  15.395  0.00  0.00    +0.000 A 
ATOM     22  C   UNL     1      35.056   1.542  16.562  0.00  0.00    +0.000 A 
ATOM     23  C   UNL     1      34.797   0.312  17.144  0.00  0.00    +0.000 A 
ATOM     24  C   UNL     1      35.226  -0.850  16.580  0.00  0.00    +0.000 A 
ATOM     25  C   UNL     1      35.941  -0.829  15.392  0.00  0.00    +0.000 A 
BRANCH  25  26
ATOM     26  O   UNL     1      36.341  -2.057  14.894  0.00  0.00    +0.000 OA
BRANCH  26  27
ATOM     27  C   UNL     1      37.057  -2.947  15.716  0.00  0.00    +0.000 A 
ATOM     28  C   UNL     1      36.709  -4.180  15.979  0.00  0.00    +0.000 A 
ATOM     29  C   UNL     1      37.452  -5.016  16.779  0.00  0.00    +0.000 A 
ATOM     30  C   UNL     1      38.623  -4.533  17.324  0.00  0.00    +0.000 A 
ATOM     31  C   UNL     1      39.000  -3.238  17.051  0.00  0.00    +0.000 A 
ATOM     32  C   UNL     1      38.240  -2.415  16.255  0.00  0.00    +0.000 A 
ENDBRANCH  26  27
ENDBRANCH  25  26
ENDBRANCH  18  20
ENDBRANCH  17  18
ENDBRANCH   1  17
TORSDOF 8
ENDMDL
MODEL 9
REMARK VINA RESULT:      -8.1     25.132     28.511
REMARK  Name = 
REMARK  8 active torsions:
REMARK  status: ('A' for Active; 'I' for Inactive)
REMARK    1  A    between atoms: C_2  and  C_5
REMARK    2  A    between atoms: C_8  and  C_9
REMARK    3  A    between atoms: C_12  and  C_14
REMARK    4  A    between atoms: C_14  and  O_15
REMARK    5  A    between atoms: O_15  and  C_16
REMARK    6  A    between atoms: C_16  and  C_18
REMARK    7  A    between atoms: C_23  and  O_24
REMARK    8  A    between atoms: O_24  and  C_25
REMARK                            x       y       z     vdW  Elec       q    Type
REMARK                         _______ _______ _______ _____ _____    ______ ____
ROOT
ATOM      1  C   UNL     1      12.101   0.458  27.457  0.00  0.00    +0.000 C 
ENDROOT
BRANCH   1   5
ATOM      2  C   UNL     1      15.928   0.130  27.215  0.00  0.00    +0.000 C 
ATOM      3  O   UNL     1      16.211   0.199  28.456  0.00  0.00    +0.000 OA
ATOM      4  N   UNL     1      14.563   0.218  26.869  0.00  0.00    +0.000 NA
ATOM      5  C   UNL     1      13.534   0.369  27.833  0.00  0.00    +0.000 C 
ATOM      6  O   UNL     1      13.914   0.426  29.041  0.00  0.00    +0.000 OA
BRANCH   2  10
ATOM      7  C   UNL     1      19.159   0.045  24.457  0.00  0.00    +0.000 A 
ATOM      8  C   UNL     1      18.661   1.224  24.957  0.00  0.00    +0.000 A 
ATOM      9  C   UNL     1      17.612   1.184  25.844  0.00  0.00    +0.000 A 
ATOM     10  C   UNL     1      17.020  -0.021  26.263  0.00  0.00    +0.000 A 
ATOM     11  C   UNL     1      17.512  -1.180  25.768  0.00  0.00    +0.000 A 
ATOM     12  C   UNL     1      18.592  -1.172  24.851  0.00  0.00    +0.000 A 
BRANCH   7  14
ATOM     13  C   UNL     1      20.284  -1.360  22.877  0.00  0.00    +0.000 C 
ATOM     14  C   UNL     1      20.271   0.058  23.472  0.00  0.00    +0.000 C 
ATOM     15  C   UNL     1      21.571   0.372  24.159  0.00  0.00    +0.000 C 
ATOM     16  C   UNL     1      19.937   1.049  22.381  0.00  0.00    +0.000 C 
ENDBRANCH   7  14
ENDBRANCH   2  10
ENDBRANCH   1   5
BRANCH   1  17
ATOM     17  O   UNL     1      12.026   1.330  26.312  0.00  0.00    +0.000 OA
BRANCH  17  18
ATOM     18  C   UNL     1      11.201   2.436  26.304  0.00  0.00    +0.000 C 
ATOM     19  O   UNL     1      11.782   3.578  26.227  0.00  0.00    +0.000 OA
BRANCH  18  20
ATOM     20  C   UNL     1       9.764   2.483  26.390  0.00  0.00    +0.000 A 
ATOM     21  C   UNL     1       8.977   1.726  25.499  0.00  0.00    +0.000 A 
ATOM     22  C   UNL     1       7.615   1.801  25.503  0.00  0.00    +0.000 A 
ATOM     23  C   UNL     1       7.015   2.654  26.415  0.00  0.00    +0.000 A 
ATOM     24  C   UNL     1       7.748   3.399  27.287  0.00  0.00    +0.000 A 
ATOM     25  C   UNL     1       9.133   3.319  27.283  0.00  0.00    +0.000 A 
BRANCH  25  26
ATOM     26  O   UNL     1       9.796   4.115  28.200  0.00  0.00    +0.000 OA
BRANCH  26  27
ATOM     27  C   UNL     1       9.872   3.717  29.548  0.00  0.00    +0.000 A 
ATOM     28  C   UNL     1      10.406   2.604  29.979  0.00  0.00    +0.000 A 
ATOM     29  C   UNL     1      10.468   2.268  31.312  0.00  0.00    +0.000 A 
ATOM     30  C   UNL     1       9.949   3.149  32.236  0.00  0.00    +0.000 A 
ATOM     31  C   UNL     1       9.388   4.325  31.792  0.00  0.00    +0.000 A 
ATOM     32  C   UNL     1       9.328   4.640  30.457  0.00  0.00    +0.000 A 
ENDBRANCH  26  27
ENDBRANCH  25  26
ENDBRANCH  18  20
ENDBRANCH  17  18
ENDBRANCH   1  17
TORSDOF 8
ENDMDL
MODEL 10
REMARK VINA RESULT:      -8.1      2.025      2.615
REMARK  Name = 
REMARK  8 active torsions:
REMARK  status: ('A' for Active; 'I' for Inactive)
REMARK    1  A    between atoms: C_2  and  C_5
REMARK    2  A    between atoms: C_8  and  C_9
REMARK    3  A    between atoms: C_12  and  C_14
REMARK    4  A    between atoms: C_14  and  O_15
REMARK    5  A    between atoms: O_15  and  C_16
REMARK    6  A    between atoms: C_16  and  C_18
REMARK    7  A    between atoms: C_23  and  O_24
REMARK    8  A    between atoms: O_24  and  C_25
REMARK                            x       y       z     vdW  Elec       q    Type
REMARK                         _______ _______ _______ _____ _____    ______ ____
ROOT
ATOM      1  C   UNL     1      35.774   1.474  14.542  0.00  0.00    +0.000 C 
ENDROOT
BRANCH   1   5
ATOM      2  C   UNL     1      38.412   4.121  15.462  0.00  0.00    +0.000 C 
ATOM      3  O   UNL     1      38.857   4.369  14.294  0.00  0.00    +0.000 OA
ATOM      4  N   UNL     1      37.387   3.157  15.559  0.00  0.00    +0.000 NA
ATOM      5  C   UNL     1      36.854   2.485  14.428  0.00  0.00    +0.000 C 
ATOM      6  O   UNL     1      37.360   2.802  13.310  0.00  0.00    +0.000 OA
BRANCH   2  10
ATOM      7  C   UNL     1      40.335   6.355  18.523  0.00  0.00    +0.000 A 
ATOM      8  C   UNL     1      40.771   6.380  17.221  0.00  0.00    +0.000 A 
ATOM      9  C   UNL     1      40.107   5.632  16.278  0.00  0.00    +0.000 A 
ATOM     10  C   UNL     1      38.993   4.833  16.592  0.00  0.00    +0.000 A 
ATOM     11  C   UNL     1      38.566   4.809  17.875  0.00  0.00    +0.000 A 
ATOM     12  C   UNL     1      39.229   5.569  18.871  0.00  0.00    +0.000 A 
BRANCH   7  14
ATOM     13  C   UNL     1      39.939   7.822  20.374  0.00  0.00    +0.000 C 
ATOM     14  C   UNL     1      41.050   7.127  19.571  0.00  0.00    +0.000 C 
ATOM     15  C   UNL     1      41.974   8.130  18.938  0.00  0.00    +0.000 C 
ATOM     16  C   UNL     1      41.778   6.156  20.471  0.00  0.00    +0.000 C 
ENDBRANCH   7  14
ENDBRANCH   2  10
ENDBRANCH   1   5
BRANCH   1  17
ATOM     17  O   UNL     1      35.642   1.163  15.943  0.00  0.00    +0.000 OA
BRANCH  17  18
ATOM     18  C   UNL     1      36.061  -0.049  16.452  0.00  0.00    +0.000 C 
ATOM     19  O   UNL     1      36.703  -0.007  17.563  0.00  0.00    +0.000 OA
BRANCH  18  20
ATOM     20  C   UNL     1      35.888  -1.364  15.892  0.00  0.00    +0.000 A 
ATOM     21  C   UNL     1      34.859  -2.204  16.362  0.00  0.00    +0.000 A 
ATOM     22  C   UNL     1      34.710  -3.481  15.908  0.00  0.00    +0.000 A 
ATOM     23  C   UNL     1      35.610  -3.942  14.960  0.00  0.00    +0.000 A 
ATOM     24  C   UNL     1      36.615  -3.155  14.488  0.00  0.00    +0.000 A 
ATOM     25  C   UNL     1      36.763  -1.856  14.950  0.00  0.00    +0.000 A 
BRANCH  25  26
ATOM     26  O   UNL     1      37.815  -1.130  14.417  0.00  0.00    +0.000 OA
BRANCH  26  27
ATOM     27  C   UNL     1      38.978  -1.796  13.989  0.00  0.00    +0.000 A 
ATOM     28  C   UNL     1      39.237  -2.152  12.758  0.00  0.00    +0.000 A 
ATOM     29  C   UNL     1      40.399  -2.789  12.388  0.00  0.00    +0.000 A 
ATOM     30  C   UNL     1      41.338  -3.059  13.362  0.00  0.00    +0.000 A 
ATOM     31  C   UNL     1      41.076  -2.685  14.660  0.00  0.00    +0.000 A 
ATOM     32  C   UNL     1      39.907  -2.057  15.011  0.00  0.00    +0.000 A 
ENDBRANCH  26  27
ENDBRANCH  25  26
ENDBRANCH  18  20
ENDBRANCH  17  18
ENDBRANCH   1  17
TORSDOF 8
ENDMDL
