MODEL 1
REMARK VINA RESULT:      -7.0      0.000      0.000
REMARK  Name = 
REMARK  8 active torsions:
REMARK  status: ('A' for Active; 'I' for Inactive)
REMARK    1  A    between atoms: C_2  and  O_3
REMARK    2  A    between atoms: O_3  and  C_4
REMARK    3  A    between atoms: C_7  and  N_8
REMARK    4  A    between atoms: N_8  and  C_9
REMARK    5  A    between atoms: C_10  and  S_11
REMARK    6  A    between atoms: S_11  and  C_12
REMARK    7  A    between atoms: N_20  and  C_21
REMARK    8  A    between atoms: C_24  and  O_25
REMARK                            x       y       z     vdW  Elec       q    Type
REMARK                         _______ _______ _______ _____ _____    ______ ____
ROOT
ATOM      1  C   UNL     1      37.126   1.964  15.005  0.00  0.00    +0.000 C 
ATOM      2  C   UNL     1      38.230   2.107  14.326  0.00  0.00    +0.000 C 
ATOM      3  C   UNL     1      38.906   3.306  14.895  0.00  0.00    +0.000 C 
ATOM      4  O   UNL     1      40.008   3.804  14.532  0.00  0.00    +0.000 OA
ATOM      5  N   UNL     1      38.131   3.837  15.930  0.00  0.00    +0.000 N 
ATOM      6  C   UNL     1      36.983   3.016  16.040  0.00  0.00    +0.000 C 
ATOM      7  O   UNL     1      36.024   3.134  16.844  0.00  0.00    +0.000 OA
ENDROOT
BRANCH   5   8
ATOM      8  C   UNL     1      38.393   4.987  16.754  0.00  0.00    +0.000 A 
ATOM      9  C   UNL     1      38.185   6.275  16.312  0.00  0.00    +0.000 A 
ATOM     10  C   UNL     1      38.455   7.335  17.151  0.00  0.00    +0.000 A 
ATOM     11  C   UNL     1      38.930   7.177  18.426  0.00  0.00    +0.000 A 
ATOM     12  C   UNL     1      39.141   5.883  18.876  0.00  0.00    +0.000 A 
ATOM     13  C   UNL     1      38.871   4.821  18.038  0.00  0.00    +0.000 A 
BRANCH  11  14
ATOM     14  O   UNL     1      39.206   8.255  19.281  0.00  0.00    +0.000 OA
ATOM     15  C   UNL     1      38.746   8.130  20.614  0.00  0.00    +0.000 C 
ENDBRANCH  11  14
ENDBRANCH   5   8
BRANCH   1  16
ATOM     16  N   UNL     1      36.166   0.925  14.786  0.00  0.00    +0.000 NA
BRANCH  16  20
ATOM     17  C   UNL     1      36.624  -2.892  16.507  0.00  0.00    +0.000 A 
ATOM     18  C   UNL     1      36.561  -2.730  15.123  0.00  0.00    +0.000 A 
ATOM     19  C   UNL     1      36.413  -1.480  14.587  0.00  0.00    +0.000 A 
ATOM     20  C   UNL     1      36.322  -0.362  15.385  0.00  0.00    +0.000 A 
ATOM     21  C   UNL     1      36.381  -0.505  16.752  0.00  0.00    +0.000 A 
ATOM     22  C   UNL     1      36.532  -1.775  17.297  0.00  0.00    +0.000 A 
BRANCH  17  23
ATOM     23  O   UNL     1      36.774  -4.179  16.969  0.00  0.00    +0.000 OA
BRANCH  23  25
ATOM     24  C   UNL     1      38.683  -4.609  18.302  0.00  0.00    +0.000 C 
ATOM     25  C   UNL     1      37.984  -4.900  16.969  0.00  0.00    +0.000 C 
ENDBRANCH  23  25
ENDBRANCH  17  23
ENDBRANCH  16  20
ENDBRANCH   1  16
BRANCH   2  26
ATOM     26  S   UNL     1      38.965   1.216  13.001  0.00  0.00    +0.000 S 
BRANCH  26  27
ATOM     27  C   UNL     1      39.505  -0.403  13.339  0.00  0.00    +0.000 A 
ATOM     28  C   UNL     1      39.570  -1.480  12.516  0.00  0.00    +0.000 A 
ATOM     29  C   UNL     1      40.034  -2.693  12.973  0.00  0.00    +0.000 A 
ATOM     30  C   UNL     1      40.450  -2.881  14.273  0.00  0.00    +0.000 A 
ATOM     31  C   UNL     1      40.388  -1.800  15.116  0.00  0.00    +0.000 A 
ATOM     32  C   UNL     1      39.936  -0.612  14.671  0.00  0.00    +0.000 A 
ENDBRANCH  26  27
ENDBRANCH   2  26
TORSDOF 8
ENDMDL
MODEL 2
REMARK VINA RESULT:      -6.9      1.814      3.733
REMARK  Name = 
REMARK  8 active torsions:
REMARK  status: ('A' for Active; 'I' for Inactive)
REMARK    1  A    between atoms: C_2  and  O_3
REMARK    2  A    between atoms: O_3  and  C_4
REMARK    3  A    between atoms: C_7  and  N_8
REMARK    4  A    between atoms: N_8  and  C_9
REMARK    5  A    between atoms: C_10  and  S_11
REMARK    6  A    between atoms: S_11  and  C_12
REMARK    7  A    between atoms: N_20  and  C_21
REMARK    8  A    between atoms: C_24  and  O_25
REMARK                            x       y       z     vdW  Elec       q    Type
REMARK                         _______ _______ _______ _____ _____    ______ ____
ROOT
ATOM      1  C   UNL     1      38.350   2.469  14.364  0.00  0.00    +0.000 C 
ATOM      2  C   UNL     1      37.352   2.036  15.084  0.00  0.00    +0.000 C 
ATOM      3  C   UNL     1      37.230   2.987  16.224  0.00  0.00    +0.000 C 
ATOM      4  O   UNL     1      36.391   2.945  17.166  0.00  0.00    +0.000 OA
ATOM      5  N   UNL     1      38.208   3.980  16.115  0.00  0.00    +0.000 N 
ATOM      6  C   UNL     1      38.949   3.694  14.945  0.00  0.00    +0.000 C 
ATOM      7  O   UNL     1      39.922   4.335  14.471  0.00  0.00    +0.000 OA
ENDROOT
BRANCH   5   8
ATOM      8  C   UNL     1      38.461   5.095  16.989  0.00  0.00    +0.000 A 
ATOM      9  C   UNL     1      38.999   4.939  18.248  0.00  0.00    +0.000 A 
ATOM     10  C   UNL     1      39.218   6.049  19.037  0.00  0.00    +0.000 A 
ATOM     11  C   UNL     1      38.925   7.324  18.632  0.00  0.00    +0.000 A 
ATOM     12  C   UNL     1      38.383   7.486  17.366  0.00  0.00    +0.000 A 
ATOM     13  C   UNL     1      38.163   6.378  16.575  0.00  0.00    +0.000 A 
BRANCH  11  14
ATOM     14  O   UNL     1      39.147   8.454  19.434  0.00  0.00    +0.000 OA
ATOM     15  C   UNL     1      38.414   8.517  20.644  0.00  0.00    +0.000 C 
ENDBRANCH  11  14
ENDBRANCH   5   8
BRANCH   1  16
ATOM     16  N   UNL     1      38.815   1.845  13.163  0.00  0.00    +0.000 NA
BRANCH  16  20
ATOM     17  C   UNL     1      40.986  -1.764  13.251  0.00  0.00    +0.000 A 
ATOM     18  C   UNL     1      39.926  -1.583  12.361  0.00  0.00    +0.000 A 
ATOM     19  C   UNL     1      39.236  -0.402  12.351  0.00  0.00    +0.000 A 
ATOM     20  C   UNL     1      39.562   0.628  13.204  0.00  0.00    +0.000 A 
ATOM     21  C   UNL     1      40.603   0.465  14.088  0.00  0.00    +0.000 A 
ATOM     22  C   UNL     1      41.305  -0.735  14.098  0.00  0.00    +0.000 A 
BRANCH  17  23
ATOM     23  O   UNL     1      41.630  -2.978  13.200  0.00  0.00    +0.000 OA
BRANCH  23  25
ATOM     24  C   UNL     1      42.951  -3.552  11.321  0.00  0.00    +0.000 C 
ATOM     25  C   UNL     1      42.969  -3.166  12.804  0.00  0.00    +0.000 C 
ENDBRANCH  23  25
ENDBRANCH  17  23
ENDBRANCH  16  20
ENDBRANCH   1  16
BRANCH   2  26
ATOM     26  S   UNL     1      36.255   0.671  14.944  0.00  0.00    +0.000 S 
BRANCH  26  27
ATOM     27  C   UNL     1      36.946  -0.919  15.089  0.00  0.00    +0.000 A 
ATOM     28  C   UNL     1      36.667  -2.049  14.391  0.00  0.00    +0.000 A 
ATOM     29  C   UNL     1      37.330  -3.226  14.654  0.00  0.00    +0.000 A 
ATOM     30  C   UNL     1      38.301  -3.324  15.627  0.00  0.00    +0.000 A 
ATOM     31  C   UNL     1      38.593  -2.189  16.342  0.00  0.00    +0.000 A 
ATOM     32  C   UNL     1      37.945  -1.036  16.085  0.00  0.00    +0.000 A 
ENDBRANCH  26  27
ENDBRANCH   2  26
TORSDOF 8
ENDMDL
MODEL 3
REMARK VINA RESULT:      -6.8      3.538      9.772
REMARK  Name = 
REMARK  8 active torsions:
REMARK  status: ('A' for Active; 'I' for Inactive)
REMARK    1  A    between atoms: C_2  and  O_3
REMARK    2  A    between atoms: O_3  and  C_4
REMARK    3  A    between atoms: C_7  and  N_8
REMARK    4  A    between atoms: N_8  and  C_9
REMARK    5  A    between atoms: C_10  and  S_11
REMARK    6  A    between atoms: S_11  and  C_12
REMARK    7  A    between atoms: N_20  and  C_21
REMARK    8  A    between atoms: C_24  and  O_25
REMARK                            x       y       z     vdW  Elec       q    Type
REMARK                         _______ _______ _______ _____ _____    ______ ____
ROOT
ATOM      1  C   UNL     1      36.989   5.705  14.846  0.00  0.00    +0.000 C 
ATOM      2  C   UNL     1      37.870   5.634  15.805  0.00  0.00    +0.000 C 
ATOM      3  C   UNL     1      37.745   4.263  16.374  0.00  0.00    +0.000 C 
ATOM      4  O   UNL     1      38.411   3.768  17.324  0.00  0.00    +0.000 OA
ATOM      5  N   UNL     1      36.748   3.560  15.690  0.00  0.00    +0.000 N 
ATOM      6  C   UNL     1      36.234   4.436  14.705  0.00  0.00    +0.000 C 
ATOM      7  O   UNL     1      35.324   4.209  13.869  0.00  0.00    +0.000 OA
ENDROOT
BRANCH   5   8
ATOM      8  C   UNL     1      36.289   2.213  15.902  0.00  0.00    +0.000 A 
ATOM      9  C   UNL     1      35.226   1.916  16.727  0.00  0.00    +0.000 A 
ATOM     10  C   UNL     1      34.836   0.603  16.888  0.00  0.00    +0.000 A 
ATOM     11  C   UNL     1      35.457  -0.444  16.261  0.00  0.00    +0.000 A 
ATOM     12  C   UNL     1      36.526  -0.150  15.429  0.00  0.00    +0.000 A 
ATOM     13  C   UNL     1      36.919   1.161  15.267  0.00  0.00    +0.000 A 
BRANCH  11  14
ATOM     14  O   UNL     1      35.060  -1.781  16.424  0.00  0.00    +0.000 OA
ATOM     15  C   UNL     1      35.846  -2.565  17.302  0.00  0.00    +0.000 C 
ENDBRANCH  11  14
ENDBRANCH   5   8
BRANCH   1  16
ATOM     16  N   UNL     1      36.771   6.859  14.027  0.00  0.00    +0.000 NA
BRANCH  16  20
ATOM     17  C   UNL     1      34.309  10.023  15.319  0.00  0.00    +0.000 A 
ATOM     18  C   UNL     1      35.698  10.151  15.307  0.00  0.00    +0.000 A 
ATOM     19  C   UNL     1      36.478   9.109  14.882  0.00  0.00    +0.000 A 
ATOM     20  C   UNL     1      35.922   7.922  14.461  0.00  0.00    +0.000 A 
ATOM     21  C   UNL     1      34.554   7.779  14.467  0.00  0.00    +0.000 A 
ATOM     22  C   UNL     1      33.763   8.837  14.898  0.00  0.00    +0.000 A 
BRANCH  17  23
ATOM     23  O   UNL     1      33.595  11.113  15.758  0.00  0.00    +0.000 OA
BRANCH  23  25
ATOM     24  C   UNL     1      33.195  13.017  14.409  0.00  0.00    +0.000 C 
ATOM     25  C   UNL     1      33.989  12.455  15.593  0.00  0.00    +0.000 C 
ENDBRANCH  23  25
ENDBRANCH  17  23
ENDBRANCH  16  20
ENDBRANCH   1  16
BRANCH   2  26
ATOM     26  S   UNL     1      39.047   6.763  16.459  0.00  0.00    +0.000 S 
BRANCH  26  27
ATOM     27  C   UNL     1      38.723   7.420  18.037  0.00  0.00    +0.000 A 
ATOM     28  C   UNL     1      37.766   8.301  18.424  0.00  0.00    +0.000 A 
ATOM     29  C   UNL     1      37.666   8.706  19.737  0.00  0.00    +0.000 A 
ATOM     30  C   UNL     1      38.519   8.247  20.717  0.00  0.00    +0.000 A 
ATOM     31  C   UNL     1      39.493   7.357  20.338  0.00  0.00    +0.000 A 
ATOM     32  C   UNL     1      39.591   6.959  19.055  0.00  0.00    +0.000 A 
ENDBRANCH  26  27
ENDBRANCH   2  26
TORSDOF 8
ENDMDL
MODEL 4
REMARK VINA RESULT:      -6.7      3.320      8.674
REMARK  Name = 
REMARK  8 active torsions:
REMARK  status: ('A' for Active; 'I' for Inactive)
REMARK    1  A    between atoms: C_2  and  O_3
REMARK    2  A    between atoms: O_3  and  C_4
REMARK    3  A    between atoms: C_7  and  N_8
REMARK    4  A    between atoms: N_8  and  C_9
REMARK    5  A    between atoms: C_10  and  S_11
REMARK    6  A    between atoms: S_11  and  C_12
REMARK    7  A    between atoms: N_20  and  C_21
REMARK    8  A    between atoms: C_24  and  O_25
REMARK                            x       y       z     vdW  Elec       q    Type
REMARK                         _______ _______ _______ _____ _____    ______ ____
ROOT
ATOM      1  C   UNL     1      37.631   4.077  14.967  0.00  0.00    +0.000 C 
ATOM      2  C   UNL     1      36.376   4.330  14.718  0.00  0.00    +0.000 C 
ATOM      3  C   UNL     1      35.683   3.011  14.739  0.00  0.00    +0.000 C 
ATOM      4  O   UNL     1      34.455   2.792  14.546  0.00  0.00    +0.000 OA
ATOM      5  N   UNL     1      36.607   1.998  15.011  0.00  0.00    +0.000 N 
ATOM      6  C   UNL     1      37.866   2.626  15.164  0.00  0.00    +0.000 C 
ATOM      7  O   UNL     1      38.972   2.087  15.418  0.00  0.00    +0.000 OA
ENDROOT
BRANCH   5   8
ATOM      8  C   UNL     1      36.384   0.581  15.122  0.00  0.00    +0.000 A 
ATOM      9  C   UNL     1      35.666   0.026  16.159  0.00  0.00    +0.000 A 
ATOM     10  C   UNL     1      35.488  -1.341  16.208  0.00  0.00    +0.000 A 
ATOM     11  C   UNL     1      35.995  -2.195  15.266  0.00  0.00    +0.000 A 
ATOM     12  C   UNL     1      36.718  -1.641  14.221  0.00  0.00    +0.000 A 
ATOM     13  C   UNL     1      36.898  -0.275  14.169  0.00  0.00    +0.000 A 
BRANCH  11  14
ATOM     14  O   UNL     1      35.814  -3.586  15.315  0.00  0.00    +0.000 OA
ATOM     15  C   UNL     1      34.647  -4.089  14.690  0.00  0.00    +0.000 C 
ENDBRANCH  11  14
ENDBRANCH   5   8
BRANCH   1  16
ATOM     16  N   UNL     1      38.660   5.070  15.041  0.00  0.00    +0.000 NA
BRANCH  16  20
ATOM     17  C   UNL     1      40.391   6.079  18.746  0.00  0.00    +0.000 A 
ATOM     18  C   UNL     1      39.141   5.465  18.680  0.00  0.00    +0.000 A 
ATOM     19  C   UNL     1      38.598   5.145  17.465  0.00  0.00    +0.000 A 
ATOM     20  C   UNL     1      39.261   5.418  16.289  0.00  0.00    +0.000 A 
ATOM     21  C   UNL     1      40.495   6.024  16.337  0.00  0.00    +0.000 A 
ATOM     22  C   UNL     1      41.046   6.348  17.572  0.00  0.00    +0.000 A 
BRANCH  17  23
ATOM     23  O   UNL     1      40.868   6.368  20.003  0.00  0.00    +0.000 OA
BRANCH  23  25
ATOM     24  C   UNL     1      42.919   6.044  21.142  0.00  0.00    +0.000 C 
ATOM     25  C   UNL     1      42.096   7.003  20.275  0.00  0.00    +0.000 C 
ENDBRANCH  23  25
ENDBRANCH  17  23
ENDBRANCH  16  20
ENDBRANCH   1  16
BRANCH   2  26
ATOM     26  S   UNL     1      35.473   5.804  14.400  0.00  0.00    +0.000 S 
BRANCH  26  27
ATOM     27  C   UNL     1      35.187   6.213  12.733  0.00  0.00    +0.000 A 
ATOM     28  C   UNL     1      35.935   5.934  11.636  0.00  0.00    +0.000 A 
ATOM     29  C   UNL     1      35.537   6.347  10.384  0.00  0.00    +0.000 A 
ATOM     30  C   UNL     1      34.374   7.057  10.177  0.00  0.00    +0.000 A 
ATOM     31  C   UNL     1      33.609   7.347  11.279  0.00  0.00    +0.000 A 
ATOM     32  C   UNL     1      33.996   6.943  12.504  0.00  0.00    +0.000 A 
ENDBRANCH  26  27
ENDBRANCH   2  26
TORSDOF 8
ENDMDL
MODEL 5
REMARK VINA RESULT:      -6.7      4.350      8.944
REMARK  Name = 
REMARK  8 active torsions:
REMARK  status: ('A' for Active; 'I' for Inactive)
REMARK    1  A    between atoms: C_2  and  O_3
REMARK    2  A    between atoms: O_3  and  C_4
REMARK    3  A    between atoms: C_7  and  N_8
REMARK    4  A    between atoms: N_8  and  C_9
REMARK    5  A    between atoms: C_10  and  S_11
REMARK    6  A    between atoms: S_11  and  C_12
REMARK    7  A    between atoms: N_20  and  C_21
REMARK    8  A    between atoms: C_24  and  O_25
REMARK                            x       y       z     vdW  Elec       q    Type
REMARK                         _______ _______ _______ _____ _____    ______ ____
ROOT
ATOM      1  C   UNL     1      36.305   5.300  14.746  0.00  0.00    +0.000 C 
ATOM      2  C   UNL     1      37.539   5.163  15.146  0.00  0.00    +0.000 C 
ATOM      3  C   UNL     1      37.690   3.729  15.518  0.00  0.00    +0.000 C 
ATOM      4  O   UNL     1      38.727   3.159  15.957  0.00  0.00    +0.000 OA
ATOM      5  N   UNL     1      36.480   3.059  15.310  0.00  0.00    +0.000 N 
ATOM      6  C   UNL     1      35.564   4.019  14.818  0.00  0.00    +0.000 C 
ATOM      7  O   UNL     1      34.361   3.844  14.498  0.00  0.00    +0.000 OA
ENDROOT
BRANCH   5   8
ATOM      8  C   UNL     1      36.167   1.673  15.535  0.00  0.00    +0.000 A 
ATOM      9  C   UNL     1      36.685   0.663  14.754  0.00  0.00    +0.000 A 
ATOM     10  C   UNL     1      36.346  -0.647  15.022  0.00  0.00    +0.000 A 
ATOM     11  C   UNL     1      35.506  -1.008  16.041  0.00  0.00    +0.000 A 
ATOM     12  C   UNL     1      34.982   0.005  16.830  0.00  0.00    +0.000 A 
ATOM     13  C   UNL     1      35.320   1.315  16.564  0.00  0.00    +0.000 A 
BRANCH  11  14
ATOM     14  O   UNL     1      35.159  -2.340  16.315  0.00  0.00    +0.000 OA
ATOM     15  C   UNL     1      35.152  -3.225  15.210  0.00  0.00    +0.000 C 
ENDBRANCH  11  14
ENDBRANCH   5   8
BRANCH   1  16
ATOM     16  N   UNL     1      35.731   6.531  14.294  0.00  0.00    +0.000 NA
BRANCH  16  20
ATOM     17  C   UNL     1      34.241   6.955  10.376  0.00  0.00    +0.000 A 
ATOM     18  C   UNL     1      33.443   7.240  11.485  0.00  0.00    +0.000 A 
ATOM     19  C   UNL     1      33.949   7.095  12.748  0.00  0.00    +0.000 A 
ATOM     20  C   UNL     1      35.241   6.670  12.959  0.00  0.00    +0.000 A 
ATOM     21  C   UNL     1      36.041   6.385  11.877  0.00  0.00    +0.000 A 
ATOM     22  C   UNL     1      35.527   6.532  10.594  0.00  0.00    +0.000 A 
BRANCH  17  23
ATOM     23  O   UNL     1      33.661   7.125   9.141  0.00  0.00    +0.000 OA
BRANCH  23  25
ATOM     24  C   UNL     1      33.385   7.360   6.802  0.00  0.00    +0.000 C 
ATOM     25  C   UNL     1      34.337   7.563   7.985  0.00  0.00    +0.000 C 
ENDBRANCH  23  25
ENDBRANCH  17  23
ENDBRANCH  16  20
ENDBRANCH   1  16
BRANCH   2  26
ATOM     26  S   UNL     1      38.897   6.268  15.299  0.00  0.00    +0.000 S 
BRANCH  26  27
ATOM     27  C   UNL     1      39.726   6.298  16.828  0.00  0.00    +0.000 A 
ATOM     28  C   UNL     1      41.057   6.360  17.087  0.00  0.00    +0.000 A 
ATOM     29  C   UNL     1      41.526   6.375  18.381  0.00  0.00    +0.000 A 
ATOM     30  C   UNL     1      40.684   6.328  19.471  0.00  0.00    +0.000 A 
ATOM     31  C   UNL     1      39.336   6.264  19.224  0.00  0.00    +0.000 A 
ATOM     32  C   UNL     1      38.875   6.250  17.958  0.00  0.00    +0.000 A 
ENDBRANCH  26  27
ENDBRANCH   2  26
TORSDOF 8
ENDMDL
MODEL 6
REMARK VINA RESULT:      -6.6      3.575      5.218
REMARK  Name = 
REMARK  8 active torsions:
REMARK  status: ('A' for Active; 'I' for Inactive)
REMARK    1  A    between atoms: C_2  and  O_3
REMARK    2  A    between atoms: O_3  and  C_4
REMARK    3  A    between atoms: C_7  and  N_8
REMARK    4  A    between atoms: N_8  and  C_9
REMARK    5  A    between atoms: C_10  and  S_11
REMARK    6  A    between atoms: S_11  and  C_12
REMARK    7  A    between atoms: N_20  and  C_21
REMARK    8  A    between atoms: C_24  and  O_25
REMARK                            x       y       z     vdW  Elec       q    Type
REMARK                         _______ _______ _______ _____ _____    ______ ____
ROOT
ATOM      1  C   UNL     1      36.829   4.264  14.855  0.00  0.00    +0.000 C 
ATOM      2  C   UNL     1      36.477   5.511  14.704  0.00  0.00    +0.000 C 
ATOM      3  C   UNL     1      37.476   6.312  15.466  0.00  0.00    +0.000 C 
ATOM      4  O   UNL     1      37.513   7.567  15.590  0.00  0.00    +0.000 OA
ATOM      5  N   UNL     1      38.411   5.457  16.058  0.00  0.00    +0.000 N 
ATOM      6  C   UNL     1      38.042   4.139  15.698  0.00  0.00    +0.000 C 
ATOM      7  O   UNL     1      38.611   3.064  16.015  0.00  0.00    +0.000 OA
ENDROOT
BRANCH   5   8
ATOM      8  C   UNL     1      39.543   5.791  16.881  0.00  0.00    +0.000 A 
ATOM      9  C   UNL     1      40.769   6.127  16.350  0.00  0.00    +0.000 A 
ATOM     10  C   UNL     1      41.814   6.437  17.194  0.00  0.00    +0.000 A 
ATOM     11  C   UNL     1      41.701   6.430  18.559  0.00  0.00    +0.000 A 
ATOM     12  C   UNL     1      40.469   6.092  19.098  0.00  0.00    +0.000 A 
ATOM     13  C   UNL     1      39.422   5.782  18.257  0.00  0.00    +0.000 A 
BRANCH  11  14
ATOM     14  O   UNL     1      42.765   6.745  19.419  0.00  0.00    +0.000 OA
ATOM     15  C   UNL     1      42.535   6.536  20.800  0.00  0.00    +0.000 C 
ENDBRANCH  11  14
ENDBRANCH   5   8
BRANCH   1  16
ATOM     16  N   UNL     1      36.136   3.150  14.282  0.00  0.00    +0.000 NA
BRANCH  16  20
ATOM     17  C   UNL     1      35.313  -0.318  16.526  0.00  0.00    +0.000 A 
ATOM     18  C   UNL     1      36.105  -0.374  15.378  0.00  0.00    +0.000 A 
ATOM     19  C   UNL     1      36.359   0.766  14.666  0.00  0.00    +0.000 A 
ATOM     20  C   UNL     1      35.848   1.984  15.054  0.00  0.00    +0.000 A 
ATOM     21  C   UNL     1      35.065   2.056  16.182  0.00  0.00    +0.000 A 
ATOM     22  C   UNL     1      34.807   0.898  16.906  0.00  0.00    +0.000 A 
BRANCH  17  23
ATOM     23  O   UNL     1      35.104  -1.505  17.186  0.00  0.00    +0.000 OA
BRANCH  23  25
ATOM     24  C   UNL     1      36.824  -1.654  18.807  0.00  0.00    +0.000 C 
ATOM     25  C   UNL     1      36.122  -2.365  17.644  0.00  0.00    +0.000 C 
ENDBRANCH  23  25
ENDBRANCH  17  23
ENDBRANCH  16  20
ENDBRANCH   1  16
BRANCH   2  26
ATOM     26  S   UNL     1      35.168   6.309  13.845  0.00  0.00    +0.000 S 
BRANCH  26  27
ATOM     27  C   UNL     1      35.253   6.323  12.107  0.00  0.00    +0.000 A 
ATOM     28  C   UNL     1      36.108   5.670  11.281  0.00  0.00    +0.000 A 
ATOM     29  C   UNL     1      36.016   5.809   9.914  0.00  0.00    +0.000 A 
ATOM     30  C   UNL     1      35.065   6.608   9.316  0.00  0.00    +0.000 A 
ATOM     31  C   UNL     1      34.194   7.275  10.141  0.00  0.00    +0.000 A 
ATOM     32  C   UNL     1      34.283   7.139  11.479  0.00  0.00    +0.000 A 
ENDBRANCH  26  27
ENDBRANCH   2  26
TORSDOF 8
ENDMDL
MODEL 7
REMARK VINA RESULT:      -6.5      3.374      9.188
REMARK  Name = 
REMARK  8 active torsions:
REMARK  status: ('A' for Active; 'I' for Inactive)
REMARK    1  A    between atoms: C_2  and  O_3
REMARK    2  A    between atoms: O_3  and  C_4
REMARK    3  A    between atoms: C_7  and  N_8
REMARK    4  A    between atoms: N_8  and  C_9
REMARK    5  A    between atoms: C_10  and  S_11
REMARK    6  A    between atoms: S_11  and  C_12
REMARK    7  A    between atoms: N_20  and  C_21
REMARK    8  A    between atoms: C_24  and  O_25
REMARK                            x       y       z     vdW  Elec       q    Type
REMARK                         _______ _______ _______ _____ _____    ______ ____
ROOT
ATOM      1  C   UNL     1      37.366  -0.830  15.732  0.00  0.00    +0.000 C 
ATOM      2  C   UNL     1      36.344  -0.424  16.434  0.00  0.00    +0.000 C 
ATOM      3  C   UNL     1      35.406  -1.579  16.495  0.00  0.00    +0.000 C 
ATOM      4  O   UNL     1      34.287  -1.623  17.077  0.00  0.00    +0.000 OA
ATOM      5  N   UNL     1      35.945  -2.661  15.792  0.00  0.00    +0.000 N 
ATOM      6  C   UNL     1      37.195  -2.234  15.285  0.00  0.00    +0.000 C 
ATOM      7  O   UNL     1      38.014  -2.892  14.595  0.00  0.00    +0.000 OA
ENDROOT
BRANCH   5   8
ATOM      8  C   UNL     1      35.387  -3.971  15.587  0.00  0.00    +0.000 A 
ATOM      9  C   UNL     1      35.849  -5.083  16.255  0.00  0.00    +0.000 A 
ATOM     10  C   UNL     1      35.270  -6.312  16.014  0.00  0.00    +0.000 A 
ATOM     11  C   UNL     1      34.241  -6.492  15.129  0.00  0.00    +0.000 A 
ATOM     12  C   UNL     1      33.772  -5.376  14.454  0.00  0.00    +0.000 A 
ATOM     13  C   UNL     1      34.349  -4.146  14.694  0.00  0.00    +0.000 A 
BRANCH  11  14
ATOM     14  O   UNL     1      33.651  -7.742  14.882  0.00  0.00    +0.000 OA
ATOM     15  C   UNL     1      32.700  -8.184  15.833  0.00  0.00    +0.000 C 
ENDBRANCH  11  14
ENDBRANCH   5   8
BRANCH   1  16
ATOM     16  N   UNL     1      38.512  -0.028  15.426  0.00  0.00    +0.000 NA
BRANCH  16  20
ATOM     17  C   UNL     1      38.532   2.662  12.184  0.00  0.00    +0.000 A 
ATOM     18  C   UNL     1      39.411   2.819  13.256  0.00  0.00    +0.000 A 
ATOM     19  C   UNL     1      39.387   1.932  14.298  0.00  0.00    +0.000 A 
ATOM     20  C   UNL     1      38.506   0.874  14.319  0.00  0.00    +0.000 A 
ATOM     21  C   UNL     1      37.632   0.706  13.271  0.00  0.00    +0.000 A 
ATOM     22  C   UNL     1      37.657   1.606  12.212  0.00  0.00    +0.000 A 
BRANCH  17  23
ATOM     23  O   UNL     1      38.618   3.593  11.176  0.00  0.00    +0.000 OA
BRANCH  23  25
ATOM     24  C   UNL     1      36.695   4.953  10.929  0.00  0.00    +0.000 C 
ATOM     25  C   UNL     1      37.586   3.896  10.267  0.00  0.00    +0.000 C 
ENDBRANCH  23  25
ENDBRANCH  17  23
ENDBRANCH  16  20
ENDBRANCH   1  16
BRANCH   2  26
ATOM     26  S   UNL     1      35.943   1.091  17.229  0.00  0.00    +0.000 S 
BRANCH  26  27
ATOM     27  C   UNL     1      36.237   2.556  16.338  0.00  0.00    +0.000 A 
ATOM     28  C   UNL     1      37.150   3.534  16.562  0.00  0.00    +0.000 A 
ATOM     29  C   UNL     1      37.232   4.630  15.733  0.00  0.00    +0.000 A 
ATOM     30  C   UNL     1      36.402   4.796  14.646  0.00  0.00    +0.000 A 
ATOM     31  C   UNL     1      35.472   3.815  14.408  0.00  0.00    +0.000 A 
ATOM     32  C   UNL     1      35.392   2.741  15.217  0.00  0.00    +0.000 A 
ENDBRANCH  26  27
ENDBRANCH   2  26
TORSDOF 8
ENDMDL
MODEL 8
REMARK VINA RESULT:      -6.5     23.920     28.507
REMARK  Name = 
REMARK  8 active torsions:
REMARK  status: ('A' for Active; 'I' for Inactive)
REMARK    1  A    between atoms: C_2  and  O_3
REMARK    2  A    between atoms: O_3  and  C_4
REMARK    3  A    between atoms: C_7  and  N_8
REMARK    4  A    between atoms: N_8  and  C_9
REMARK    5  A    between atoms: C_10  and  S_11
REMARK    6  A    between atoms: S_11  and  C_12
REMARK    7  A    between atoms: N_20  and  C_21
REMARK    8  A    between atoms: C_24  and  O_25
REMARK                            x       y       z     vdW  Elec       q    Type
REMARK                         _______ _______ _______ _____ _____    ______ ____
ROOT
ATOM      1  C   UNL     1      27.533  15.636  38.621  0.00  0.00    +0.000 C 
ATOM      2  C   UNL     1      26.288  15.656  38.230  0.00  0.00    +0.000 C 
ATOM      3  C   UNL     1      25.581  14.651  39.071  0.00  0.00    +0.000 C 
ATOM      4  O   UNL     1      24.357  14.345  39.028  0.00  0.00    +0.000 OA
ATOM      5  N   UNL     1      26.486  14.059  39.958  0.00  0.00    +0.000 N 
ATOM      6  C   UNL     1      27.746  14.653  39.710  0.00  0.00    +0.000 C 
ATOM      7  O   UNL     1      28.838  14.414  40.284  0.00  0.00    +0.000 OA
ENDROOT
BRANCH   5   8
ATOM      8  C   UNL     1      26.244  13.041  40.946  0.00  0.00    +0.000 A 
ATOM      9  C   UNL     1      25.514  13.281  42.090  0.00  0.00    +0.000 A 
ATOM     10  C   UNL     1      25.318  12.262  42.998  0.00  0.00    +0.000 A 
ATOM     11  C   UNL     1      25.819  10.999  42.825  0.00  0.00    +0.000 A 
ATOM     12  C   UNL     1      26.554  10.753  41.676  0.00  0.00    +0.000 A 
ATOM     13  C   UNL     1      26.752  11.770  40.766  0.00  0.00    +0.000 A 
BRANCH  11  14
ATOM     14  O   UNL     1      25.621   9.961  43.749  0.00  0.00    +0.000 OA
ATOM     15  C   UNL     1      24.514   9.112  43.508  0.00  0.00    +0.000 C 
ENDBRANCH  11  14
ENDBRANCH   5   8
BRANCH   1  16
ATOM     16  N   UNL     1      28.569  16.457  38.072  0.00  0.00    +0.000 NA
BRANCH  16  20
ATOM     17  C   UNL     1      31.133  14.998  35.065  0.00  0.00    +0.000 A 
ATOM     18  C   UNL     1      31.372  14.721  36.411  0.00  0.00    +0.000 A 
ATOM     19  C   UNL     1      30.525  15.205  37.371  0.00  0.00    +0.000 A 
ATOM     20  C   UNL     1      29.428  15.969  37.041  0.00  0.00    +0.000 A 
ATOM     21  C   UNL     1      29.179  16.252  35.718  0.00  0.00    +0.000 A 
ATOM     22  C   UNL     1      30.039  15.759  34.743  0.00  0.00    +0.000 A 
BRANCH  17  23
ATOM     23  O   UNL     1      32.029  14.476  34.162  0.00  0.00    +0.000 OA
BRANCH  23  25
ATOM     24  C   UNL     1      32.979  16.023  32.642  0.00  0.00    +0.000 C 
ATOM     25  C   UNL     1      33.257  15.068  33.808  0.00  0.00    +0.000 C 
ENDBRANCH  23  25
ENDBRANCH  17  23
ENDBRANCH  16  20
ENDBRANCH   1  16
BRANCH   2  26
ATOM     26  S   UNL     1      25.412  16.572  37.014  0.00  0.00    +0.000 S 
BRANCH  26  27
ATOM     27  C   UNL     1      25.479  15.983  35.378  0.00  0.00    +0.000 A 
ATOM     28  C   UNL     1      25.887  14.776  34.912  0.00  0.00    +0.000 A 
ATOM     29  C   UNL     1      25.865  14.492  33.564  0.00  0.00    +0.000 A 
ATOM     30  C   UNL     1      25.435  15.406  32.626  0.00  0.00    +0.000 A 
ATOM     31  C   UNL     1      25.020  16.631  33.084  0.00  0.00    +0.000 A 
ATOM     32  C   UNL     1      25.040  16.909  34.402  0.00  0.00    +0.000 A 
ENDBRANCH  26  27
ENDBRANCH   2  26
TORSDOF 8
ENDMDL
MODEL 9
REMARK VINA RESULT:      -6.4      2.864      4.529
REMARK  Name = 
REMARK  8 active torsions:
REMARK  status: ('A' for Active; 'I' for Inactive)
REMARK    1  A    between atoms: C_2  and  O_3
REMARK    2  A    between atoms: O_3  and  C_4
REMARK    3  A    between atoms: C_7  and  N_8
REMARK    4  A    between atoms: N_8  and  C_9
REMARK    5  A    between atoms: C_10  and  S_11
REMARK    6  A    between atoms: S_11  and  C_12
REMARK    7  A    between atoms: N_20  and  C_21
REMARK    8  A    between atoms: C_24  and  O_25
REMARK                            x       y       z     vdW  Elec       q    Type
REMARK                         _______ _______ _______ _____ _____    ______ ____
ROOT
ATOM      1  C   UNL     1      36.644   0.879  13.970  0.00  0.00    +0.000 C 
ATOM      2  C   UNL     1      36.054   0.800  15.130  0.00  0.00    +0.000 C 
ATOM      3  C   UNL     1      35.726   2.201  15.517  0.00  0.00    +0.000 C 
ATOM      4  O   UNL     1      35.147   2.585  16.571  0.00  0.00    +0.000 OA
ATOM      5  N   UNL     1      36.159   3.078  14.519  0.00  0.00    +0.000 N 
ATOM      6  C   UNL     1      36.753   2.284  13.509  0.00  0.00    +0.000 C 
ATOM      7  O   UNL     1      37.273   2.668  12.431  0.00  0.00    +0.000 OA
ENDROOT
BRANCH   5   8
ATOM      8  C   UNL     1      36.054   4.512  14.472  0.00  0.00    +0.000 A 
ATOM      9  C   UNL     1      34.911   5.156  14.051  0.00  0.00    +0.000 A 
ATOM     10  C   UNL     1      34.874   6.534  14.029  0.00  0.00    +0.000 A 
ATOM     11  C   UNL     1      35.931   7.316  14.410  0.00  0.00    +0.000 A 
ATOM     12  C   UNL     1      37.084   6.674  14.835  0.00  0.00    +0.000 A 
ATOM     13  C   UNL     1      37.123   5.296  14.857  0.00  0.00    +0.000 A 
BRANCH  11  14
ATOM     14  O   UNL     1      35.895   8.719  14.388  0.00  0.00    +0.000 OA
ATOM     15  C   UNL     1      35.545   9.355  15.604  0.00  0.00    +0.000 C 
ENDBRANCH  11  14
ENDBRANCH   5   8
BRANCH   1  16
ATOM     16  N   UNL     1      37.129  -0.245  13.227  0.00  0.00    +0.000 NA
BRANCH  16  20
ATOM     17  C   UNL     1      40.934  -1.902  13.948  0.00  0.00    +0.000 A 
ATOM     18  C   UNL     1      39.952  -2.623  13.267  0.00  0.00    +0.000 A 
ATOM     19  C   UNL     1      38.723  -2.063  13.044  0.00  0.00    +0.000 A 
ATOM     20  C   UNL     1      38.424  -0.792  13.479  0.00  0.00    +0.000 A 
ATOM     21  C   UNL     1      39.381  -0.068  14.153  0.00  0.00    +0.000 A 
ATOM     22  C   UNL     1      40.629  -0.636  14.378  0.00  0.00    +0.000 A 
BRANCH  17  23
ATOM     23  O   UNL     1      42.142  -2.532  14.132  0.00  0.00    +0.000 OA
BRANCH  23  25
ATOM     24  C   UNL     1      43.568  -1.858  12.366  0.00  0.00    +0.000 C 
ATOM     25  C   UNL     1      43.402  -1.951  13.887  0.00  0.00    +0.000 C 
ENDBRANCH  23  25
ENDBRANCH  17  23
ENDBRANCH  16  20
ENDBRANCH   1  16
BRANCH   2  26
ATOM     26  S   UNL     1      35.631  -0.537  16.190  0.00  0.00    +0.000 S 
BRANCH  26  27
ATOM     27  C   UNL     1      36.839  -1.764  16.437  0.00  0.00    +0.000 A 
ATOM     28  C   UNL     1      38.016  -1.693  17.108  0.00  0.00    +0.000 A 
ATOM     29  C   UNL     1      38.849  -2.787  17.196  0.00  0.00    +0.000 A 
ATOM     30  C   UNL     1      38.539  -3.997  16.615  0.00  0.00    +0.000 A 
ATOM     31  C   UNL     1      37.351  -4.083  15.933  0.00  0.00    +0.000 A 
ATOM     32  C   UNL     1      36.535  -3.014  15.847  0.00  0.00    +0.000 A 
ENDBRANCH  26  27
ENDBRANCH   2  26
TORSDOF 8
ENDMDL
MODEL 10
REMARK VINA RESULT:      -6.3     26.757     28.868
REMARK  Name = 
REMARK  8 active torsions:
REMARK  status: ('A' for Active; 'I' for Inactive)
REMARK    1  A    between atoms: C_2  and  O_3
REMARK    2  A    between atoms: O_3  and  C_4
REMARK    3  A    between atoms: C_7  and  N_8
REMARK    4  A    between atoms: N_8  and  C_9
REMARK    5  A    between atoms: C_10  and  S_11
REMARK    6  A    between atoms: S_11  and  C_12
REMARK    7  A    between atoms: N_20  and  C_21
REMARK    8  A    between atoms: C_24  and  O_25
REMARK                            x       y       z     vdW  Elec       q    Type
REMARK                         _______ _______ _______ _____ _____    ______ ____
ROOT
ATOM      1  C   UNL     1      26.497  14.232  40.056  0.00  0.00    +0.000 C 
ATOM      2  C   UNL     1      27.744  14.544  39.835  0.00  0.00    +0.000 C 
ATOM      3  C   UNL     1      27.781  15.128  38.465  0.00  0.00    +0.000 C 
ATOM      4  O   UNL     1      28.793  15.565  37.850  0.00  0.00    +0.000 OA
ATOM      5  N   UNL     1      26.494  15.130  37.919  0.00  0.00    +0.000 N 
ATOM      6  C   UNL     1      25.637  14.568  38.895  0.00  0.00    +0.000 C 
ATOM      7  O   UNL     1      24.397  14.381  38.818  0.00  0.00    +0.000 OA
ENDROOT
BRANCH   5   8
ATOM      8  C   UNL     1      26.064  15.595  36.627  0.00  0.00    +0.000 A 
ATOM      9  C   UNL     1      25.478  16.829  36.444  0.00  0.00    +0.000 A 
ATOM     10  C   UNL     1      25.088  17.216  35.179  0.00  0.00    +0.000 A 
ATOM     11  C   UNL     1      25.252  16.427  34.072  0.00  0.00    +0.000 A 
ATOM     12  C   UNL     1      25.842  15.185  34.251  0.00  0.00    +0.000 A 
ATOM     13  C   UNL     1      26.232  14.796  35.515  0.00  0.00    +0.000 A 
BRANCH  11  14
ATOM     14  O   UNL     1      24.855  16.820  32.784  0.00  0.00    +0.000 OA
ATOM     15  C   UNL     1      24.389  18.150  32.651  0.00  0.00    +0.000 C 
ENDBRANCH  11  14
ENDBRANCH   5   8
BRANCH   1  16
ATOM     16  N   UNL     1      26.010  13.638  41.264  0.00  0.00    +0.000 NA
BRANCH  16  20
ATOM     17  C   UNL     1      26.702   9.585  42.180  0.00  0.00    +0.000 A 
ATOM     18  C   UNL     1      26.203  10.465  43.141  0.00  0.00    +0.000 A 
ATOM     19  C   UNL     1      25.986  11.778  42.820  0.00  0.00    +0.000 A 
ATOM     20  C   UNL     1      26.249  12.261  41.558  0.00  0.00    +0.000 A 
ATOM     21  C   UNL     1      26.742  11.407  40.599  0.00  0.00    +0.000 A 
ATOM     22  C   UNL     1      26.962  10.074  40.925  0.00  0.00    +0.000 A 
BRANCH  17  23
ATOM     23  O   UNL     1      26.893   8.284  42.579  0.00  0.00    +0.000 OA
BRANCH  23  25
ATOM     24  C   UNL     1      28.090   6.800  43.984  0.00  0.00    +0.000 C 
ATOM     25  C   UNL     1      28.147   7.656  42.714  0.00  0.00    +0.000 C 
ENDBRANCH  23  25
ENDBRANCH  17  23
ENDBRANCH  16  20
ENDBRANCH   1  16
BRANCH   2  26
ATOM     26  S   UNL     1      29.217  14.406  40.783  0.00  0.00    +0.000 S 
BRANCH  26  27
ATOM     27  C   UNL     1      29.846  12.804  41.039  0.00  0.00    +0.000 A 
ATOM     28  C   UNL     1      30.410  11.947  40.152  0.00  0.00    +0.000 A 
ATOM     29  C   UNL     1      30.855  10.706  40.550  0.00  0.00    +0.000 A 
ATOM     30  C   UNL     1      30.753  10.270  41.854  0.00  0.00    +0.000 A 
ATOM     31  C   UNL     1      30.183  11.127  42.762  0.00  0.00    +0.000 A 
ATOM     32  C   UNL     1      29.749  12.342  42.373  0.00  0.00    +0.000 A 
ENDBRANCH  26  27
ENDBRANCH   2  26
TORSDOF 8
ENDMDL
