MODEL 1
REMARK VINA RESULT:      -5.9      0.000      0.000
REMARK  Name = 
REMARK  8 active torsions:
REMARK  status: ('A' for Active; 'I' for Inactive)
REMARK    1  A    between atoms: C_2  and  C_3
REMARK    2  A    between atoms: C_3  and  N_4
REMARK    3  A    between atoms: N_4  and  C_5
REMARK    4  A    between atoms: N_4  and  C_8
REMARK    5  A    between atoms: C_5  and  C_6
REMARK    6  A    between atoms: C_8  and  N_10
REMARK    7  A    between atoms: N_10  and  C_11
REMARK    8  A    between atoms: C_15  and  N_16
REMARK                            x       y       z     vdW  Elec       q    Type
REMARK                         _______ _______ _______ _____ _____    ______ ____
ROOT
ATOM      1  N   UNL     1      16.146  10.326  34.726  0.00  0.00    +0.000 NA
ENDROOT
BRANCH   1   2
ATOM      2  C   UNL     1      15.825  10.941  33.532  0.00  0.00    +0.000 A 
ATOM      3  C   UNL     1      16.163  10.493  32.275  0.00  0.00    +0.000 A 
ATOM      4  C   UNL     1      15.812  11.155  31.122  0.00  0.00    +0.000 A 
ATOM      5  C   UNL     1      15.086  12.329  31.157  0.00  0.00    +0.000 A 
ATOM      6  C   UNL     1      14.735  12.800  32.403  0.00  0.00    +0.000 A 
ATOM      7  C   UNL     1      15.081  12.146  33.552  0.00  0.00    +0.000 A 
BRANCH   6   8
ATOM      8  N   UNL     1      13.973  14.025  32.502  0.00  0.00    +0.000 N 
ATOM      9  O   UNL     1      13.332  14.281  33.536  0.00  0.00    +0.000 OA
ATOM     10  O   UNL     1      13.938  14.927  31.470  0.00  0.00    +0.000 OA
ENDBRANCH   6   8
ENDBRANCH   1   2
BRANCH   1  11
ATOM     11  C   UNL     1      17.072  10.358  35.705  0.00  0.00    +0.000 C 
ATOM     12  S   UNL     1      18.472   9.423  35.578  0.00  0.00    +0.000 S 
BRANCH  11  13
ATOM     13  N   UNL     1      17.036  11.114  36.902  0.00  0.00    +0.000 N 
BRANCH  13  14
ATOM     14  C   UNL     1      17.888  10.807  38.054  0.00  0.00    +0.000 C 
BRANCH  14  16
ATOM     15  C   UNL     1      17.885   9.252  39.990  0.00  0.00    +0.000 C 
ATOM     16  C   UNL     1      17.248   9.902  39.018  0.00  0.00    +0.000 C 
ENDBRANCH  14  16
ENDBRANCH  13  14
BRANCH  13  17
ATOM     17  C   UNL     1      16.162  12.260  37.093  0.00  0.00    +0.000 C 
BRANCH  17  18
ATOM     18  C   UNL     1      14.824  11.724  37.463  0.00  0.00    +0.000 C 
ATOM     19  C   UNL     1      13.680  12.138  36.952  0.00  0.00    +0.000 C 
ENDBRANCH  17  18
ENDBRANCH  13  17
ENDBRANCH  11  13
ENDBRANCH   1  11
TORSDOF 8
ENDMDL
MODEL 2
REMARK VINA RESULT:      -5.8      1.470      2.511
REMARK  Name = 
REMARK  8 active torsions:
REMARK  status: ('A' for Active; 'I' for Inactive)
REMARK    1  A    between atoms: C_2  and  C_3
REMARK    2  A    between atoms: C_3  and  N_4
REMARK    3  A    between atoms: N_4  and  C_5
REMARK    4  A    between atoms: N_4  and  C_8
REMARK    5  A    between atoms: C_5  and  C_6
REMARK    6  A    between atoms: C_8  and  N_10
REMARK    7  A    between atoms: N_10  and  C_11
REMARK    8  A    between atoms: C_15  and  N_16
REMARK                            x       y       z     vdW  Elec       q    Type
REMARK                         _______ _______ _______ _____ _____    ______ ____
ROOT
ATOM      1  N   UNL     1      16.036  10.737  35.096  0.00  0.00    +0.000 NA
ENDROOT
BRANCH   1   2
ATOM      2  C   UNL     1      15.847  11.121  33.784  0.00  0.00    +0.000 A 
ATOM      3  C   UNL     1      16.462  10.569  32.684  0.00  0.00    +0.000 A 
ATOM      4  C   UNL     1      16.229  10.999  31.399  0.00  0.00    +0.000 A 
ATOM      5  C   UNL     1      15.350  12.030  31.131  0.00  0.00    +0.000 A 
ATOM      6  C   UNL     1      14.721  12.601  32.215  0.00  0.00    +0.000 A 
ATOM      7  C   UNL     1      14.948  12.177  33.494  0.00  0.00    +0.000 A 
BRANCH   6   8
ATOM      8  N   UNL     1      13.788  13.684  31.997  0.00  0.00    +0.000 N 
ATOM      9  O   UNL     1      13.256  13.836  30.884  0.00  0.00    +0.000 OA
ATOM     10  O   UNL     1      13.469  14.562  33.000  0.00  0.00    +0.000 OA
ENDBRANCH   6   8
ENDBRANCH   1   2
BRANCH   1  11
ATOM     11  C   UNL     1      16.696  11.107  36.212  0.00  0.00    +0.000 C 
ATOM     12  S   UNL     1      17.054  12.734  36.485  0.00  0.00    +0.000 S 
BRANCH  11  13
ATOM     13  N   UNL     1      17.160  10.272  37.258  0.00  0.00    +0.000 N 
BRANCH  13  14
ATOM     14  C   UNL     1      18.166   9.228  37.045  0.00  0.00    +0.000 C 
BRANCH  14  16
ATOM     15  C   UNL     1      20.556   9.845  36.778  0.00  0.00    +0.000 C 
ATOM     16  C   UNL     1      19.330   9.698  36.281  0.00  0.00    +0.000 C 
ENDBRANCH  14  16
ENDBRANCH  13  14
BRANCH  13  17
ATOM     17  C   UNL     1      16.688  10.378  38.629  0.00  0.00    +0.000 C 
BRANCH  17  18
ATOM     18  C   UNL     1      17.703   9.709  39.487  0.00  0.00    +0.000 C 
ATOM     19  C   UNL     1      17.515   9.367  40.747  0.00  0.00    +0.000 C 
ENDBRANCH  17  18
ENDBRANCH  13  17
ENDBRANCH  11  13
ENDBRANCH   1  11
TORSDOF 8
ENDMDL
MODEL 3
REMARK VINA RESULT:      -5.7      1.845      2.919
REMARK  Name = 
REMARK  8 active torsions:
REMARK  status: ('A' for Active; 'I' for Inactive)
REMARK    1  A    between atoms: C_2  and  C_3
REMARK    2  A    between atoms: C_3  and  N_4
REMARK    3  A    between atoms: N_4  and  C_5
REMARK    4  A    between atoms: N_4  and  C_8
REMARK    5  A    between atoms: C_5  and  C_6
REMARK    6  A    between atoms: C_8  and  N_10
REMARK    7  A    between atoms: N_10  and  C_11
REMARK    8  A    between atoms: C_15  and  N_16
REMARK                            x       y       z     vdW  Elec       q    Type
REMARK                         _______ _______ _______ _____ _____    ______ ____
ROOT
ATOM      1  N   UNL     1      15.371  11.493  35.784  0.00  0.00    +0.000 NA
ENDROOT
BRANCH   1   2
ATOM      2  C   UNL     1      14.837  12.317  34.815  0.00  0.00    +0.000 A 
ATOM      3  C   UNL     1      14.059  13.431  35.039  0.00  0.00    +0.000 A 
ATOM      4  C   UNL     1      13.556  14.212  34.025  0.00  0.00    +0.000 A 
ATOM      5  C   UNL     1      13.804  13.920  32.699  0.00  0.00    +0.000 A 
ATOM      6  C   UNL     1      14.579  12.810  32.446  0.00  0.00    +0.000 A 
ATOM      7  C   UNL     1      15.082  12.030  33.449  0.00  0.00    +0.000 A 
BRANCH   6   8
ATOM      8  N   UNL     1      14.874  12.456  31.076  0.00  0.00    +0.000 N 
ATOM      9  O   UNL     1      14.637  13.259  30.157  0.00  0.00    +0.000 OA
ATOM     10  O   UNL     1      15.417  11.238  30.756  0.00  0.00    +0.000 OA
ENDBRANCH   6   8
ENDBRANCH   1   2
BRANCH   1  11
ATOM     11  C   UNL     1      16.514  10.854  36.103  0.00  0.00    +0.000 C 
ATOM     12  S   UNL     1      17.339   9.958  34.933  0.00  0.00    +0.000 S 
BRANCH  11  13
ATOM     13  N   UNL     1      17.166  10.825  37.361  0.00  0.00    +0.000 N 
BRANCH  13  14
ATOM     14  C   UNL     1      16.478  10.443  38.596  0.00  0.00    +0.000 C 
BRANCH  14  16
ATOM     15  C   UNL     1      17.028   9.388  40.775  0.00  0.00    +0.000 C 
ATOM     16  C   UNL     1      17.321   9.653  39.504  0.00  0.00    +0.000 C 
ENDBRANCH  14  16
ENDBRANCH  13  14
BRANCH  13  17
ATOM     17  C   UNL     1      18.569  11.164  37.536  0.00  0.00    +0.000 C 
BRANCH  17  18
ATOM     18  C   UNL     1      18.642  12.645  37.656  0.00  0.00    +0.000 C 
ATOM     19  C   UNL     1      19.660  13.309  38.170  0.00  0.00    +0.000 C 
ENDBRANCH  17  18
ENDBRANCH  13  17
ENDBRANCH  11  13
ENDBRANCH   1  11
TORSDOF 8
ENDMDL
MODEL 4
REMARK VINA RESULT:      -5.3     18.073     19.275
REMARK  Name = 
REMARK  8 active torsions:
REMARK  status: ('A' for Active; 'I' for Inactive)
REMARK    1  A    between atoms: C_2  and  C_3
REMARK    2  A    between atoms: C_3  and  N_4
REMARK    3  A    between atoms: N_4  and  C_5
REMARK    4  A    between atoms: N_4  and  C_8
REMARK    5  A    between atoms: C_5  and  C_6
REMARK    6  A    between atoms: C_8  and  N_10
REMARK    7  A    between atoms: N_10  and  C_11
REMARK    8  A    between atoms: C_15  and  N_16
REMARK                            x       y       z     vdW  Elec       q    Type
REMARK                         _______ _______ _______ _____ _____    ______ ____
ROOT
ATOM      1  N   UNL     1      26.820  23.206  26.892  0.00  0.00    +0.000 NA
ENDROOT
BRANCH   1   2
ATOM      2  C   UNL     1      27.874  23.031  26.019  0.00  0.00    +0.000 A 
ATOM      3  C   UNL     1      29.128  22.567  26.348  0.00  0.00    +0.000 A 
ATOM      4  C   UNL     1      30.138  22.416  25.428  0.00  0.00    +0.000 A 
ATOM      5  C   UNL     1      29.953  22.726  24.095  0.00  0.00    +0.000 A 
ATOM      6  C   UNL     1      28.707  23.194  23.739  0.00  0.00    +0.000 A 
ATOM      7  C   UNL     1      27.699  23.346  24.648  0.00  0.00    +0.000 A 
BRANCH   6   8
ATOM      8  N   UNL     1      28.453  23.534  22.356  0.00  0.00    +0.000 N 
ATOM      9  O   UNL     1      29.383  23.919  21.626  0.00  0.00    +0.000 OA
ATOM     10  O   UNL     1      27.195  23.443  21.820  0.00  0.00    +0.000 OA
ENDBRANCH   6   8
ENDBRANCH   1   2
BRANCH   1  11
ATOM     11  C   UNL     1      26.221  24.158  27.635  0.00  0.00    +0.000 C 
ATOM     12  S   UNL     1      24.871  24.976  27.037  0.00  0.00    +0.000 S 
BRANCH  11  13
ATOM     13  N   UNL     1      26.587  24.598  28.931  0.00  0.00    +0.000 N 
BRANCH  13  14
ATOM     14  C   UNL     1      27.498  25.723  29.153  0.00  0.00    +0.000 C 
BRANCH  14  16
ATOM     15  C   UNL     1      29.783  24.761  29.307  0.00  0.00    +0.000 C 
ATOM     16  C   UNL     1      28.859  25.467  28.659  0.00  0.00    +0.000 C 
ENDBRANCH  14  16
ENDBRANCH  13  14
BRANCH  13  17
ATOM     17  C   UNL     1      26.088  23.981  30.150  0.00  0.00    +0.000 C 
BRANCH  17  18
ATOM     18  C   UNL     1      26.870  22.731  30.351  0.00  0.00    +0.000 C 
ATOM     19  C   UNL     1      26.347  21.523  30.437  0.00  0.00    +0.000 C 
ENDBRANCH  17  18
ENDBRANCH  13  17
ENDBRANCH  11  13
ENDBRANCH   1  11
TORSDOF 8
ENDMDL
MODEL 5
REMARK VINA RESULT:      -5.2     18.867     20.219
REMARK  Name = 
REMARK  8 active torsions:
REMARK  status: ('A' for Active; 'I' for Inactive)
REMARK    1  A    between atoms: C_2  and  C_3
REMARK    2  A    between atoms: C_3  and  N_4
REMARK    3  A    between atoms: N_4  and  C_5
REMARK    4  A    between atoms: N_4  and  C_8
REMARK    5  A    between atoms: C_5  and  C_6
REMARK    6  A    between atoms: C_8  and  N_10
REMARK    7  A    between atoms: N_10  and  C_11
REMARK    8  A    between atoms: C_15  and  N_16
REMARK                            x       y       z     vdW  Elec       q    Type
REMARK                         _______ _______ _______ _____ _____    ______ ____
ROOT
ATOM      1  N   UNL     1      27.780  25.110  26.053  0.00  0.00    +0.000 NA
ENDROOT
BRANCH   1   2
ATOM      2  C   UNL     1      27.455  24.679  24.782  0.00  0.00    +0.000 A 
ATOM      3  C   UNL     1      26.444  23.803  24.460  0.00  0.00    +0.000 A 
ATOM      4  C   UNL     1      26.172  23.412  23.170  0.00  0.00    +0.000 A 
ATOM      5  C   UNL     1      26.910  23.884  22.103  0.00  0.00    +0.000 A 
ATOM      6  C   UNL     1      27.929  24.762  22.398  0.00  0.00    +0.000 A 
ATOM      7  C   UNL     1      28.204  25.154  23.677  0.00  0.00    +0.000 A 
BRANCH   6   8
ATOM      8  N   UNL     1      28.735  25.291  21.320  0.00  0.00    +0.000 N 
ATOM      9  O   UNL     1      28.554  26.452  20.915  0.00  0.00    +0.000 OA
ATOM     10  O   UNL     1      29.711  24.535  20.723  0.00  0.00    +0.000 OA
ENDBRANCH   6   8
ENDBRANCH   1   2
BRANCH   1  11
ATOM     11  C   UNL     1      28.519  24.756  27.122  0.00  0.00    +0.000 C 
ATOM     12  S   UNL     1      29.604  25.855  27.805  0.00  0.00    +0.000 S 
BRANCH  11  13
ATOM     13  N   UNL     1      28.515  23.512  27.801  0.00  0.00    +0.000 N 
BRANCH  13  14
ATOM     14  C   UNL     1      28.844  22.250  27.135  0.00  0.00    +0.000 C 
BRANCH  14  16
ATOM     15  C   UNL     1      30.253  22.339  25.092  0.00  0.00    +0.000 C 
ATOM     16  C   UNL     1      30.125  22.295  26.416  0.00  0.00    +0.000 C 
ENDBRANCH  14  16
ENDBRANCH  13  14
BRANCH  13  17
ATOM     17  C   UNL     1      28.193  23.378  29.213  0.00  0.00    +0.000 C 
BRANCH  17  18
ATOM     18  C   UNL     1      27.333  22.171  29.345  0.00  0.00    +0.000 C 
ATOM     19  C   UNL     1      26.438  21.987  30.297  0.00  0.00    +0.000 C 
ENDBRANCH  17  18
ENDBRANCH  13  17
ENDBRANCH  11  13
ENDBRANCH   1  11
TORSDOF 8
ENDMDL
MODEL 6
REMARK VINA RESULT:      -5.2     17.999     19.217
REMARK  Name = 
REMARK  8 active torsions:
REMARK  status: ('A' for Active; 'I' for Inactive)
REMARK    1  A    between atoms: C_2  and  C_3
REMARK    2  A    between atoms: C_3  and  N_4
REMARK    3  A    between atoms: N_4  and  C_5
REMARK    4  A    between atoms: N_4  and  C_8
REMARK    5  A    between atoms: C_5  and  C_6
REMARK    6  A    between atoms: C_8  and  N_10
REMARK    7  A    between atoms: N_10  and  C_11
REMARK    8  A    between atoms: C_15  and  N_16
REMARK                            x       y       z     vdW  Elec       q    Type
REMARK                         _______ _______ _______ _____ _____    ______ ____
ROOT
ATOM      1  N   UNL     1      26.380  23.469  26.922  0.00  0.00    +0.000 NA
ENDROOT
BRANCH   1   2
ATOM      2  C   UNL     1      27.544  23.150  26.253  0.00  0.00    +0.000 A 
ATOM      3  C   UNL     1      28.653  22.549  26.804  0.00  0.00    +0.000 A 
ATOM      4  C   UNL     1      29.786  22.257  26.080  0.00  0.00    +0.000 A 
ATOM      5  C   UNL     1      29.880  22.555  24.735  0.00  0.00    +0.000 A 
ATOM      6  C   UNL     1      28.784  23.158  24.160  0.00  0.00    +0.000 A 
ATOM      7  C   UNL     1      27.656  23.450  24.873  0.00  0.00    +0.000 A 
BRANCH   6   8
ATOM      8  N   UNL     1      28.823  23.493  22.753  0.00  0.00    +0.000 N 
ATOM      9  O   UNL     1      29.808  24.083  22.279  0.00  0.00    +0.000 OA
ATOM     10  O   UNL     1      27.787  23.172  21.916  0.00  0.00    +0.000 OA
ENDBRANCH   6   8
ENDBRANCH   1   2
BRANCH   1  11
ATOM     11  C   UNL     1      25.840  24.445  27.679  0.00  0.00    +0.000 C 
ATOM     12  S   UNL     1      24.539  25.350  27.095  0.00  0.00    +0.000 S 
BRANCH  11  13
ATOM     13  N   UNL     1      26.233  24.846  28.980  0.00  0.00    +0.000 N 
BRANCH  13  14
ATOM     14  C   UNL     1      25.928  24.054  30.174  0.00  0.00    +0.000 C 
BRANCH  14  16
ATOM     15  C   UNL     1      26.455  21.637  30.383  0.00  0.00    +0.000 C 
ATOM     16  C   UNL     1      26.835  22.912  30.354  0.00  0.00    +0.000 C 
ENDBRANCH  14  16
ENDBRANCH  13  14
BRANCH  13  17
ATOM     17  C   UNL     1      26.975  26.068  29.245  0.00  0.00    +0.000 C 
BRANCH  17  18
ATOM     18  C   UNL     1      28.266  25.955  28.512  0.00  0.00    +0.000 C 
ATOM     19  C   UNL     1      29.369  25.431  29.010  0.00  0.00    +0.000 C 
ENDBRANCH  17  18
ENDBRANCH  13  17
ENDBRANCH  11  13
ENDBRANCH   1  11
TORSDOF 8
ENDMDL
MODEL 7
REMARK VINA RESULT:      -5.2     18.379     20.141
REMARK  Name = 
REMARK  8 active torsions:
REMARK  status: ('A' for Active; 'I' for Inactive)
REMARK    1  A    between atoms: C_2  and  C_3
REMARK    2  A    between atoms: C_3  and  N_4
REMARK    3  A    between atoms: N_4  and  C_5
REMARK    4  A    between atoms: N_4  and  C_8
REMARK    5  A    between atoms: C_5  and  C_6
REMARK    6  A    between atoms: C_8  and  N_10
REMARK    7  A    between atoms: N_10  and  C_11
REMARK    8  A    between atoms: C_15  and  N_16
REMARK                            x       y       z     vdW  Elec       q    Type
REMARK                         _______ _______ _______ _____ _____    ______ ____
ROOT
ATOM      1  N   UNL     1      28.238  22.345  26.006  0.00  0.00    +0.000 NA
ENDROOT
BRANCH   1   2
ATOM      2  C   UNL     1      28.480  22.521  27.353  0.00  0.00    +0.000 A 
ATOM      3  C   UNL     1      29.714  22.705  27.935  0.00  0.00    +0.000 A 
ATOM      4  C   UNL     1      29.889  22.875  29.288  0.00  0.00    +0.000 A 
ATOM      5  C   UNL     1      28.818  22.870  30.159  0.00  0.00    +0.000 A 
ATOM      6  C   UNL     1      27.571  22.686  29.603  0.00  0.00    +0.000 A 
ATOM      7  C   UNL     1      27.392  22.517  28.259  0.00  0.00    +0.000 A 
BRANCH   6   8
ATOM      8  N   UNL     1      26.411  22.673  30.467  0.00  0.00    +0.000 N 
ATOM      9  O   UNL     1      25.906  23.741  30.852  0.00  0.00    +0.000 OA
ATOM     10  O   UNL     1      25.844  21.495  30.879  0.00  0.00    +0.000 OA
ENDBRANCH   6   8
ENDBRANCH   1   2
BRANCH   1  11
ATOM     11  C   UNL     1      27.821  23.023  24.919  0.00  0.00    +0.000 C 
ATOM     12  S   UNL     1      26.182  23.373  24.714  0.00  0.00    +0.000 S 
BRANCH  11  13
ATOM     13  N   UNL     1      28.614  23.520  23.854  0.00  0.00    +0.000 N 
BRANCH  13  14
ATOM     14  C   UNL     1      30.055  23.746  23.984  0.00  0.00    +0.000 C 
BRANCH  14  16
ATOM     15  C   UNL     1      31.493  25.581  24.841  0.00  0.00    +0.000 C 
ATOM     16  C   UNL     1      30.384  24.846  24.902  0.00  0.00    +0.000 C 
ENDBRANCH  14  16
ENDBRANCH  13  14
BRANCH  13  17
ATOM     17  C   UNL     1      28.073  23.840  22.543  0.00  0.00    +0.000 C 
BRANCH  17  18
ATOM     18  C   UNL     1      29.211  24.324  21.715  0.00  0.00    +0.000 C 
ATOM     19  C   UNL     1      29.203  25.433  21.000  0.00  0.00    +0.000 C 
ENDBRANCH  17  18
ENDBRANCH  13  17
ENDBRANCH  11  13
ENDBRANCH   1  11
TORSDOF 8
ENDMDL
MODEL 8
REMARK VINA RESULT:      -5.2     17.859     19.517
REMARK  Name = 
REMARK  8 active torsions:
REMARK  status: ('A' for Active; 'I' for Inactive)
REMARK    1  A    between atoms: C_2  and  C_3
REMARK    2  A    between atoms: C_3  and  N_4
REMARK    3  A    between atoms: N_4  and  C_5
REMARK    4  A    between atoms: N_4  and  C_8
REMARK    5  A    between atoms: C_5  and  C_6
REMARK    6  A    between atoms: C_8  and  N_10
REMARK    7  A    between atoms: N_10  and  C_11
REMARK    8  A    between atoms: C_15  and  N_16
REMARK                            x       y       z     vdW  Elec       q    Type
REMARK                         _______ _______ _______ _____ _____    ______ ____
ROOT
ATOM      1  N   UNL     1      26.770  23.236  25.476  0.00  0.00    +0.000 NA
ENDROOT
BRANCH   1   2
ATOM      2  C   UNL     1      26.386  23.643  26.738  0.00  0.00    +0.000 A 
ATOM      3  C   UNL     1      25.675  24.783  27.038  0.00  0.00    +0.000 A 
ATOM      4  C   UNL     1      25.324  25.133  28.320  0.00  0.00    +0.000 A 
ATOM      5  C   UNL     1      25.670  24.348  29.402  0.00  0.00    +0.000 A 
ATOM      6  C   UNL     1      26.383  23.202  29.130  0.00  0.00    +0.000 A 
ATOM      7  C   UNL     1      26.734  22.849  27.858  0.00  0.00    +0.000 A 
BRANCH   6   8
ATOM      8  N   UNL     1      26.772  22.339  30.224  0.00  0.00    +0.000 N 
ATOM      9  O   UNL     1      25.909  21.722  30.871  0.00  0.00    +0.000 OA
ATOM     10  O   UNL     1      28.088  22.181  30.572  0.00  0.00    +0.000 OA
ENDBRANCH   6   8
ENDBRANCH   1   2
BRANCH   1  11
ATOM     11  C   UNL     1      27.581  23.594  24.461  0.00  0.00    +0.000 C 
ATOM     12  S   UNL     1      26.937  23.929  22.937  0.00  0.00    +0.000 S 
BRANCH  11  13
ATOM     13  N   UNL     1      28.990  23.741  24.493  0.00  0.00    +0.000 N 
BRANCH  13  14
ATOM     14  C   UNL     1      29.645  25.050  24.538  0.00  0.00    +0.000 C 
BRANCH  14  16
ATOM     15  C   UNL     1      29.295  25.974  26.816  0.00  0.00    +0.000 C 
ATOM     16  C   UNL     1      29.034  25.967  25.511  0.00  0.00    +0.000 C 
ENDBRANCH  14  16
ENDBRANCH  13  14
BRANCH  13  17
ATOM     17  C   UNL     1      29.907  22.612  24.491  0.00  0.00    +0.000 C 
BRANCH  17  18
ATOM     18  C   UNL     1      30.618  22.633  25.799  0.00  0.00    +0.000 C 
ATOM     19  C   UNL     1      30.195  22.030  26.893  0.00  0.00    +0.000 C 
ENDBRANCH  17  18
ENDBRANCH  13  17
ENDBRANCH  11  13
ENDBRANCH   1  11
TORSDOF 8
ENDMDL
MODEL 9
REMARK VINA RESULT:      -5.1     18.000     19.096
REMARK  Name = 
REMARK  8 active torsions:
REMARK  status: ('A' for Active; 'I' for Inactive)
REMARK    1  A    between atoms: C_2  and  C_3
REMARK    2  A    between atoms: C_3  and  N_4
REMARK    3  A    between atoms: N_4  and  C_5
REMARK    4  A    between atoms: N_4  and  C_8
REMARK    5  A    between atoms: C_5  and  C_6
REMARK    6  A    between atoms: C_8  and  N_10
REMARK    7  A    between atoms: N_10  and  C_11
REMARK    8  A    between atoms: C_15  and  N_16
REMARK                            x       y       z     vdW  Elec       q    Type
REMARK                         _______ _______ _______ _____ _____    ______ ____
ROOT
ATOM      1  N   UNL     1      27.734  22.275  26.842  0.00  0.00    +0.000 NA
ENDROOT
BRANCH   1   2
ATOM      2  C   UNL     1      27.411  22.742  25.583  0.00  0.00    +0.000 A 
ATOM      3  C   UNL     1      26.139  22.896  25.080  0.00  0.00    +0.000 A 
ATOM      4  C   UNL     1      25.885  23.366  23.813  0.00  0.00    +0.000 A 
ATOM      5  C   UNL     1      26.908  23.718  22.956  0.00  0.00    +0.000 A 
ATOM      6  C   UNL     1      28.191  23.573  23.434  0.00  0.00    +0.000 A 
ATOM      7  C   UNL     1      28.450  23.106  24.692  0.00  0.00    +0.000 A 
BRANCH   6   8
ATOM      8  N   UNL     1      29.304  23.927  22.581  0.00  0.00    +0.000 N 
ATOM      9  O   UNL     1      30.425  24.139  23.072  0.00  0.00    +0.000 OA
ATOM     10  O   UNL     1      29.153  24.036  21.223  0.00  0.00    +0.000 OA
ENDBRANCH   6   8
ENDBRANCH   1   2
BRANCH   1  11
ATOM     11  C   UNL     1      28.644  22.447  27.821  0.00  0.00    +0.000 C 
ATOM     12  S   UNL     1      30.286  22.226  27.501  0.00  0.00    +0.000 S 
BRANCH  11  13
ATOM     13  N   UNL     1      28.403  22.811  29.169  0.00  0.00    +0.000 N 
BRANCH  13  14
ATOM     14  C   UNL     1      27.150  22.494  29.859  0.00  0.00    +0.000 C 
BRANCH  14  16
ATOM     15  C   UNL     1      25.944  24.561  30.524  0.00  0.00    +0.000 C 
ATOM     16  C   UNL     1      26.124  23.533  29.697  0.00  0.00    +0.000 C 
ENDBRANCH  14  16
ENDBRANCH  13  14
BRANCH  13  17
ATOM     17  C   UNL     1      29.373  23.522  29.986  0.00  0.00    +0.000 C 
BRANCH  17  18
ATOM     18  C   UNL     1      29.472  22.786  31.275  0.00  0.00    +0.000 C 
ATOM     19  C   UNL     1      30.475  22.000  31.617  0.00  0.00    +0.000 C 
ENDBRANCH  17  18
ENDBRANCH  13  17
ENDBRANCH  11  13
ENDBRANCH   1  11
TORSDOF 8
ENDMDL
MODEL 10
REMARK VINA RESULT:      -5.1     21.931     23.530
REMARK  Name = 
REMARK  8 active torsions:
REMARK  status: ('A' for Active; 'I' for Inactive)
REMARK    1  A    between atoms: C_2  and  C_3
REMARK    2  A    between atoms: C_3  and  N_4
REMARK    3  A    between atoms: N_4  and  C_5
REMARK    4  A    between atoms: N_4  and  C_8
REMARK    5  A    between atoms: C_5  and  C_6
REMARK    6  A    between atoms: C_8  and  N_10
REMARK    7  A    between atoms: N_10  and  C_11
REMARK    8  A    between atoms: C_15  and  N_16
REMARK                            x       y       z     vdW  Elec       q    Type
REMARK                         _______ _______ _______ _____ _____    ______ ____
ROOT
ATOM      1  N   UNL     1      33.854  -4.096  33.179  0.00  0.00    +0.000 NA
ENDROOT
BRANCH   1   2
ATOM      2  C   UNL     1      33.325  -2.967  33.772  0.00  0.00    +0.000 A 
ATOM      3  C   UNL     1      32.392  -2.947  34.784  0.00  0.00    +0.000 A 
ATOM      4  C   UNL     1      31.904  -1.784  35.332  0.00  0.00    +0.000 A 
ATOM      5  C   UNL     1      32.328  -0.546  34.892  0.00  0.00    +0.000 A 
ATOM      6  C   UNL     1      33.261  -0.538  33.879  0.00  0.00    +0.000 A 
ATOM      7  C   UNL     1      33.750  -1.690  33.331  0.00  0.00    +0.000 A 
BRANCH   6   8
ATOM      8  N   UNL     1      33.743   0.730  33.378  0.00  0.00    +0.000 N 
ATOM      9  O   UNL     1      34.339   0.786  32.289  0.00  0.00    +0.000 OA
ATOM     10  O   UNL     1      33.558   1.892  34.082  0.00  0.00    +0.000 OA
ENDBRANCH   6   8
ENDBRANCH   1   2
BRANCH   1  11
ATOM     11  C   UNL     1      33.527  -5.366  32.866  0.00  0.00    +0.000 C 
ATOM     12  S   UNL     1      33.847  -6.617  33.953  0.00  0.00    +0.000 S 
BRANCH  11  13
ATOM     13  N   UNL     1      32.912  -5.830  31.677  0.00  0.00    +0.000 N 
BRANCH  13  14
ATOM     14  C   UNL     1      33.088  -5.161  30.386  0.00  0.00    +0.000 C 
BRANCH  14  16
ATOM     15  C   UNL     1      33.627  -6.211  28.201  0.00  0.00    +0.000 C 
ATOM     16  C   UNL     1      33.945  -5.914  29.459  0.00  0.00    +0.000 C 
ENDBRANCH  14  16
ENDBRANCH  13  14
BRANCH  13  17
ATOM     17  C   UNL     1      32.062  -7.009  31.630  0.00  0.00    +0.000 C 
BRANCH  17  18
ATOM     18  C   UNL     1      30.656  -6.528  31.711  0.00  0.00    +0.000 C 
ATOM     19  C   UNL     1      29.677  -6.933  30.924  0.00  0.00    +0.000 C 
ENDBRANCH  17  18
ENDBRANCH  13  17
ENDBRANCH  11  13
ENDBRANCH   1  11
TORSDOF 8
ENDMDL
