MODEL 1
REMARK VINA RESULT:      -5.9      0.000      0.000
REMARK  Name = 
REMARK  3 active torsions:
REMARK  status: ('A' for Active; 'I' for Inactive)
REMARK    1  A    between atoms: C_6  and  C_7
REMARK    2  A    between atoms: N_9  and  C_10
REMARK    3  A    between atoms: C_10  and  C_11
REMARK                            x       y       z     vdW  Elec       q    Type
REMARK                         _______ _______ _______ _____ _____    ______ ____
ROOT
ATOM      1  N   UNL     1      25.694  24.529  24.294  0.00  0.00    +0.000 NA
ATOM      2  C   UNL     1      26.851  23.871  24.871  0.00  0.00    +0.000 A 
ATOM      3  S   UNL     1      27.100  23.336  26.469  0.00  0.00    +0.000 S 
ATOM      4  C   UNL     1      28.666  22.698  26.304  0.00  0.00    +0.000 A 
ATOM      5  C   UNL     1      28.963  22.920  24.989  0.00  0.00    +0.000 A 
ATOM      6  C   UNL     1      28.016  23.533  24.240  0.00  0.00    +0.000 A 
ATOM      7  C   UNL     1      30.351  22.420  24.595  0.00  0.00    +0.000 C 
ATOM      8  C   UNL     1      31.292  23.041  25.599  0.00  0.00    +0.000 C 
ATOM      9  C   UNL     1      31.049  22.565  26.996  0.00  0.00    +0.000 C 
ATOM     10  C   UNL     1      29.668  22.018  27.214  0.00  0.00    +0.000 C 
ENDROOT
BRANCH   6  11
ATOM     11  C   UNL     1      28.202  23.839  22.792  0.00  0.00    +0.000 C 
ATOM     12  O   UNL     1      27.536  23.252  21.916  0.00  0.00    +0.000 OA
ATOM     13  N   UNL     1      29.135  24.804  22.342  0.00  0.00    +0.000 NA
BRANCH  13  14
ATOM     14  C   UNL     1      29.374  25.155  20.979  0.00  0.00    +0.000 C 
BRANCH  14  15
ATOM     15  C   UNL     1      29.260  26.630  20.775  0.00  0.00    +0.000 A 
ATOM     16  C   UNL     1      29.940  27.272  19.770  0.00  0.00    +0.000 A 
ATOM     17  C   UNL     1      29.601  28.598  19.885  0.00  0.00    +0.000 A 
ATOM     18  C   UNL     1      28.744  28.678  20.946  0.00  0.00    +0.000 A 
ATOM     19  O   UNL     1      28.571  27.501  21.440  0.00  0.00    +0.000 OA
ENDBRANCH  14  15
ENDBRANCH  13  14
ENDBRANCH   6  11
TORSDOF 3
ENDMDL
MODEL 2
REMARK VINA RESULT:      -5.7      2.610      3.681
REMARK  Name = 
REMARK  3 active torsions:
REMARK  status: ('A' for Active; 'I' for Inactive)
REMARK    1  A    between atoms: C_6  and  C_7
REMARK    2  A    between atoms: N_9  and  C_10
REMARK    3  A    between atoms: C_10  and  C_11
REMARK                            x       y       z     vdW  Elec       q    Type
REMARK                         _______ _______ _______ _____ _____    ______ ____
ROOT
ATOM      1  N   UNL     1      24.720  25.706  25.475  0.00  0.00    +0.000 NA
ATOM      2  C   UNL     1      25.286  25.072  26.650  0.00  0.00    +0.000 A 
ATOM      3  S   UNL     1      25.041  25.440  28.296  0.00  0.00    +0.000 S 
ATOM      4  C   UNL     1      26.043  24.258  28.993  0.00  0.00    +0.000 A 
ATOM      5  C   UNL     1      26.553  23.596  27.912  0.00  0.00    +0.000 A 
ATOM      6  C   UNL     1      26.159  24.020  26.689  0.00  0.00    +0.000 A 
ATOM      7  C   UNL     1      27.502  22.463  28.297  0.00  0.00    +0.000 C 
ATOM      8  C   UNL     1      28.514  23.095  29.222  0.00  0.00    +0.000 C 
ATOM      9  C   UNL     1      27.907  23.593  30.496  0.00  0.00    +0.000 C 
ATOM     10  C   UNL     1      26.431  23.849  30.399  0.00  0.00    +0.000 C 
ENDROOT
BRANCH   6  11
ATOM     11  C   UNL     1      26.633  23.391  25.422  0.00  0.00    +0.000 C 
ATOM     12  O   UNL     1      25.904  22.617  24.772  0.00  0.00    +0.000 OA
ATOM     13  N   UNL     1      27.924  23.641  24.898  0.00  0.00    +0.000 NA
BRANCH  13  14
ATOM     14  C   UNL     1      28.455  23.081  23.696  0.00  0.00    +0.000 C 
BRANCH  14  15
ATOM     15  C   UNL     1      28.700  24.139  22.672  0.00  0.00    +0.000 A 
ATOM     16  C   UNL     1      28.230  25.419  22.834  0.00  0.00    +0.000 A 
ATOM     17  C   UNL     1      28.637  26.105  21.715  0.00  0.00    +0.000 A 
ATOM     18  C   UNL     1      29.322  25.204  20.949  0.00  0.00    +0.000 A 
ATOM     19  O   UNL     1      29.335  24.063  21.547  0.00  0.00    +0.000 OA
ENDBRANCH  14  15
ENDBRANCH  13  14
ENDBRANCH   6  11
TORSDOF 3
ENDMDL
MODEL 3
REMARK VINA RESULT:      -5.6     22.901     25.121
REMARK  Name = 
REMARK  3 active torsions:
REMARK  status: ('A' for Active; 'I' for Inactive)
REMARK    1  A    between atoms: C_6  and  C_7
REMARK    2  A    between atoms: N_9  and  C_10
REMARK    3  A    between atoms: C_10  and  C_11
REMARK                            x       y       z     vdW  Elec       q    Type
REMARK                         _______ _______ _______ _____ _____    ______ ____
ROOT
ATOM      1  N   UNL     1      34.546   3.063  38.382  0.00  0.00    +0.000 NA
ATOM      2  C   UNL     1      34.207   2.330  37.177  0.00  0.00    +0.000 A 
ATOM      3  S   UNL     1      33.985   0.655  36.963  0.00  0.00    +0.000 S 
ATOM      4  C   UNL     1      33.622   0.637  35.303  0.00  0.00    +0.000 A 
ATOM      5  C   UNL     1      33.684   1.955  34.949  0.00  0.00    +0.000 A 
ATOM      6  C   UNL     1      33.990   2.840  35.927  0.00  0.00    +0.000 A 
ATOM      7  C   UNL     1      33.387   2.193  33.470  0.00  0.00    +0.000 C 
ATOM      8  C   UNL     1      34.317   1.265  32.727  0.00  0.00    +0.000 C 
ATOM      9  C   UNL     1      34.033  -0.179  32.991  0.00  0.00    +0.000 C 
ATOM     10  C   UNL     1      33.286  -0.421  34.272  0.00  0.00    +0.000 C 
ENDROOT
BRANCH   6  11
ATOM     11  C   UNL     1      34.091   4.309  35.686  0.00  0.00    +0.000 C 
ATOM     12  O   UNL     1      33.129   5.068  35.910  0.00  0.00    +0.000 OA
ATOM     13  N   UNL     1      35.276   4.909  35.198  0.00  0.00    +0.000 NA
BRANCH  13  14
ATOM     14  C   UNL     1      35.456   6.302  34.941  0.00  0.00    +0.000 C 
BRANCH  14  15
ATOM     15  C   UNL     1      36.298   6.940  35.997  0.00  0.00    +0.000 A 
ATOM     16  C   UNL     1      36.194   8.277  36.289  0.00  0.00    +0.000 A 
ATOM     17  C   UNL     1      37.104   8.507  37.293  0.00  0.00    +0.000 A 
ATOM     18  C   UNL     1      37.698   7.303  37.545  0.00  0.00    +0.000 A 
ATOM     19  O   UNL     1      37.196   6.410  36.762  0.00  0.00    +0.000 OA
ENDBRANCH  14  15
ENDBRANCH  13  14
ENDBRANCH   6  11
TORSDOF 3
ENDMDL
MODEL 4
REMARK VINA RESULT:      -5.4      4.677      6.710
REMARK  Name = 
REMARK  3 active torsions:
REMARK  status: ('A' for Active; 'I' for Inactive)
REMARK    1  A    between atoms: C_6  and  C_7
REMARK    2  A    between atoms: N_9  and  C_10
REMARK    3  A    between atoms: C_10  and  C_11
REMARK                            x       y       z     vdW  Elec       q    Type
REMARK                         _______ _______ _______ _____ _____    ______ ____
ROOT
ATOM      1  N   UNL     1      30.382  22.895  30.453  0.00  0.00    +0.000 NA
ATOM      2  C   UNL     1      30.200  22.751  29.021  0.00  0.00    +0.000 A 
ATOM      3  S   UNL     1      31.371  22.524  27.804  0.00  0.00    +0.000 S 
ATOM      4  C   UNL     1      30.347  22.453  26.450  0.00  0.00    +0.000 A 
ATOM      5  C   UNL     1      29.100  22.611  26.985  0.00  0.00    +0.000 A 
ATOM      6  C   UNL     1      29.022  22.766  28.327  0.00  0.00    +0.000 A 
ATOM      7  C   UNL     1      27.991  22.580  25.936  0.00  0.00    +0.000 C 
ATOM      8  C   UNL     1      28.399  23.601  24.901  0.00  0.00    +0.000 C 
ATOM      9  C   UNL     1      29.665  23.236  24.192  0.00  0.00    +0.000 C 
ATOM     10  C   UNL     1      30.527  22.273  24.956  0.00  0.00    +0.000 C 
ENDROOT
BRANCH   6  11
ATOM     11  C   UNL     1      27.728  22.947  29.047  0.00  0.00    +0.000 C 
ATOM     12  O   UNL     1      27.134  21.980  29.562  0.00  0.00    +0.000 OA
ATOM     13  N   UNL     1      27.116  24.217  29.183  0.00  0.00    +0.000 NA
BRANCH  13  14
ATOM     14  C   UNL     1      25.883  24.476  29.854  0.00  0.00    +0.000 C 
BRANCH  14  15
ATOM     15  C   UNL     1      24.946  25.245  28.981  0.00  0.00    +0.000 A 
ATOM     16  C   UNL     1      24.892  25.037  27.625  0.00  0.00    +0.000 A 
ATOM     17  C   UNL     1      23.935  25.905  27.157  0.00  0.00    +0.000 A 
ATOM     18  C   UNL     1      23.474  26.581  28.251  0.00  0.00    +0.000 A 
ATOM     19  O   UNL     1      24.094  26.164  29.300  0.00  0.00    +0.000 OA
ENDBRANCH  14  15
ENDBRANCH  13  14
ENDBRANCH   6  11
TORSDOF 3
ENDMDL
MODEL 5
REMARK VINA RESULT:      -5.4      2.082      3.202
REMARK  Name = 
REMARK  3 active torsions:
REMARK  status: ('A' for Active; 'I' for Inactive)
REMARK    1  A    between atoms: C_6  and  C_7
REMARK    2  A    between atoms: N_9  and  C_10
REMARK    3  A    between atoms: C_10  and  C_11
REMARK                            x       y       z     vdW  Elec       q    Type
REMARK                         _______ _______ _______ _____ _____    ______ ____
ROOT
ATOM      1  N   UNL     1      26.034  23.487  28.693  0.00  0.00    +0.000 NA
ATOM      2  C   UNL     1      27.435  23.203  28.449  0.00  0.00    +0.000 A 
ATOM      3  S   UNL     1      28.681  22.888  29.568  0.00  0.00    +0.000 S 
ATOM      4  C   UNL     1      29.972  22.666  28.486  0.00  0.00    +0.000 A 
ATOM      5  C   UNL     1      29.394  22.845  27.261  0.00  0.00    +0.000 A 
ATOM      6  C   UNL     1      28.070  23.126  27.241  0.00  0.00    +0.000 A 
ATOM      7  C   UNL     1      30.380  22.690  26.105  0.00  0.00    +0.000 C 
ATOM      8  C   UNL     1      31.525  23.616  26.437  0.00  0.00    +0.000 C 
ATOM      9  C   UNL     1      32.257  23.215  27.679  0.00  0.00    +0.000 C 
ATOM     10  C   UNL     1      31.448  22.349  28.601  0.00  0.00    +0.000 C 
ENDROOT
BRANCH   6  11
ATOM     11  C   UNL     1      27.308  23.344  25.977  0.00  0.00    +0.000 C 
ATOM     12  O   UNL     1      26.579  22.453  25.498  0.00  0.00    +0.000 OA
ATOM     13  N   UNL     1      27.372  24.566  25.264  0.00  0.00    +0.000 NA
BRANCH  13  14
ATOM     14  C   UNL     1      26.677  24.856  24.051  0.00  0.00    +0.000 C 
BRANCH  14  15
ATOM     15  C   UNL     1      27.627  25.000  22.907  0.00  0.00    +0.000 A 
ATOM     16  C   UNL     1      28.647  24.105  22.703  0.00  0.00    +0.000 A 
ATOM     17  C   UNL     1      29.305  24.545  21.580  0.00  0.00    +0.000 A 
ATOM     18  C   UNL     1      28.647  25.673  21.177  0.00  0.00    +0.000 A 
ATOM     19  O   UNL     1      27.669  25.904  21.984  0.00  0.00    +0.000 OA
ENDBRANCH  14  15
ENDBRANCH  13  14
ENDBRANCH   6  11
TORSDOF 3
ENDMDL
MODEL 6
REMARK VINA RESULT:      -5.4      2.070      3.226
REMARK  Name = 
REMARK  3 active torsions:
REMARK  status: ('A' for Active; 'I' for Inactive)
REMARK    1  A    between atoms: C_6  and  C_7
REMARK    2  A    between atoms: N_9  and  C_10
REMARK    3  A    between atoms: C_10  and  C_11
REMARK                            x       y       z     vdW  Elec       q    Type
REMARK                         _______ _______ _______ _____ _____    ______ ____
ROOT
ATOM      1  N   UNL     1      30.530  22.208  25.077  0.00  0.00    +0.000 NA
ATOM      2  C   UNL     1      29.517  22.932  25.820  0.00  0.00    +0.000 A 
ATOM      3  S   UNL     1      29.422  23.238  27.494  0.00  0.00    +0.000 S 
ATOM      4  C   UNL     1      27.972  24.122  27.529  0.00  0.00    +0.000 A 
ATOM      5  C   UNL     1      27.590  24.159  26.218  0.00  0.00    +0.000 A 
ATOM      6  C   UNL     1      28.396  23.538  25.325  0.00  0.00    +0.000 A 
ATOM      7  C   UNL     1      26.284  24.918  25.995  0.00  0.00    +0.000 C 
ATOM      8  C   UNL     1      25.298  24.295  26.954  0.00  0.00    +0.000 C 
ATOM      9  C   UNL     1      25.670  24.500  28.388  0.00  0.00    +0.000 C 
ATOM     10  C   UNL     1      27.128  24.791  28.595  0.00  0.00    +0.000 C 
ENDROOT
BRANCH   6  11
ATOM     11  C   UNL     1      28.105  23.498  23.862  0.00  0.00    +0.000 C 
ATOM     12  O   UNL     1      27.101  22.908  23.418  0.00  0.00    +0.000 OA
ATOM     13  N   UNL     1      28.947  24.125  22.913  0.00  0.00    +0.000 NA
BRANCH  13  14
ATOM     14  C   UNL     1      28.741  24.135  21.500  0.00  0.00    +0.000 C 
BRANCH  14  15
ATOM     15  C   UNL     1      29.167  25.436  20.902  0.00  0.00    +0.000 A 
ATOM     16  C   UNL     1      28.875  26.634  21.505  0.00  0.00    +0.000 A 
ATOM     17  C   UNL     1      29.413  27.598  20.688  0.00  0.00    +0.000 A 
ATOM     18  C   UNL     1      29.993  26.929  19.647  0.00  0.00    +0.000 A 
ATOM     19  O   UNL     1      29.825  25.662  19.812  0.00  0.00    +0.000 OA
ENDBRANCH  14  15
ENDBRANCH  13  14
ENDBRANCH   6  11
TORSDOF 3
ENDMDL
MODEL 7
REMARK VINA RESULT:      -5.4     29.236     31.924
REMARK  Name = 
REMARK  3 active torsions:
REMARK  status: ('A' for Active; 'I' for Inactive)
REMARK    1  A    between atoms: C_6  and  C_7
REMARK    2  A    between atoms: N_9  and  C_10
REMARK    3  A    between atoms: C_10  and  C_11
REMARK                            x       y       z     vdW  Elec       q    Type
REMARK                         _______ _______ _______ _____ _____    ______ ____
ROOT
ATOM      1  N   UNL     1      32.923  -8.814  34.189  0.00  0.00    +0.000 NA
ATOM      2  C   UNL     1      33.032  -8.340  32.822  0.00  0.00    +0.000 A 
ATOM      3  S   UNL     1      33.736  -9.104  31.471  0.00  0.00    +0.000 S 
ATOM      4  C   UNL     1      33.447  -7.908  30.299  0.00  0.00    +0.000 A 
ATOM      5  C   UNL     1      32.800  -6.928  30.998  0.00  0.00    +0.000 A 
ATOM      6  C   UNL     1      32.584  -7.152  32.315  0.00  0.00    +0.000 A 
ATOM      7  C   UNL     1      32.430  -5.723  30.136  0.00  0.00    +0.000 C 
ATOM      8  C   UNL     1      33.716  -5.313  29.459  0.00  0.00    +0.000 C 
ATOM      9  C   UNL     1      34.241  -6.358  28.526  0.00  0.00    +0.000 C 
ATOM     10  C   UNL     1      33.731  -7.739  28.821  0.00  0.00    +0.000 C 
ENDROOT
BRANCH   6  11
ATOM     11  C   UNL     1      31.890  -6.172  33.200  0.00  0.00    +0.000 C 
ATOM     12  O   UNL     1      30.660  -6.234  33.395  0.00  0.00    +0.000 OA
ATOM     13  N   UNL     1      32.587  -5.132  33.859  0.00  0.00    +0.000 NA
BRANCH  13  14
ATOM     14  C   UNL     1      32.001  -4.155  34.720  0.00  0.00    +0.000 C 
BRANCH  14  15
ATOM     15  C   UNL     1      32.549  -2.794  34.442  0.00  0.00    +0.000 A 
ATOM     16  C   UNL     1      33.542  -2.594  33.516  0.00  0.00    +0.000 A 
ATOM     17  C   UNL     1      33.790  -1.243  33.528  0.00  0.00    +0.000 A 
ATOM     18  C   UNL     1      32.938  -0.712  34.455  0.00  0.00    +0.000 A 
ATOM     19  O   UNL     1      32.228  -1.656  34.968  0.00  0.00    +0.000 OA
ENDBRANCH  14  15
ENDBRANCH  13  14
ENDBRANCH   6  11
TORSDOF 3
ENDMDL
MODEL 8
REMARK VINA RESULT:      -5.4      5.467      8.447
REMARK  Name = 
REMARK  3 active torsions:
REMARK  status: ('A' for Active; 'I' for Inactive)
REMARK    1  A    between atoms: C_6  and  C_7
REMARK    2  A    between atoms: N_9  and  C_10
REMARK    3  A    between atoms: C_10  and  C_11
REMARK                            x       y       z     vdW  Elec       q    Type
REMARK                         _______ _______ _______ _____ _____    ______ ____
ROOT
ATOM      1  N   UNL     1      26.042  23.785  30.858  0.00  0.00    +0.000 NA
ATOM      2  C   UNL     1      26.755  23.739  29.596  0.00  0.00    +0.000 A 
ATOM      3  S   UNL     1      26.144  23.849  28.009  0.00  0.00    +0.000 S 
ATOM      4  C   UNL     1      27.601  23.710  27.144  0.00  0.00    +0.000 A 
ATOM      5  C   UNL     1      28.542  23.580  28.126  0.00  0.00    +0.000 A 
ATOM      6  C   UNL     1      28.102  23.594  29.406  0.00  0.00    +0.000 A 
ATOM      7  C   UNL     1      29.961  23.437  27.580  0.00  0.00    +0.000 C 
ATOM      8  C   UNL     1      29.887  22.308  26.581  0.00  0.00    +0.000 C 
ATOM      9  C   UNL     1      29.010  22.623  25.410  0.00  0.00    +0.000 C 
ATOM     10  C   UNL     1      28.005  23.704  25.685  0.00  0.00    +0.000 C 
ENDROOT
BRANCH   6  11
ATOM     11  C   UNL     1      29.015  23.462  30.578  0.00  0.00    +0.000 C 
ATOM     12  O   UNL     1      29.414  24.464  31.203  0.00  0.00    +0.000 OA
ATOM     13  N   UNL     1      29.472  22.203  31.035  0.00  0.00    +0.000 NA
BRANCH  13  14
ATOM     14  C   UNL     1      30.345  21.990  32.145  0.00  0.00    +0.000 C 
BRANCH  14  15
ATOM     15  C   UNL     1      31.722  21.641  31.687  0.00  0.00    +0.000 A 
ATOM     16  C   UNL     1      32.095  21.760  30.371  0.00  0.00    +0.000 A 
ATOM     17  C   UNL     1      33.407  21.358  30.322  0.00  0.00    +0.000 A 
ATOM     18  C   UNL     1      33.746  21.021  31.601  0.00  0.00    +0.000 A 
ATOM     19  O   UNL     1      32.729  21.201  32.371  0.00  0.00    +0.000 OA
ENDBRANCH  14  15
ENDBRANCH  13  14
ENDBRANCH   6  11
TORSDOF 3
ENDMDL
MODEL 9
REMARK VINA RESULT:      -5.3     16.424     18.818
REMARK  Name = 
REMARK  3 active torsions:
REMARK  status: ('A' for Active; 'I' for Inactive)
REMARK    1  A    between atoms: C_6  and  C_7
REMARK    2  A    between atoms: N_9  and  C_10
REMARK    3  A    between atoms: C_10  and  C_11
REMARK                            x       y       z     vdW  Elec       q    Type
REMARK                         _______ _______ _______ _____ _____    ______ ____
ROOT
ATOM      1  N   UNL     1       8.883  20.889  22.057  0.00  0.00    +0.000 NA
ATOM      2  C   UNL     1      10.167  21.381  21.594  0.00  0.00    +0.000 A 
ATOM      3  S   UNL     1      11.343  20.594  20.646  0.00  0.00    +0.000 S 
ATOM      4  C   UNL     1      12.503  21.834  20.564  0.00  0.00    +0.000 A 
ATOM      5  C   UNL     1      11.938  22.846  21.287  0.00  0.00    +0.000 A 
ATOM      6  C   UNL     1      10.718  22.610  21.826  0.00  0.00    +0.000 A 
ATOM      7  C   UNL     1      12.814  24.095  21.356  0.00  0.00    +0.000 C 
ATOM      8  C   UNL     1      14.158  23.606  21.840  0.00  0.00    +0.000 C 
ATOM      9  C   UNL     1      14.821  22.674  20.876  0.00  0.00    +0.000 C 
ATOM     10  C   UNL     1      13.865  22.011  19.926  0.00  0.00    +0.000 C 
ENDROOT
BRANCH   6  11
ATOM     11  C   UNL     1       9.983  23.623  22.637  0.00  0.00    +0.000 C 
ATOM     12  O   UNL     1       9.027  24.265  22.159  0.00  0.00    +0.000 OA
ATOM     13  N   UNL     1      10.329  23.903  23.981  0.00  0.00    +0.000 NA
BRANCH  13  14
ATOM     14  C   UNL     1       9.679  24.853  24.825  0.00  0.00    +0.000 C 
BRANCH  14  15
ATOM     15  C   UNL     1       9.491  24.310  26.204  0.00  0.00    +0.000 A 
ATOM     16  C   UNL     1      10.545  24.174  27.073  0.00  0.00    +0.000 A 
ATOM     17  C   UNL     1      10.008  23.652  28.225  0.00  0.00    +0.000 A 
ATOM     18  C   UNL     1       8.671  23.504  27.983  0.00  0.00    +0.000 A 
ATOM     19  O   UNL     1       8.411  23.901  26.785  0.00  0.00    +0.000 OA
ENDBRANCH  14  15
ENDBRANCH  13  14
ENDBRANCH   6  11
TORSDOF 3
ENDMDL
MODEL 10
REMARK VINA RESULT:      -5.3      4.232      7.224
REMARK  Name = 
REMARK  3 active torsions:
REMARK  status: ('A' for Active; 'I' for Inactive)
REMARK    1  A    between atoms: C_6  and  C_7
REMARK    2  A    between atoms: N_9  and  C_10
REMARK    3  A    between atoms: C_10  and  C_11
REMARK                            x       y       z     vdW  Elec       q    Type
REMARK                         _______ _______ _______ _____ _____    ______ ____
ROOT
ATOM      1  N   UNL     1      31.801  23.516  24.077  0.00  0.00    +0.000 NA
ATOM      2  C   UNL     1      30.360  23.401  24.202  0.00  0.00    +0.000 A 
ATOM      3  S   UNL     1      29.148  23.754  23.058  0.00  0.00    +0.000 S 
ATOM      4  C   UNL     1      27.777  23.355  23.979  0.00  0.00    +0.000 A 
ATOM      5  C   UNL     1      28.303  22.950  25.173  0.00  0.00    +0.000 A 
ATOM      6  C   UNL     1      29.651  22.974  25.291  0.00  0.00    +0.000 A 
ATOM      7  C   UNL     1      27.239  22.533  26.186  0.00  0.00    +0.000 C 
ATOM      8  C   UNL     1      26.276  23.695  26.247  0.00  0.00    +0.000 C 
ATOM      9  C   UNL     1      25.564  23.930  24.953  0.00  0.00    +0.000 C 
ATOM     10  C   UNL     1      26.278  23.361  23.761  0.00  0.00    +0.000 C 
ENDROOT
BRANCH   6  11
ATOM     11  C   UNL     1      30.363  22.559  26.535  0.00  0.00    +0.000 C 
ATOM     12  O   UNL     1      30.545  21.356  26.805  0.00  0.00    +0.000 OA
ATOM     13  N   UNL     1      30.864  23.504  27.463  0.00  0.00    +0.000 NA
BRANCH  13  14
ATOM     14  C   UNL     1      31.554  23.192  28.674  0.00  0.00    +0.000 C 
BRANCH  14  15
ATOM     15  C   UNL     1      30.595  22.846  29.766  0.00  0.00    +0.000 A 
ATOM     16  C   UNL     1      31.030  22.418  30.995  0.00  0.00    +0.000 A 
ATOM     17  C   UNL     1      29.892  22.197  31.732  0.00  0.00    +0.000 A 
ATOM     18  C   UNL     1      28.845  22.502  30.909  0.00  0.00    +0.000 A 
ATOM     19  O   UNL     1      29.302  22.878  29.764  0.00  0.00    +0.000 OA
ENDBRANCH  14  15
ENDBRANCH  13  14
ENDBRANCH   6  11
TORSDOF 3
ENDMDL
