MODEL 1
REMARK VINA RESULT:      -7.4      0.000      0.000
REMARK  Name = 
REMARK  2 active torsions:
REMARK  status: ('A' for Active; 'I' for Inactive)
REMARK    1  A    between atoms: C_2  and  C_3
REMARK    2  A    between atoms: C_6  and  C_7
REMARK                            x       y       z     vdW  Elec       q    Type
REMARK                         _______ _______ _______ _____ _____    ______ ____
ROOT
ATOM      1  C   UNL     1      17.218  10.941  36.136  0.00  0.00    +0.000 C 
ATOM      2  C   UNL     1      16.751  10.633  37.310  0.00  0.00    +0.000 C 
ATOM      3  C   UNL     1      17.542  10.153  38.473  0.00  0.00    +0.000 C 
ATOM      4  O   UNL     1      18.778   9.973  38.431  0.00  0.00    +0.000 OA
ATOM      5  N   UNL     1      16.603   9.979  39.516  0.00  0.00    +0.000 NA
ATOM      6  C   UNL     1      15.305  10.323  39.055  0.00  0.00    +0.000 A 
ATOM      7  C   UNL     1      14.113  10.304  39.737  0.00  0.00    +0.000 A 
ATOM      8  C   UNL     1      12.950  10.683  39.112  0.00  0.00    +0.000 A 
ATOM      9  C   UNL     1      13.017  11.082  37.780  0.00  0.00    +0.000 A 
ATOM     10 CL   UNL     1      11.485  11.552  37.052  0.00  0.00    +0.000 Cl
ATOM     11  C   UNL     1      14.196  11.106  37.087  0.00  0.00    +0.000 A 
ATOM     12  C   UNL     1      15.365  10.721  37.727  0.00  0.00    +0.000 A 
ENDROOT
BRANCH   1  16
ATOM     13  C   UNL     1      15.012  12.044  32.684  0.00  0.00    +0.000 A 
ATOM     14  C   UNL     1      14.920  12.788  33.814  0.00  0.00    +0.000 A 
ATOM     15  C   UNL     1      15.609  12.478  34.954  0.00  0.00    +0.000 A 
ATOM     16  C   UNL     1      16.440  11.396  35.037  0.00  0.00    +0.000 A 
ATOM     17  C   UNL     1      16.531  10.629  33.864  0.00  0.00    +0.000 A 
ATOM     18  C   UNL     1      15.848  10.929  32.714  0.00  0.00    +0.000 A 
BRANCH  13  20
ATOM     19  C   UNL     1      13.681  13.684  31.361  0.00  0.00    +0.000 C 
ATOM     20  C   UNL     1      14.303  12.314  31.420  0.00  0.00    +0.000 C 
ENDBRANCH  13  20
ENDBRANCH   1  16
TORSDOF 2
ENDMDL
MODEL 2
REMARK VINA RESULT:      -7.3     20.073     21.998
REMARK  Name = 
REMARK  2 active torsions:
REMARK  status: ('A' for Active; 'I' for Inactive)
REMARK    1  A    between atoms: C_2  and  C_3
REMARK    2  A    between atoms: C_6  and  C_7
REMARK                            x       y       z     vdW  Elec       q    Type
REMARK                         _______ _______ _______ _____ _____    ______ ____
ROOT
ATOM      1  C   UNL     1      30.298  23.335  24.049  0.00  0.00    +0.000 C 
ATOM      2  C   UNL     1      29.089  23.640  23.683  0.00  0.00    +0.000 C 
ATOM      3  C   UNL     1      28.635  23.928  22.298  0.00  0.00    +0.000 C 
ATOM      4  O   UNL     1      29.403  23.922  21.312  0.00  0.00    +0.000 OA
ATOM      5  N   UNL     1      27.247  24.179  22.406  0.00  0.00    +0.000 NA
ATOM      6  C   UNL     1      26.841  24.061  23.761  0.00  0.00    +0.000 A 
ATOM      7  C   UNL     1      25.591  24.218  24.305  0.00  0.00    +0.000 A 
ATOM      8  C   UNL     1      25.396  24.055  25.656  0.00  0.00    +0.000 A 
ATOM      9  C   UNL     1      26.494  23.728  26.445  0.00  0.00    +0.000 A 
ATOM     10 CL   UNL     1      26.162  23.536  28.163  0.00  0.00    +0.000 Cl
ATOM     11  C   UNL     1      27.747  23.569  25.919  0.00  0.00    +0.000 A 
ATOM     12  C   UNL     1      27.933  23.736  24.554  0.00  0.00    +0.000 A 
ENDROOT
BRANCH   1  16
ATOM     13  C   UNL     1      31.684  22.820  28.026  0.00  0.00    +0.000 A 
ATOM     14  C   UNL     1      30.908  21.869  27.450  0.00  0.00    +0.000 A 
ATOM     15  C   UNL     1      30.435  21.984  26.172  0.00  0.00    +0.000 A 
ATOM     16  C   UNL     1      30.710  23.066  25.383  0.00  0.00    +0.000 A 
ATOM     17  C   UNL     1      31.514  24.048  25.984  0.00  0.00    +0.000 A 
ATOM     18  C   UNL     1      31.996  23.945  27.263  0.00  0.00    +0.000 A 
BRANCH  13  20
ATOM     19  C   UNL     1      32.965  21.489  29.699  0.00  0.00    +0.000 C 
ATOM     20  C   UNL     1      32.231  22.768  29.394  0.00  0.00    +0.000 C 
ENDBRANCH  13  20
ENDBRANCH   1  16
TORSDOF 2
ENDMDL
MODEL 3
REMARK VINA RESULT:      -7.3     21.492     23.254
REMARK  Name = 
REMARK  2 active torsions:
REMARK  status: ('A' for Active; 'I' for Inactive)
REMARK    1  A    between atoms: C_2  and  C_3
REMARK    2  A    between atoms: C_6  and  C_7
REMARK                            x       y       z     vdW  Elec       q    Type
REMARK                         _______ _______ _______ _____ _____    ______ ____
ROOT
ATOM      1  C   UNL     1      25.955   4.904  18.641  0.00  0.00    +0.000 C 
ATOM      2  C   UNL     1      26.473   5.678  17.734  0.00  0.00    +0.000 C 
ATOM      3  C   UNL     1      27.461   6.764  17.965  0.00  0.00    +0.000 C 
ATOM      4  O   UNL     1      27.895   7.064  19.098  0.00  0.00    +0.000 OA
ATOM      5  N   UNL     1      27.736   7.295  16.683  0.00  0.00    +0.000 NA
ATOM      6  C   UNL     1      26.979   6.601  15.703  0.00  0.00    +0.000 A 
ATOM      7  C   UNL     1      26.947   6.789  14.343  0.00  0.00    +0.000 A 
ATOM      8  C   UNL     1      26.144   6.001  13.553  0.00  0.00    +0.000 A 
ATOM      9  C   UNL     1      25.375   5.018  14.167  0.00  0.00    +0.000 A 
ATOM     10 CL   UNL     1      24.375   4.053  13.087  0.00  0.00    +0.000 Cl
ATOM     11  C   UNL     1      25.395   4.819  15.520  0.00  0.00    +0.000 A 
ATOM     12  C   UNL     1      26.208   5.619  16.310  0.00  0.00    +0.000 A 
ENDROOT
BRANCH   1  16
ATOM     13  C   UNL     1      22.893   2.048  17.956  0.00  0.00    +0.000 A 
ATOM     14  C   UNL     1      24.195   1.675  17.893  0.00  0.00    +0.000 A 
ATOM     15  C   UNL     1      25.221   2.554  18.106  0.00  0.00    +0.000 A 
ATOM     16  C   UNL     1      25.008   3.872  18.397  0.00  0.00    +0.000 A 
ATOM     17  C   UNL     1      23.658   4.254  18.461  0.00  0.00    +0.000 A 
ATOM     18  C   UNL     1      22.620   3.383  18.251  0.00  0.00    +0.000 A 
BRANCH  13  20
ATOM     19  C   UNL     1      20.420   1.893  17.691  0.00  0.00    +0.000 C 
ATOM     20  C   UNL     1      21.735   1.161  17.740  0.00  0.00    +0.000 C 
ENDBRANCH  13  20
ENDBRANCH   1  16
TORSDOF 2
ENDMDL
MODEL 4
REMARK VINA RESULT:      -7.1     19.596     21.902
REMARK  Name = 
REMARK  2 active torsions:
REMARK  status: ('A' for Active; 'I' for Inactive)
REMARK    1  A    between atoms: C_2  and  C_3
REMARK    2  A    between atoms: C_6  and  C_7
REMARK                            x       y       z     vdW  Elec       q    Type
REMARK                         _______ _______ _______ _____ _____    ______ ____
ROOT
ATOM      1  C   UNL     1      26.174  23.215  24.332  0.00  0.00    +0.000 C 
ATOM      2  C   UNL     1      26.804  23.965  23.477  0.00  0.00    +0.000 C 
ATOM      3  C   UNL     1      26.619  23.963  22.002  0.00  0.00    +0.000 C 
ATOM      4  O   UNL     1      25.823  23.201  21.414  0.00  0.00    +0.000 OA
ATOM      5  N   UNL     1      27.500  24.957  21.516  0.00  0.00    +0.000 NA
ATOM      6  C   UNL     1      28.198  25.552  22.599  0.00  0.00    +0.000 A 
ATOM      7  C   UNL     1      29.137  26.553  22.576  0.00  0.00    +0.000 A 
ATOM      8  C   UNL     1      29.701  27.003  23.746  0.00  0.00    +0.000 A 
ATOM      9  C   UNL     1      29.295  26.418  24.941  0.00  0.00    +0.000 A 
ATOM     10 CL   UNL     1      30.063  27.049  26.394  0.00  0.00    +0.000 Cl
ATOM     11  C   UNL     1      28.360  25.419  24.982  0.00  0.00    +0.000 A 
ATOM     12  C   UNL     1      27.797  24.972  23.795  0.00  0.00    +0.000 A 
ENDROOT
BRANCH   1  16
ATOM     13  C   UNL     1      27.009  23.060  28.489  0.00  0.00    +0.000 A 
ATOM     14  C   UNL     1      25.992  23.830  28.030  0.00  0.00    +0.000 A 
ATOM     15  C   UNL     1      25.679  23.916  26.701  0.00  0.00    +0.000 A 
ATOM     16  C   UNL     1      26.369  23.232  25.740  0.00  0.00    +0.000 A 
ATOM     17  C   UNL     1      27.422  22.437  26.220  0.00  0.00    +0.000 A 
ATOM     18  C   UNL     1      27.746  22.340  27.549  0.00  0.00    +0.000 A 
BRANCH  13  20
ATOM     19  C   UNL     1      26.756  21.744  30.590  0.00  0.00    +0.000 C 
ATOM     20  C   UNL     1      27.405  22.915  29.901  0.00  0.00    +0.000 C 
ENDBRANCH  13  20
ENDBRANCH   1  16
TORSDOF 2
ENDMDL
MODEL 5
REMARK VINA RESULT:      -7.1     21.210     22.923
REMARK  Name = 
REMARK  2 active torsions:
REMARK  status: ('A' for Active; 'I' for Inactive)
REMARK    1  A    between atoms: C_2  and  C_3
REMARK    2  A    between atoms: C_6  and  C_7
REMARK                            x       y       z     vdW  Elec       q    Type
REMARK                         _______ _______ _______ _____ _____    ______ ____
ROOT
ATOM      1  C   UNL     1      17.781  -7.230  27.443  0.00  0.00    +0.000 C 
ATOM      2  C   UNL     1      18.743  -6.727  26.727  0.00  0.00    +0.000 C 
ATOM      3  C   UNL     1      18.886  -5.305  26.321  0.00  0.00    +0.000 C 
ATOM      4  O   UNL     1      18.056  -4.421  26.624  0.00  0.00    +0.000 OA
ATOM      5  N   UNL     1      20.091  -5.248  25.582  0.00  0.00    +0.000 NA
ATOM      6  C   UNL     1      20.676  -6.540  25.519  0.00  0.00    +0.000 A 
ATOM      7  C   UNL     1      21.842  -6.931  24.909  0.00  0.00    +0.000 A 
ATOM      8  C   UNL     1      22.249  -8.242  24.965  0.00  0.00    +0.000 A 
ATOM      9  C   UNL     1      21.451  -9.151  25.652  0.00  0.00    +0.000 A 
ATOM     10 CL   UNL     1      22.040 -10.810  25.678  0.00  0.00    +0.000 Cl
ATOM     11  C   UNL     1      20.286  -8.778  26.265  0.00  0.00    +0.000 A 
ATOM     12  C   UNL     1      19.884  -7.452  26.203  0.00  0.00    +0.000 A 
ENDROOT
BRANCH   1  16
ATOM     13  C   UNL     1      17.599 -11.234  28.833  0.00  0.00    +0.000 A 
ATOM     14  C   UNL     1      17.011 -10.897  27.658  0.00  0.00    +0.000 A 
ATOM     15  C   UNL     1      17.040  -9.622  27.163  0.00  0.00    +0.000 A 
ATOM     16  C   UNL     1      17.663  -8.596  27.818  0.00  0.00    +0.000 A 
ATOM     17  C   UNL     1      18.269  -8.951  29.034  0.00  0.00    +0.000 A 
ATOM     18  C   UNL     1      18.249 -10.224  29.540  0.00  0.00    +0.000 A 
BRANCH  13  20
ATOM     19  C   UNL     1      18.273 -12.635  30.780  0.00  0.00    +0.000 C 
ATOM     20  C   UNL     1      17.610 -12.582  29.429  0.00  0.00    +0.000 C 
ENDBRANCH  13  20
ENDBRANCH   1  16
TORSDOF 2
ENDMDL
MODEL 6
REMARK VINA RESULT:      -7.0     19.287     21.402
REMARK  Name = 
REMARK  2 active torsions:
REMARK  status: ('A' for Active; 'I' for Inactive)
REMARK    1  A    between atoms: C_2  and  C_3
REMARK    2  A    between atoms: C_6  and  C_7
REMARK                            x       y       z     vdW  Elec       q    Type
REMARK                         _______ _______ _______ _____ _____    ______ ____
ROOT
ATOM      1  C   UNL     1      25.578  23.423  25.082  0.00  0.00    +0.000 C 
ATOM      2  C   UNL     1      26.484  23.564  24.161  0.00  0.00    +0.000 C 
ATOM      3  C   UNL     1      26.333  23.232  22.720  0.00  0.00    +0.000 C 
ATOM      4  O   UNL     1      25.287  22.750  22.236  0.00  0.00    +0.000 OA
ATOM      5  N   UNL     1      27.569  23.580  22.127  0.00  0.00    +0.000 NA
ATOM      6  C   UNL     1      28.447  24.097  23.114  0.00  0.00    +0.000 A 
ATOM      7  C   UNL     1      29.734  24.555  22.972  0.00  0.00    +0.000 A 
ATOM      8  C   UNL     1      30.427  25.028  24.060  0.00  0.00    +0.000 A 
ATOM      9  C   UNL     1      29.791  25.029  25.297  0.00  0.00    +0.000 A 
ATOM     10 CL   UNL     1      30.744  25.649  26.640  0.00  0.00    +0.000 Cl
ATOM     11  C   UNL     1      28.510  24.575  25.457  0.00  0.00    +0.000 A 
ATOM     12  C   UNL     1      27.819  24.100  24.352  0.00  0.00    +0.000 A 
ENDROOT
BRANCH   1  16
ATOM     13  C   UNL     1      25.879  24.639  29.136  0.00  0.00    +0.000 A 
ATOM     14  C   UNL     1      26.548  23.542  28.706  0.00  0.00    +0.000 A 
ATOM     15  C   UNL     1      26.487  23.105  27.411  0.00  0.00    +0.000 A 
ATOM     16  C   UNL     1      25.746  23.746  26.456  0.00  0.00    +0.000 A 
ATOM     17  C   UNL     1      25.055  24.881  26.907  0.00  0.00    +0.000 A 
ATOM     18  C   UNL     1      25.108  25.330  28.201  0.00  0.00    +0.000 A 
BRANCH  13  20
ATOM     19  C   UNL     1      24.700  26.025  30.839  0.00  0.00    +0.000 C 
ATOM     20  C   UNL     1      25.896  25.170  30.511  0.00  0.00    +0.000 C 
ENDBRANCH  13  20
ENDBRANCH   1  16
TORSDOF 2
ENDMDL
MODEL 7
REMARK VINA RESULT:      -6.9     19.292     20.567
REMARK  Name = 
REMARK  2 active torsions:
REMARK  status: ('A' for Active; 'I' for Inactive)
REMARK    1  A    between atoms: C_2  and  C_3
REMARK    2  A    between atoms: C_6  and  C_7
REMARK                            x       y       z     vdW  Elec       q    Type
REMARK                         _______ _______ _______ _____ _____    ______ ____
ROOT
ATOM      1  C   UNL     1      31.142  22.788  27.744  0.00  0.00    +0.000 C 
ATOM      2  C   UNL     1      30.357  22.710  28.777  0.00  0.00    +0.000 C 
ATOM      3  C   UNL     1      30.762  22.366  30.165  0.00  0.00    +0.000 C 
ATOM      4  O   UNL     1      31.938  22.088  30.485  0.00  0.00    +0.000 OA
ATOM      5  N   UNL     1      29.573  22.434  30.927  0.00  0.00    +0.000 NA
ATOM      6  C   UNL     1      28.485  22.797  30.090  0.00  0.00    +0.000 A 
ATOM      7  C   UNL     1      27.165  22.979  30.418  0.00  0.00    +0.000 A 
ATOM      8  C   UNL     1      26.253  23.339  29.455  0.00  0.00    +0.000 A 
ATOM      9  C   UNL     1      26.706  23.511  28.150  0.00  0.00    +0.000 A 
ATOM     10 CL   UNL     1      25.478  23.972  26.976  0.00  0.00    +0.000 Cl
ATOM     11  C   UNL     1      28.018  23.333  27.806  0.00  0.00    +0.000 A 
ATOM     12  C   UNL     1      28.930  22.969  28.786  0.00  0.00    +0.000 A 
ENDROOT
BRANCH   1  16
ATOM     13  C   UNL     1      30.007  24.079  23.865  0.00  0.00    +0.000 A 
ATOM     14  C   UNL     1      29.864  22.777  24.215  0.00  0.00    +0.000 A 
ATOM     15  C   UNL     1      30.213  22.307  25.451  0.00  0.00    +0.000 A 
ATOM     16  C   UNL     1      30.732  23.117  26.423  0.00  0.00    +0.000 A 
ATOM     17  C   UNL     1      30.878  24.464  26.055  0.00  0.00    +0.000 A 
ATOM     18  C   UNL     1      30.531  24.949  24.821  0.00  0.00    +0.000 A 
BRANCH  13  20
ATOM     19  C   UNL     1      28.524  23.941  21.867  0.00  0.00    +0.000 C 
ATOM     20  C   UNL     1      29.654  24.659  22.557  0.00  0.00    +0.000 C 
ENDBRANCH  13  20
ENDBRANCH   1  16
TORSDOF 2
ENDMDL
MODEL 8
REMARK VINA RESULT:      -6.9     21.965     23.479
REMARK  Name = 
REMARK  2 active torsions:
REMARK  status: ('A' for Active; 'I' for Inactive)
REMARK    1  A    between atoms: C_2  and  C_3
REMARK    2  A    between atoms: C_6  and  C_7
REMARK                            x       y       z     vdW  Elec       q    Type
REMARK                         _______ _______ _______ _____ _____    ______ ____
ROOT
ATOM      1  C   UNL     1      23.524   2.993  17.709  0.00  0.00    +0.000 C 
ATOM      2  C   UNL     1      23.692   1.708  17.604  0.00  0.00    +0.000 C 
ATOM      3  C   UNL     1      22.637   0.670  17.735  0.00  0.00    +0.000 C 
ATOM      4  O   UNL     1      21.442   0.937  17.986  0.00  0.00    +0.000 OA
ATOM      5  N   UNL     1      23.298  -0.561  17.518  0.00  0.00    +0.000 NA
ATOM      6  C   UNL     1      24.676  -0.329  17.267  0.00  0.00    +0.000 A 
ATOM      7  C   UNL     1      25.672  -1.237  17.004  0.00  0.00    +0.000 A 
ATOM      8  C   UNL     1      26.959  -0.811  16.779  0.00  0.00    +0.000 A 
ATOM      9  C   UNL     1      27.218   0.555  16.825  0.00  0.00    +0.000 A 
ATOM     10 CL   UNL     1      28.889   1.021  16.527  0.00  0.00    +0.000 Cl
ATOM     11  C   UNL     1      26.237   1.474  17.087  0.00  0.00    +0.000 A 
ATOM     12  C   UNL     1      24.941   1.033  17.313  0.00  0.00    +0.000 A 
ENDROOT
BRANCH   1  16
ATOM     13  C   UNL     1      26.653   5.857  17.650  0.00  0.00    +0.000 A 
ATOM     14  C   UNL     1      25.952   5.596  16.519  0.00  0.00    +0.000 A 
ATOM     15  C   UNL     1      24.933   4.684  16.482  0.00  0.00    +0.000 A 
ATOM     16  C   UNL     1      24.550   3.969  17.583  0.00  0.00    +0.000 A 
ATOM     17  C   UNL     1      25.280   4.243  18.751  0.00  0.00    +0.000 A 
ATOM     18  C   UNL     1      26.302   5.155  18.802  0.00  0.00    +0.000 A 
BRANCH  13  20
ATOM     19  C   UNL     1      28.003   7.288  19.180  0.00  0.00    +0.000 C 
ATOM     20  C   UNL     1      27.760   6.823  17.768  0.00  0.00    +0.000 C 
ENDBRANCH  13  20
ENDBRANCH   1  16
TORSDOF 2
ENDMDL
MODEL 9
REMARK VINA RESULT:      -6.9      4.025      5.891
REMARK  Name = 
REMARK  2 active torsions:
REMARK  status: ('A' for Active; 'I' for Inactive)
REMARK    1  A    between atoms: C_2  and  C_3
REMARK    2  A    between atoms: C_6  and  C_7
REMARK                            x       y       z     vdW  Elec       q    Type
REMARK                         _______ _______ _______ _____ _____    ______ ____
ROOT
ATOM      1  C   UNL     1      17.127  11.271  37.208  0.00  0.00    +0.000 C 
ATOM      2  C   UNL     1      16.250  10.907  38.098  0.00  0.00    +0.000 C 
ATOM      3  C   UNL     1      14.814  11.287  38.123  0.00  0.00    +0.000 C 
ATOM      4  O   UNL     1      14.290  12.036  37.271  0.00  0.00    +0.000 OA
ATOM      5  N   UNL     1      14.277  10.633  39.256  0.00  0.00    +0.000 NA
ATOM      6  C   UNL     1      15.294   9.888  39.909  0.00  0.00    +0.000 A 
ATOM      7  C   UNL     1      15.206   9.108  41.035  0.00  0.00    +0.000 A 
ATOM      8  C   UNL     1      16.316   8.454  41.515  0.00  0.00    +0.000 A 
ATOM      9  C   UNL     1      17.517   8.605  40.830  0.00  0.00    +0.000 A 
ATOM     10 CL   UNL     1      18.890   7.736  41.506  0.00  0.00    +0.000 Cl
ATOM     11  C   UNL     1      17.622   9.379  39.706  0.00  0.00    +0.000 A 
ATOM     12  C   UNL     1      16.496  10.036  39.230  0.00  0.00    +0.000 A 
ENDROOT
BRANCH   1  16
ATOM     13  C   UNL     1      21.277  10.412  37.395  0.00  0.00    +0.000 A 
ATOM     14  C   UNL     1      20.451   9.610  36.679  0.00  0.00    +0.000 A 
ATOM     15  C   UNL     1      19.106   9.841  36.585  0.00  0.00    +0.000 A 
ATOM     16  C   UNL     1      18.498  10.897  37.206  0.00  0.00    +0.000 A 
ATOM     17  C   UNL     1      19.359  11.723  37.946  0.00  0.00    +0.000 A 
ATOM     18  C   UNL     1      20.708  11.504  38.048  0.00  0.00    +0.000 A 
BRANCH  13  20
ATOM     19  C   UNL     1      23.335   9.336  36.490  0.00  0.00    +0.000 C 
ATOM     20  C   UNL     1      22.733  10.229  37.543  0.00  0.00    +0.000 C 
ENDBRANCH  13  20
ENDBRANCH   1  16
TORSDOF 2
ENDMDL
MODEL 10
REMARK VINA RESULT:      -6.8      4.548      6.571
REMARK  Name = 
REMARK  2 active torsions:
REMARK  status: ('A' for Active; 'I' for Inactive)
REMARK    1  A    between atoms: C_2  and  C_3
REMARK    2  A    between atoms: C_6  and  C_7
REMARK                            x       y       z     vdW  Elec       q    Type
REMARK                         _______ _______ _______ _____ _____    ______ ____
ROOT
ATOM      1  C   UNL     1      20.564   9.559  37.085  0.00  0.00    +0.000 C 
ATOM      2  C   UNL     1      21.617  10.290  37.300  0.00  0.00    +0.000 C 
ATOM      3  C   UNL     1      23.022   9.925  36.981  0.00  0.00    +0.000 C 
ATOM      4  O   UNL     1      23.344   8.829  36.472  0.00  0.00    +0.000 OA
ATOM      5  N   UNL     1      23.795  11.042  37.373  0.00  0.00    +0.000 NA
ATOM      6  C   UNL     1      22.948  12.050  37.904  0.00  0.00    +0.000 A 
ATOM      7  C   UNL     1      23.281  13.288  38.394  0.00  0.00    +0.000 A 
ATOM      8  C   UNL     1      22.305  14.134  38.864  0.00  0.00    +0.000 A 
ATOM      9  C   UNL     1      20.984  13.701  38.828  0.00  0.00    +0.000 A 
ATOM     10 CL   UNL     1      19.794  14.841  39.447  0.00  0.00    +0.000 Cl
ATOM     11  C   UNL     1      20.635  12.469  38.344  0.00  0.00    +0.000 A 
ATOM     12  C   UNL     1      21.628  11.623  37.872  0.00  0.00    +0.000 A 
ENDROOT
BRANCH   1  16
ATOM     13  C   UNL     1      16.550  10.775  37.721  0.00  0.00    +0.000 A 
ATOM     14  C   UNL     1      17.246  10.184  38.723  0.00  0.00    +0.000 A 
ATOM     15  C   UNL     1      18.542   9.773  38.573  0.00  0.00    +0.000 A 
ATOM     16  C   UNL     1      19.229   9.929  37.401  0.00  0.00    +0.000 A 
ATOM     17  C   UNL     1      18.502  10.540  36.366  0.00  0.00    +0.000 A 
ATOM     18  C   UNL     1      17.204  10.958  36.504  0.00  0.00    +0.000 A 
BRANCH  13  20
ATOM     19  C   UNL     1      14.769  12.186  36.697  0.00  0.00    +0.000 C 
ATOM     20  C   UNL     1      15.154  11.243  37.807  0.00  0.00    +0.000 C 
ENDBRANCH  13  20
ENDBRANCH   1  16
TORSDOF 2
ENDMDL
