MODEL 1
REMARK VINA RESULT:      -8.4      0.000      0.000
REMARK  Name = 
REMARK  7 active torsions:
REMARK  status: ('A' for Active; 'I' for Inactive)
REMARK    1  A    between atoms: C_5  and  N_6
REMARK    2  A    between atoms: N_6  and  C_7
REMARK    3  A    between atoms: C_8  and  S_9
REMARK    4  A    between atoms: S_9  and  C_10
REMARK    5  A    between atoms: N_18  and  C_19
REMARK    6  A    between atoms: C_19  and  C_20
REMARK    7  A    between atoms: C_20  and  C_21
REMARK                            x       y       z     vdW  Elec       q    Type
REMARK                         _______ _______ _______ _____ _____    ______ ____
ROOT
ATOM      1  C   UNL     1      36.441   4.263  14.781  0.00  0.00    +0.000 C 
ATOM      2  C   UNL     1      37.714   3.866  14.967  0.00  0.00    +0.000 C 
ATOM      3  C   UNL     1      37.641   2.436  15.206  0.00  0.00    +0.000 C 
ATOM      4  O   UNL     1      38.595   1.675  15.425  0.00  0.00    +0.000 OA
ATOM      5  N   UNL     1      36.267   1.983  15.156  0.00  0.00    +0.000 N 
ATOM      6  C   UNL     1      35.532   3.162  14.886  0.00  0.00    +0.000 C 
ATOM      7  O   UNL     1      34.264   3.187  14.764  0.00  0.00    +0.000 OA
ENDROOT
BRANCH   1   8
ATOM      8  N   UNL     1      36.042   5.596  14.515  0.00  0.00    +0.000 NA
BRANCH   8  13
ATOM      9  C   UNL     1      34.158   7.236   9.342  0.00  0.00    +0.000 C 
ATOM     10  C   UNL     1      34.655   6.805  10.690  0.00  0.00    +0.000 A 
ATOM     11  C   UNL     1      35.819   6.076  10.818  0.00  0.00    +0.000 A 
ATOM     12  C   UNL     1      36.282   5.675  12.061  0.00  0.00    +0.000 A 
ATOM     13  C   UNL     1      35.600   5.988  13.222  0.00  0.00    +0.000 A 
ATOM     14  C   UNL     1      34.435   6.717  13.093  0.00  0.00    +0.000 A 
ATOM     15  C   UNL     1      33.692   7.059  14.337  0.00  0.00    +0.000 C 
ATOM     16  C   UNL     1      33.969   7.122  11.841  0.00  0.00    +0.000 A 
ENDBRANCH   8  13
ENDBRANCH   1   8
BRANCH   2  17
ATOM     17  S   UNL     1      39.048   5.010  14.894  0.00  0.00    +0.000 S 
BRANCH  17  18
ATOM     18  C   UNL     1      39.627   5.502  16.485  0.00  0.00    +0.000 A 
ATOM     19  C   UNL     1      40.804   6.133  16.775  0.00  0.00    +0.000 A 
ATOM     20  C   UNL     1      41.203   6.494  18.040  0.00  0.00    +0.000 A 
ATOM     21  C   UNL     1      40.384   6.219  19.142  0.00  0.00    +0.000 A 
ATOM     22  C   UNL     1      39.196   5.585  18.883  0.00  0.00    +0.000 A 
ATOM     23  C   UNL     1      38.822   5.236  17.611  0.00  0.00    +0.000 A 
ENDBRANCH  17  18
ENDBRANCH   2  17
BRANCH   5  24
ATOM     24  C   UNL     1      35.790   0.629  15.349  0.00  0.00    +0.000 C 
BRANCH  24  25
ATOM     25  C   UNL     1      35.416   0.420  16.788  0.00  0.00    +0.000 C 
BRANCH  25  26
ATOM     26  C   UNL     1      36.367  -0.494  17.467  0.00  0.00    +0.000 A 
ATOM     27  C   UNL     1      37.269  -1.229  16.689  0.00  0.00    +0.000 A 
ATOM     28  C   UNL     1      38.166  -2.086  17.281  0.00  0.00    +0.000 A 
ATOM     29  C   UNL     1      38.196  -2.238  18.649  0.00  0.00    +0.000 A 
ATOM     30  C   UNL     1      37.313  -1.517  19.408  0.00  0.00    +0.000 A 
ATOM     31  C   UNL     1      36.402  -0.650  18.845  0.00  0.00    +0.000 A 
ENDBRANCH  25  26
ENDBRANCH  24  25
ENDBRANCH   5  24
TORSDOF 7
ENDMDL
MODEL 2
REMARK VINA RESULT:      -8.2      3.346      8.145
REMARK  Name = 
REMARK  7 active torsions:
REMARK  status: ('A' for Active; 'I' for Inactive)
REMARK    1  A    between atoms: C_5  and  N_6
REMARK    2  A    between atoms: N_6  and  C_7
REMARK    3  A    between atoms: C_8  and  S_9
REMARK    4  A    between atoms: S_9  and  C_10
REMARK    5  A    between atoms: N_18  and  C_19
REMARK    6  A    between atoms: C_19  and  C_20
REMARK    7  A    between atoms: C_20  and  C_21
REMARK                            x       y       z     vdW  Elec       q    Type
REMARK                         _______ _______ _______ _____ _____    ______ ____
ROOT
ATOM      1  C   UNL     1      37.087   1.135  15.409  0.00  0.00    +0.000 C 
ATOM      2  C   UNL     1      37.778   1.359  14.277  0.00  0.00    +0.000 C 
ATOM      3  C   UNL     1      38.207   2.744  14.353  0.00  0.00    +0.000 C 
ATOM      4  O   UNL     1      38.874   3.357  13.507  0.00  0.00    +0.000 OA
ATOM      5  N   UNL     1      37.745   3.351  15.582  0.00  0.00    +0.000 N 
ATOM      6  C   UNL     1      37.039   2.308  16.230  0.00  0.00    +0.000 C 
ATOM      7  O   UNL     1      36.471   2.442  17.362  0.00  0.00    +0.000 OA
ENDROOT
BRANCH   1   8
ATOM      8  N   UNL     1      36.481  -0.097  15.756  0.00  0.00    +0.000 NA
BRANCH   8  13
ATOM      9  C   UNL     1      38.806  -3.608  19.663  0.00  0.00    +0.000 C 
ATOM     10  C   UNL     1      38.204  -2.693  18.638  0.00  0.00    +0.000 A 
ATOM     11  C   UNL     1      38.821  -2.483  17.423  0.00  0.00    +0.000 A 
ATOM     12  C   UNL     1      38.269  -1.637  16.474  0.00  0.00    +0.000 A 
ATOM     13  C   UNL     1      37.079  -0.971  16.704  0.00  0.00    +0.000 A 
ATOM     14  C   UNL     1      36.462  -1.182  17.920  0.00  0.00    +0.000 A 
ATOM     15  C   UNL     1      35.181  -0.469  18.178  0.00  0.00    +0.000 C 
ATOM     16  C   UNL     1      37.018  -2.034  18.877  0.00  0.00    +0.000 A 
ENDBRANCH   8  13
ENDBRANCH   1   8
BRANCH   2  17
ATOM     17  S   UNL     1      38.000   0.092  13.076  0.00  0.00    +0.000 S 
BRANCH  17  18
ATOM     18  C   UNL     1      39.445  -0.879  13.354  0.00  0.00    +0.000 A 
ATOM     19  C   UNL     1      39.642  -2.184  12.999  0.00  0.00    +0.000 A 
ATOM     20  C   UNL     1      40.795  -2.892  13.242  0.00  0.00    +0.000 A 
ATOM     21  C   UNL     1      41.872  -2.282  13.895  0.00  0.00    +0.000 A 
ATOM     22  C   UNL     1      41.705  -0.971  14.264  0.00  0.00    +0.000 A 
ATOM     23  C   UNL     1      40.544  -0.288  14.010  0.00  0.00    +0.000 A 
ENDBRANCH  17  18
ENDBRANCH   2  17
BRANCH   5  24
ATOM     24  C   UNL     1      37.967   4.714  16.017  0.00  0.00    +0.000 C 
BRANCH  24  25
ATOM     25  C   UNL     1      39.240   4.798  16.807  0.00  0.00    +0.000 C 
BRANCH  25  26
ATOM     26  C   UNL     1      39.136   5.796  17.899  0.00  0.00    +0.000 A 
ATOM     27  C   UNL     1      38.171   6.805  17.800  0.00  0.00    +0.000 A 
ATOM     28  C   UNL     1      38.043   7.749  18.791  0.00  0.00    +0.000 A 
ATOM     29  C   UNL     1      38.858   7.720  19.900  0.00  0.00    +0.000 A 
ATOM     30  C   UNL     1      39.801   6.731  19.995  0.00  0.00    +0.000 A 
ATOM     31  C   UNL     1      39.955   5.771  19.019  0.00  0.00    +0.000 A 
ENDBRANCH  25  26
ENDBRANCH  24  25
ENDBRANCH   5  24
TORSDOF 7
ENDMDL
MODEL 3
REMARK VINA RESULT:      -8.2      3.555      7.782
REMARK  Name = 
REMARK  7 active torsions:
REMARK  status: ('A' for Active; 'I' for Inactive)
REMARK    1  A    between atoms: C_5  and  N_6
REMARK    2  A    between atoms: N_6  and  C_7
REMARK    3  A    between atoms: C_8  and  S_9
REMARK    4  A    between atoms: S_9  and  C_10
REMARK    5  A    between atoms: N_18  and  C_19
REMARK    6  A    between atoms: C_19  and  C_20
REMARK    7  A    between atoms: C_20  and  C_21
REMARK                            x       y       z     vdW  Elec       q    Type
REMARK                         _______ _______ _______ _____ _____    ______ ____
ROOT
ATOM      1  C   UNL     1      38.342   2.700  14.295  0.00  0.00    +0.000 C 
ATOM      2  C   UNL     1      37.277   2.218  14.962  0.00  0.00    +0.000 C 
ATOM      3  C   UNL     1      37.063   3.139  16.064  0.00  0.00    +0.000 C 
ATOM      4  O   UNL     1      36.177   3.062  16.928  0.00  0.00    +0.000 OA
ATOM      5  N   UNL     1      38.045   4.201  16.035  0.00  0.00    +0.000 N 
ATOM      6  C   UNL     1      38.840   3.896  14.905  0.00  0.00    +0.000 C 
ATOM      7  O   UNL     1      39.831   4.605  14.531  0.00  0.00    +0.000 OA
ENDROOT
BRANCH   1   8
ATOM      8  N   UNL     1      38.905   2.110  13.137  0.00  0.00    +0.000 NA
BRANCH   8  13
ATOM      9  C   UNL     1      41.987  -2.732  13.360  0.00  0.00    +0.000 C 
ATOM     10  C   UNL     1      41.185  -1.465  13.307  0.00  0.00    +0.000 A 
ATOM     11  C   UNL     1      41.300  -0.511  14.296  0.00  0.00    +0.000 A 
ATOM     12  C   UNL     1      40.561   0.661  14.252  0.00  0.00    +0.000 A 
ATOM     13  C   UNL     1      39.681   0.922  13.219  0.00  0.00    +0.000 A 
ATOM     14  C   UNL     1      39.566  -0.034  12.230  0.00  0.00    +0.000 A 
ATOM     15  C   UNL     1      38.621   0.236  11.112  0.00  0.00    +0.000 C 
ATOM     16  C   UNL     1      40.311  -1.215  12.273  0.00  0.00    +0.000 A 
ENDBRANCH   8  13
ENDBRANCH   1   8
BRANCH   2  17
ATOM     17  S   UNL     1      36.456   0.754  14.437  0.00  0.00    +0.000 S 
BRANCH  17  18
ATOM     18  C   UNL     1      37.269  -0.721  14.960  0.00  0.00    +0.000 A 
ATOM     19  C   UNL     1      37.987  -0.904  16.109  0.00  0.00    +0.000 A 
ATOM     20  C   UNL     1      38.600  -2.081  16.465  0.00  0.00    +0.000 A 
ATOM     21  C   UNL     1      38.515  -3.201  15.629  0.00  0.00    +0.000 A 
ATOM     22  C   UNL     1      37.801  -3.049  14.468  0.00  0.00    +0.000 A 
ATOM     23  C   UNL     1      37.199  -1.863  14.136  0.00  0.00    +0.000 A 
ENDBRANCH  17  18
ENDBRANCH   2  17
BRANCH   5  24
ATOM     24  C   UNL     1      38.162   5.303  16.968  0.00  0.00    +0.000 C 
BRANCH  24  25
ATOM     25  C   UNL     1      38.906   4.859  18.193  0.00  0.00    +0.000 C 
BRANCH  25  26
ATOM     26  C   UNL     1      40.049   5.757  18.488  0.00  0.00    +0.000 A 
ATOM     27  C   UNL     1      40.207   6.242  19.791  0.00  0.00    +0.000 A 
ATOM     28  C   UNL     1      41.253   7.076  20.105  0.00  0.00    +0.000 A 
ATOM     29  C   UNL     1      42.166   7.451  19.145  0.00  0.00    +0.000 A 
ATOM     30  C   UNL     1      42.010   6.974  17.871  0.00  0.00    +0.000 A 
ATOM     31  C   UNL     1      40.972   6.137  17.524  0.00  0.00    +0.000 A 
ENDBRANCH  25  26
ENDBRANCH  24  25
ENDBRANCH   5  24
TORSDOF 7
ENDMDL
MODEL 4
REMARK VINA RESULT:      -7.9      2.412      5.548
REMARK  Name = 
REMARK  7 active torsions:
REMARK  status: ('A' for Active; 'I' for Inactive)
REMARK    1  A    between atoms: C_5  and  N_6
REMARK    2  A    between atoms: N_6  and  C_7
REMARK    3  A    between atoms: C_8  and  S_9
REMARK    4  A    between atoms: S_9  and  C_10
REMARK    5  A    between atoms: N_18  and  C_19
REMARK    6  A    between atoms: C_19  and  C_20
REMARK    7  A    between atoms: C_20  and  C_21
REMARK                            x       y       z     vdW  Elec       q    Type
REMARK                         _______ _______ _______ _____ _____    ______ ____
ROOT
ATOM      1  C   UNL     1      38.549   5.192  15.064  0.00  0.00    +0.000 C 
ATOM      2  C   UNL     1      37.679   6.158  14.718  0.00  0.00    +0.000 C 
ATOM      3  C   UNL     1      36.412   5.481  14.509  0.00  0.00    +0.000 C 
ATOM      4  O   UNL     1      35.340   6.007  14.176  0.00  0.00    +0.000 OA
ATOM      5  N   UNL     1      36.552   4.060  14.744  0.00  0.00    +0.000 N 
ATOM      6  C   UNL     1      37.915   3.907  15.094  0.00  0.00    +0.000 C 
ATOM      7  O   UNL     1      38.446   2.785  15.381  0.00  0.00    +0.000 OA
ENDROOT
BRANCH   1   8
ATOM      8  N   UNL     1      39.917   5.405  15.364  0.00  0.00    +0.000 NA
BRANCH   8  13
ATOM      9  C   UNL     1      41.729   6.818  20.628  0.00  0.00    +0.000 C 
ATOM     10  C   UNL     1      41.249   6.447  19.256  0.00  0.00    +0.000 A 
ATOM     11  C   UNL     1      40.017   5.856  19.070  0.00  0.00    +0.000 A 
ATOM     12  C   UNL     1      39.571   5.511  17.804  0.00  0.00    +0.000 A 
ATOM     13  C   UNL     1      40.338   5.744  16.679  0.00  0.00    +0.000 A 
ATOM     14  C   UNL     1      41.571   6.335  16.866  0.00  0.00    +0.000 A 
ATOM     15  C   UNL     1      42.406   6.591  15.660  0.00  0.00    +0.000 C 
ATOM     16  C   UNL     1      42.021   6.684  18.141  0.00  0.00    +0.000 A 
ENDBRANCH   8  13
ENDBRANCH   1   8
BRANCH   2  17
ATOM     17  S   UNL     1      38.181   7.840  14.601  0.00  0.00    +0.000 S 
BRANCH  17  18
ATOM     18  C   UNL     1      38.542   8.566  16.166  0.00  0.00    +0.000 A 
ATOM     19  C   UNL     1      39.634   9.321  16.493  0.00  0.00    +0.000 A 
ATOM     20  C   UNL     1      39.862   9.864  17.735  0.00  0.00    +0.000 A 
ATOM     21  C   UNL     1      38.946   9.658  18.773  0.00  0.00    +0.000 A 
ATOM     22  C   UNL     1      37.839   8.903  18.476  0.00  0.00    +0.000 A 
ATOM     23  C   UNL     1      37.635   8.374  17.228  0.00  0.00    +0.000 A 
ENDBRANCH  17  18
ENDBRANCH   2  17
BRANCH   5  24
ATOM     24  C   UNL     1      35.517   3.054  14.632  0.00  0.00    +0.000 C 
BRANCH  24  25
ATOM     25  C   UNL     1      35.032   2.666  15.999  0.00  0.00    +0.000 C 
BRANCH  25  26
ATOM     26  C   UNL     1      35.234   1.219  16.256  0.00  0.00    +0.000 A 
ATOM     27  C   UNL     1      35.869   0.444  15.279  0.00  0.00    +0.000 A 
ATOM     28  C   UNL     1      36.074  -0.901  15.479  0.00  0.00    +0.000 A 
ATOM     29  C   UNL     1      35.662  -1.510  16.642  0.00  0.00    +0.000 A 
ATOM     30  C   UNL     1      35.042  -0.749  17.597  0.00  0.00    +0.000 A 
ATOM     31  C   UNL     1      34.821   0.601  17.427  0.00  0.00    +0.000 A 
ENDBRANCH  25  26
ENDBRANCH  24  25
ENDBRANCH   5  24
TORSDOF 7
ENDMDL
MODEL 5
REMARK VINA RESULT:      -7.9      3.364      8.088
REMARK  Name = 
REMARK  7 active torsions:
REMARK  status: ('A' for Active; 'I' for Inactive)
REMARK    1  A    between atoms: C_5  and  N_6
REMARK    2  A    between atoms: N_6  and  C_7
REMARK    3  A    between atoms: C_8  and  S_9
REMARK    4  A    between atoms: S_9  and  C_10
REMARK    5  A    between atoms: N_18  and  C_19
REMARK    6  A    between atoms: C_19  and  C_20
REMARK    7  A    between atoms: C_20  and  C_21
REMARK                            x       y       z     vdW  Elec       q    Type
REMARK                         _______ _______ _______ _____ _____    ______ ____
ROOT
ATOM      1  C   UNL     1      37.001   0.942  15.333  0.00  0.00    +0.000 C 
ATOM      2  C   UNL     1      37.958   1.250  14.439  0.00  0.00    +0.000 C 
ATOM      3  C   UNL     1      38.285   2.643  14.689  0.00  0.00    +0.000 C 
ATOM      4  O   UNL     1      39.124   3.325  14.081  0.00  0.00    +0.000 OA
ATOM      5  N   UNL     1      37.483   3.165  15.775  0.00  0.00    +0.000 N 
ATOM      6  C   UNL     1      36.681   2.065  16.163  0.00  0.00    +0.000 C 
ATOM      7  O   UNL     1      35.825   2.117  17.105  0.00  0.00    +0.000 OA
ENDROOT
BRANCH   1   8
ATOM      8  N   UNL     1      36.383  -0.327  15.450  0.00  0.00    +0.000 NA
BRANCH   8  13
ATOM      9  C   UNL     1      38.726  -4.596  18.497  0.00  0.00    +0.000 C 
ATOM     10  C   UNL     1      38.116  -3.477  17.706  0.00  0.00    +0.000 A 
ATOM     11  C   UNL     1      38.085  -2.191  18.203  0.00  0.00    +0.000 A 
ATOM     12  C   UNL     1      37.522  -1.154  17.476  0.00  0.00    +0.000 A 
ATOM     13  C   UNL     1      36.970  -1.364  16.226  0.00  0.00    +0.000 A 
ATOM     14  C   UNL     1      37.001  -2.651  15.730  0.00  0.00    +0.000 A 
ATOM     15  C   UNL     1      36.409  -2.888  14.385  0.00  0.00    +0.000 C 
ATOM     16  C   UNL     1      37.569  -3.696  16.461  0.00  0.00    +0.000 A 
ENDBRANCH   8  13
ENDBRANCH   1   8
BRANCH   2  17
ATOM     17  S   UNL     1      38.551   0.061  13.288  0.00  0.00    +0.000 S 
BRANCH  17  18
ATOM     18  C   UNL     1      40.082  -0.669  13.773  0.00  0.00    +0.000 A 
ATOM     19  C   UNL     1      40.278  -1.939  14.238  0.00  0.00    +0.000 A 
ATOM     20  C   UNL     1      41.499  -2.455  14.602  0.00  0.00    +0.000 A 
ATOM     21  C   UNL     1      42.653  -1.667  14.508  0.00  0.00    +0.000 A 
ATOM     22  C   UNL     1      42.488  -0.387  14.044  0.00  0.00    +0.000 A 
ATOM     23  C   UNL     1      41.258   0.103  13.688  0.00  0.00    +0.000 A 
ENDBRANCH  17  18
ENDBRANCH   2  17
BRANCH   5  24
ATOM     24  C   UNL     1      37.517   4.509  16.312  0.00  0.00    +0.000 C 
BRANCH  24  25
ATOM     25  C   UNL     1      38.084   4.489  17.702  0.00  0.00    +0.000 C 
BRANCH  25  26
ATOM     26  C   UNL     1      39.327   5.295  17.792  0.00  0.00    +0.000 A 
ATOM     27  C   UNL     1      39.752   5.740  19.048  0.00  0.00    +0.000 A 
ATOM     28  C   UNL     1      40.898   6.489  19.173  0.00  0.00    +0.000 A 
ATOM     29  C   UNL     1      41.649   6.816  18.067  0.00  0.00    +0.000 A 
ATOM     30  C   UNL     1      41.231   6.378  16.839  0.00  0.00    +0.000 A 
ATOM     31  C   UNL     1      40.087   5.626  16.680  0.00  0.00    +0.000 A 
ENDBRANCH  25  26
ENDBRANCH  24  25
ENDBRANCH   5  24
TORSDOF 7
ENDMDL
MODEL 6
REMARK VINA RESULT:      -7.8     25.760     28.590
REMARK  Name = 
REMARK  7 active torsions:
REMARK  status: ('A' for Active; 'I' for Inactive)
REMARK    1  A    between atoms: C_5  and  N_6
REMARK    2  A    between atoms: N_6  and  C_7
REMARK    3  A    between atoms: C_8  and  S_9
REMARK    4  A    between atoms: S_9  and  C_10
REMARK    5  A    between atoms: N_18  and  C_19
REMARK    6  A    between atoms: C_19  and  C_20
REMARK    7  A    between atoms: C_20  and  C_21
REMARK                            x       y       z     vdW  Elec       q    Type
REMARK                         _______ _______ _______ _____ _____    ______ ____
ROOT
ATOM      1  C   UNL     1      26.337  14.038  40.455  0.00  0.00    +0.000 C 
ATOM      2  C   UNL     1      27.589  14.529  40.403  0.00  0.00    +0.000 C 
ATOM      3  C   UNL     1      27.652  15.294  39.169  0.00  0.00    +0.000 C 
ATOM      4  O   UNL     1      28.635  15.914  38.736  0.00  0.00    +0.000 OA
ATOM      5  N   UNL     1      26.383  15.244  38.477  0.00  0.00    +0.000 N 
ATOM      6  C   UNL     1      25.571  14.443  39.315  0.00  0.00    +0.000 C 
ATOM      7  O   UNL     1      24.358  14.157  39.052  0.00  0.00    +0.000 OA
ENDROOT
BRANCH   1   8
ATOM      8  N   UNL     1      25.831  13.226  41.499  0.00  0.00    +0.000 NA
BRANCH   8  13
ATOM      9  C   UNL     1      27.791   7.916  42.473  0.00  0.00    +0.000 C 
ATOM     10  C   UNL     1      27.279   9.301  42.212  0.00  0.00    +0.000 A 
ATOM     11  C   UNL     1      27.157   9.783  40.925  0.00  0.00    +0.000 A 
ATOM     12  C   UNL     1      26.686  11.063  40.680  0.00  0.00    +0.000 A 
ATOM     13  C   UNL     1      26.318  11.908  41.710  0.00  0.00    +0.000 A 
ATOM     14  C   UNL     1      26.441  11.426  42.997  0.00  0.00    +0.000 A 
ATOM     15  C   UNL     1      26.048  12.328  44.114  0.00  0.00    +0.000 C 
ATOM     16  C   UNL     1      26.915  10.136  43.245  0.00  0.00    +0.000 A 
ENDBRANCH   8  13
ENDBRANCH   1   8
BRANCH   2  17
ATOM     17  S   UNL     1      28.756  14.194  41.674  0.00  0.00    +0.000 S 
BRANCH  17  18
ATOM     18  C   UNL     1      29.656  12.700  41.412  0.00  0.00    +0.000 A 
ATOM     19  C   UNL     1      30.053  12.177  40.213  0.00  0.00    +0.000 A 
ATOM     20  C   UNL     1      30.755  11.004  40.069  0.00  0.00    +0.000 A 
ATOM     21  C   UNL     1      31.115  10.256  41.197  0.00  0.00    +0.000 A 
ATOM     22  C   UNL     1      30.731  10.756  42.415  0.00  0.00    +0.000 A 
ATOM     23  C   UNL     1      30.030  11.928  42.530  0.00  0.00    +0.000 A 
ENDBRANCH  17  18
ENDBRANCH   2  17
BRANCH   5  24
ATOM     24  C   UNL     1      26.055  15.877  37.215  0.00  0.00    +0.000 C 
BRANCH  24  25
ATOM     25  C   UNL     1      26.710  15.134  36.087  0.00  0.00    +0.000 C 
BRANCH  25  26
ATOM     26  C   UNL     1      26.022  15.390  34.798  0.00  0.00    +0.000 A 
ATOM     27  C   UNL     1      25.534  16.676  34.538  0.00  0.00    +0.000 A 
ATOM     28  C   UNL     1      24.890  16.954  33.356  0.00  0.00    +0.000 A 
ATOM     29  C   UNL     1      24.712  15.974  32.405  0.00  0.00    +0.000 A 
ATOM     30  C   UNL     1      25.191  14.717  32.661  0.00  0.00    +0.000 A 
ATOM     31  C   UNL     1      25.840  14.407  33.837  0.00  0.00    +0.000 A 
ENDBRANCH  25  26
ENDBRANCH  24  25
ENDBRANCH   5  24
TORSDOF 7
ENDMDL
MODEL 7
REMARK VINA RESULT:      -7.7      1.919      5.839
REMARK  Name = 
REMARK  7 active torsions:
REMARK  status: ('A' for Active; 'I' for Inactive)
REMARK    1  A    between atoms: C_5  and  N_6
REMARK    2  A    between atoms: N_6  and  C_7
REMARK    3  A    between atoms: C_8  and  S_9
REMARK    4  A    between atoms: S_9  and  C_10
REMARK    5  A    between atoms: N_18  and  C_19
REMARK    6  A    between atoms: C_19  and  C_20
REMARK    7  A    between atoms: C_20  and  C_21
REMARK                            x       y       z     vdW  Elec       q    Type
REMARK                         _______ _______ _______ _____ _____    ______ ____
ROOT
ATOM      1  C   UNL     1      36.421   4.797  14.502  0.00  0.00    +0.000 C 
ATOM      2  C   UNL     1      36.968   3.572  14.605  0.00  0.00    +0.000 C 
ATOM      3  C   UNL     1      38.194   3.758  15.361  0.00  0.00    +0.000 C 
ATOM      4  O   UNL     1      39.005   2.876  15.680  0.00  0.00    +0.000 OA
ATOM      5  N   UNL     1      38.366   5.151  15.712  0.00  0.00    +0.000 N 
ATOM      6  C   UNL     1      37.228   5.784  15.156  0.00  0.00    +0.000 C 
ATOM      7  O   UNL     1      37.004   7.034  15.249  0.00  0.00    +0.000 OA
ENDROOT
BRANCH   1   8
ATOM      8  N   UNL     1      35.205   5.086  13.837  0.00  0.00    +0.000 NA
BRANCH   8  13
ATOM      9  C   UNL     1      34.932   8.870   9.525  0.00  0.00    +0.000 C 
ATOM     10  C   UNL     1      35.007   7.878  10.647  0.00  0.00    +0.000 A 
ATOM     11  C   UNL     1      35.800   6.754  10.549  0.00  0.00    +0.000 A 
ATOM     12  C   UNL     1      35.872   5.834  11.584  0.00  0.00    +0.000 A 
ATOM     13  C   UNL     1      35.157   6.005  12.754  0.00  0.00    +0.000 A 
ATOM     14  C   UNL     1      34.364   7.130  12.852  0.00  0.00    +0.000 A 
ATOM     15  C   UNL     1      33.589   7.324  14.108  0.00  0.00    +0.000 C 
ATOM     16  C   UNL     1      34.291   8.057  11.810  0.00  0.00    +0.000 A 
ENDBRANCH   8  13
ENDBRANCH   1   8
BRANCH   2  17
ATOM     17  S   UNL     1      36.192   2.162  13.894  0.00  0.00    +0.000 S 
BRANCH  17  18
ATOM     18  C   UNL     1      35.901   0.871  15.059  0.00  0.00    +0.000 A 
ATOM     19  C   UNL     1      36.316  -0.428  14.970  0.00  0.00    +0.000 A 
ATOM     20  C   UNL     1      36.059  -1.394  15.913  0.00  0.00    +0.000 A 
ATOM     21  C   UNL     1      35.325  -1.078  17.063  0.00  0.00    +0.000 A 
ATOM     22  C   UNL     1      34.894   0.219  17.181  0.00  0.00    +0.000 A 
ATOM     23  C   UNL     1      35.165   1.163  16.225  0.00  0.00    +0.000 A 
ENDBRANCH  17  18
ENDBRANCH   2  17
BRANCH   5  24
ATOM     24  C   UNL     1      39.463   5.730  16.459  0.00  0.00    +0.000 C 
BRANCH  24  25
ATOM     25  C   UNL     1      39.364   5.335  17.904  0.00  0.00    +0.000 C 
BRANCH  25  26
ATOM     26  C   UNL     1      38.998   6.491  18.758  0.00  0.00    +0.000 A 
ATOM     27  C   UNL     1      39.764   6.756  19.899  0.00  0.00    +0.000 A 
ATOM     28  C   UNL     1      39.457   7.817  20.716  0.00  0.00    +0.000 A 
ATOM     29  C   UNL     1      38.392   8.641  20.429  0.00  0.00    +0.000 A 
ATOM     30  C   UNL     1      37.644   8.381  19.311  0.00  0.00    +0.000 A 
ATOM     31  C   UNL     1      37.926   7.324  18.472  0.00  0.00    +0.000 A 
ENDBRANCH  25  26
ENDBRANCH  24  25
ENDBRANCH   5  24
TORSDOF 7
ENDMDL
MODEL 8
REMARK VINA RESULT:      -7.5      2.919      5.940
REMARK  Name = 
REMARK  7 active torsions:
REMARK  status: ('A' for Active; 'I' for Inactive)
REMARK    1  A    between atoms: C_5  and  N_6
REMARK    2  A    between atoms: N_6  and  C_7
REMARK    3  A    between atoms: C_8  and  S_9
REMARK    4  A    between atoms: S_9  and  C_10
REMARK    5  A    between atoms: N_18  and  C_19
REMARK    6  A    between atoms: C_19  and  C_20
REMARK    7  A    between atoms: C_20  and  C_21
REMARK                            x       y       z     vdW  Elec       q    Type
REMARK                         _______ _______ _______ _____ _____    ______ ____
ROOT
ATOM      1  C   UNL     1      37.945   6.895  16.828  0.00  0.00    +0.000 C 
ATOM      2  C   UNL     1      38.520   5.742  17.215  0.00  0.00    +0.000 C 
ATOM      3  C   UNL     1      38.368   4.838  16.088  0.00  0.00    +0.000 C 
ATOM      4  O   UNL     1      38.760   3.663  16.026  0.00  0.00    +0.000 OA
ATOM      5  N   UNL     1      37.675   5.495  15.001  0.00  0.00    +0.000 N 
ATOM      6  C   UNL     1      37.421   6.796  15.499  0.00  0.00    +0.000 C 
ATOM      7  O   UNL     1      36.819   7.698  14.831  0.00  0.00    +0.000 OA
ENDROOT
BRANCH   1   8
ATOM      8  N   UNL     1      37.865   8.064  17.623  0.00  0.00    +0.000 NA
BRANCH   8  13
ATOM      9  C   UNL     1      42.477  11.277  18.804  0.00  0.00    +0.000 C 
ATOM     10  C   UNL     1      41.274  10.438  18.489  0.00  0.00    +0.000 A 
ATOM     11  C   UNL     1      41.033   9.997  17.205  0.00  0.00    +0.000 A 
ATOM     12  C   UNL     1      39.923   9.221  16.910  0.00  0.00    +0.000 A 
ATOM     13  C   UNL     1      39.014   8.858  17.886  0.00  0.00    +0.000 A 
ATOM     14  C   UNL     1      39.257   9.300  19.171  0.00  0.00    +0.000 A 
ATOM     15  C   UNL     1      38.285   8.914  20.230  0.00  0.00    +0.000 C 
ATOM     16  C   UNL     1      40.375  10.081  19.469  0.00  0.00    +0.000 A 
ENDBRANCH   8  13
ENDBRANCH   1   8
BRANCH   2  17
ATOM     17  S   UNL     1      39.251   5.572  18.806  0.00  0.00    +0.000 S 
BRANCH  17  18
ATOM     18  C   UNL     1      40.909   6.168  18.873  0.00  0.00    +0.000 A 
ATOM     19  C   UNL     1      41.760   6.359  17.820  0.00  0.00    +0.000 A 
ATOM     20  C   UNL     1      43.046   6.828  17.934  0.00  0.00    +0.000 A 
ATOM     21  C   UNL     1      43.571   7.149  19.192  0.00  0.00    +0.000 A 
ATOM     22  C   UNL     1      42.740   6.968  20.269  0.00  0.00    +0.000 A 
ATOM     23  C   UNL     1      41.460   6.498  20.127  0.00  0.00    +0.000 A 
ENDBRANCH  17  18
ENDBRANCH   2  17
BRANCH   5  24
ATOM     24  C   UNL     1      37.333   4.923  13.715  0.00  0.00    +0.000 C 
BRANCH  24  25
ATOM     25  C   UNL     1      35.905   4.458  13.727  0.00  0.00    +0.000 C 
BRANCH  25  26
ATOM     26  C   UNL     1      35.761   3.168  14.445  0.00  0.00    +0.000 A 
ATOM     27  C   UNL     1      34.997   3.130  15.616  0.00  0.00    +0.000 A 
ATOM     28  C   UNL     1      34.840   1.953  16.310  0.00  0.00    +0.000 A 
ATOM     29  C   UNL     1      35.429   0.791  15.867  0.00  0.00    +0.000 A 
ATOM     30  C   UNL     1      36.175   0.831  14.719  0.00  0.00    +0.000 A 
ATOM     31  C   UNL     1      36.353   1.994  14.002  0.00  0.00    +0.000 A 
ENDBRANCH  25  26
ENDBRANCH  24  25
ENDBRANCH   5  24
TORSDOF 7
ENDMDL
MODEL 9
REMARK VINA RESULT:      -7.4      2.022      7.378
REMARK  Name = 
REMARK  7 active torsions:
REMARK  status: ('A' for Active; 'I' for Inactive)
REMARK    1  A    between atoms: C_5  and  N_6
REMARK    2  A    between atoms: N_6  and  C_7
REMARK    3  A    between atoms: C_8  and  S_9
REMARK    4  A    between atoms: S_9  and  C_10
REMARK    5  A    between atoms: N_18  and  C_19
REMARK    6  A    between atoms: C_19  and  C_20
REMARK    7  A    between atoms: C_20  and  C_21
REMARK                            x       y       z     vdW  Elec       q    Type
REMARK                         _______ _______ _______ _____ _____    ______ ____
ROOT
ATOM      1  C   UNL     1      36.902   3.436  15.469  0.00  0.00    +0.000 C 
ATOM      2  C   UNL     1      37.478   4.326  14.639  0.00  0.00    +0.000 C 
ATOM      3  C   UNL     1      38.453   5.034  15.448  0.00  0.00    +0.000 C 
ATOM      4  O   UNL     1      39.206   5.944  15.069  0.00  0.00    +0.000 OA
ATOM      5  N   UNL     1      38.444   4.534  16.806  0.00  0.00    +0.000 N 
ATOM      6  C   UNL     1      37.453   3.523  16.788  0.00  0.00    +0.000 C 
ATOM      7  O   UNL     1      37.138   2.830  17.809  0.00  0.00    +0.000 OA
ENDROOT
BRANCH   1   8
ATOM      8  N   UNL     1      35.884   2.525  15.096  0.00  0.00    +0.000 NA
BRANCH   8  13
ATOM      9  C   UNL     1      36.956  -3.073  14.388  0.00  0.00    +0.000 C 
ATOM     10  C   UNL     1      36.680  -1.610  14.567  0.00  0.00    +0.000 A 
ATOM     11  C   UNL     1      37.194  -0.677  13.691  0.00  0.00    +0.000 A 
ATOM     12  C   UNL     1      36.942   0.676  13.853  0.00  0.00    +0.000 A 
ATOM     13  C   UNL     1      36.166   1.147  14.896  0.00  0.00    +0.000 A 
ATOM     14  C   UNL     1      35.652   0.213  15.772  0.00  0.00    +0.000 A 
ATOM     15  C   UNL     1      34.815   0.709  16.899  0.00  0.00    +0.000 C 
ATOM     16  C   UNL     1      35.905  -1.150  15.609  0.00  0.00    +0.000 A 
ENDBRANCH   8  13
ENDBRANCH   1   8
BRANCH   2  17
ATOM     17  S   UNL     1      36.998   4.445  12.951  0.00  0.00    +0.000 S 
BRANCH  17  18
ATOM     18  C   UNL     1      35.680   5.585  12.683  0.00  0.00    +0.000 A 
ATOM     19  C   UNL     1      34.766   6.019  13.602  0.00  0.00    +0.000 A 
ATOM     20  C   UNL     1      33.757   6.913  13.335  0.00  0.00    +0.000 A 
ATOM     21  C   UNL     1      33.611   7.447  12.049  0.00  0.00    +0.000 A 
ATOM     22  C   UNL     1      34.515   7.031  11.104  0.00  0.00    +0.000 A 
ATOM     23  C   UNL     1      35.512   6.137  11.398  0.00  0.00    +0.000 A 
ENDBRANCH  17  18
ENDBRANCH   2  17
BRANCH   5  24
ATOM     24  C   UNL     1      39.269   4.989  17.906  0.00  0.00    +0.000 C 
BRANCH  24  25
ATOM     25  C   UNL     1      38.681   6.234  18.504  0.00  0.00    +0.000 C 
BRANCH  25  26
ATOM     26  C   UNL     1      39.711   7.034  19.211  0.00  0.00    +0.000 A 
ATOM     27  C   UNL     1      40.834   6.380  19.729  0.00  0.00    +0.000 A 
ATOM     28  C   UNL     1      41.811   7.086  20.391  0.00  0.00    +0.000 A 
ATOM     29  C   UNL     1      41.705   8.448  20.556  0.00  0.00    +0.000 A 
ATOM     30  C   UNL     1      40.605   9.086  20.047  0.00  0.00    +0.000 A 
ATOM     31  C   UNL     1      39.608   8.407  19.379  0.00  0.00    +0.000 A 
ENDBRANCH  25  26
ENDBRANCH  24  25
ENDBRANCH   5  24
TORSDOF 7
ENDMDL
MODEL 10
REMARK VINA RESULT:      -7.4     26.161     28.168
REMARK  Name = 
REMARK  7 active torsions:
REMARK  status: ('A' for Active; 'I' for Inactive)
REMARK    1  A    between atoms: C_5  and  N_6
REMARK    2  A    between atoms: N_6  and  C_7
REMARK    3  A    between atoms: C_8  and  S_9
REMARK    4  A    between atoms: S_9  and  C_10
REMARK    5  A    between atoms: N_18  and  C_19
REMARK    6  A    between atoms: C_19  and  C_20
REMARK    7  A    between atoms: C_20  and  C_21
REMARK                            x       y       z     vdW  Elec       q    Type
REMARK                         _______ _______ _______ _____ _____    ______ ____
ROOT
ATOM      1  C   UNL     1      26.925  15.235  38.660  0.00  0.00    +0.000 C 
ATOM      2  C   UNL     1      25.891  14.590  39.231  0.00  0.00    +0.000 C 
ATOM      3  C   UNL     1      26.489  13.671  40.184  0.00  0.00    +0.000 C 
ATOM      4  O   UNL     1      25.886  12.882  40.927  0.00  0.00    +0.000 OA
ATOM      5  N   UNL     1      27.931  13.789  40.165  0.00  0.00    +0.000 N 
ATOM      6  C   UNL     1      28.177  14.787  39.191  0.00  0.00    +0.000 C 
ATOM      7  O   UNL     1      29.344  15.186  38.874  0.00  0.00    +0.000 OA
ENDROOT
BRANCH   1   8
ATOM      8  N   UNL     1      26.802  16.233  37.662  0.00  0.00    +0.000 NA
BRANCH   8  13
ATOM      9  C   UNL     1      25.231  14.991  32.278  0.00  0.00    +0.000 C 
ATOM     10  C   UNL     1      25.645  15.310  33.684  0.00  0.00    +0.000 A 
ATOM     11  C   UNL     1      26.545  14.511  34.358  0.00  0.00    +0.000 A 
ATOM     12  C   UNL     1      26.930  14.801  35.657  0.00  0.00    +0.000 A 
ATOM     13  C   UNL     1      26.432  15.901  36.330  0.00  0.00    +0.000 A 
ATOM     14  C   UNL     1      25.531  16.700  35.656  0.00  0.00    +0.000 A 
ATOM     15  C   UNL     1      24.988  17.887  36.371  0.00  0.00    +0.000 C 
ATOM     16  C   UNL     1      25.143  16.408  34.346  0.00  0.00    +0.000 A 
ENDBRANCH   8  13
ENDBRANCH   1   8
BRANCH   2  17
ATOM     17  S   UNL     1      24.229  14.938  38.773  0.00  0.00    +0.000 S 
BRANCH  17  18
ATOM     18  C   UNL     1      23.415  16.028  39.895  0.00  0.00    +0.000 A 
ATOM     19  C   UNL     1      23.619  17.372  40.032  0.00  0.00    +0.000 A 
ATOM     20  C   UNL     1      22.951  18.174  40.927  0.00  0.00    +0.000 A 
ATOM     21  C   UNL     1      21.986  17.625  41.780  0.00  0.00    +0.000 A 
ATOM     22  C   UNL     1      21.759  16.277  41.666  0.00  0.00    +0.000 A 
ATOM     23  C   UNL     1      22.440  15.501  40.764  0.00  0.00    +0.000 A 
ENDBRANCH  17  18
ENDBRANCH   2  17
BRANCH   5  24
ATOM     24  C   UNL     1      28.875  13.040  40.968  0.00  0.00    +0.000 C 
BRANCH  24  25
ATOM     25  C   UNL     1      29.483  11.940  40.147  0.00  0.00    +0.000 C 
BRANCH  25  26
ATOM     26  C   UNL     1      29.278  10.614  40.779  0.00  0.00    +0.000 A 
ATOM     27  C   UNL     1      30.355   9.722  40.841  0.00  0.00    +0.000 A 
ATOM     28  C   UNL     1      30.204   8.484  41.419  0.00  0.00    +0.000 A 
ATOM     29  C   UNL     1      28.994   8.097  41.949  0.00  0.00    +0.000 A 
ATOM     30  C   UNL     1      27.942   8.972  41.888  0.00  0.00    +0.000 A 
ATOM     31  C   UNL     1      28.060  10.220  41.315  0.00  0.00    +0.000 A 
ENDBRANCH  25  26
ENDBRANCH  24  25
ENDBRANCH   5  24
TORSDOF 7
ENDMDL
