MODEL 1
REMARK VINA RESULT:      -6.9      0.000      0.000
REMARK  Name = 
REMARK  3 active torsions:
REMARK  status: ('A' for Active; 'I' for Inactive)
REMARK    1  A    between atoms: C_4  and  N_5
REMARK    2  A    between atoms: N_5  and  N_6
REMARK    3  A    between atoms: C_7  and  C_9
REMARK                            x       y       z     vdW  Elec       q    Type
REMARK                         _______ _______ _______ _____ _____    ______ ____
ROOT
ATOM      1  N   UNL     1      16.114  10.915  37.304  0.00  0.00    +0.000 NA
ENDROOT
BRANCH   1   5
ATOM      2  C   UNL     1      18.434   8.128  40.449  0.00  0.00    +0.000 C 
ATOM      3  C   UNL     1      18.482   8.672  38.882  0.00  0.00    +0.000 C 
ATOM      4  C   UNL     1      17.332   9.813  39.171  0.00  0.00    +0.000 C 
ATOM      5  C   UNL     1      17.355  10.577  37.897  0.00  0.00    +0.000 C 
ATOM      6  C   UNL     1      18.510  10.902  37.381  0.00  0.00    +0.000 C 
ATOM      7  C   UNL     1      19.806  10.572  37.964  0.00  0.00    +0.000 C 
ATOM      8  C   UNL     1      20.650   9.911  36.892  0.00  0.00    +0.000 C 
ATOM      9  C   UNL     1      20.529  11.847  38.370  0.00  0.00    +0.000 C 
ATOM     10  C   UNL     1      19.717   9.717  39.211  0.00  0.00    +0.000 C 
ENDBRANCH   1   5
BRANCH   1  11
ATOM     11  N   UNL     1      16.051  10.889  35.892  0.00  0.00    +0.000 NA
ATOM     12  C   UNL     1      15.362  11.812  35.112  0.00  0.00    +0.000 C 
ATOM     13  O   UNL     1      14.739  12.751  35.671  0.00  0.00    +0.000 OA
BRANCH  12  14
ATOM     14  C   UNL     1      15.348  11.709  33.640  0.00  0.00    +0.000 A 
ATOM     15  C   UNL     1      16.018  10.703  32.980  0.00  0.00    +0.000 A 
ATOM     16  C   UNL     1      15.987  10.630  31.603  0.00  0.00    +0.000 A 
ATOM     17  C   UNL     1      15.297  11.544  30.829  0.00  0.00    +0.000 A 
ATOM     18  C   UNL     1      14.625  12.552  31.491  0.00  0.00    +0.000 A 
ATOM     19  C   UNL     1      14.663  12.616  32.870  0.00  0.00    +0.000 A 
ENDBRANCH  12  14
ENDBRANCH   1  11
TORSDOF 3
ENDMDL
MODEL 2
REMARK VINA RESULT:      -6.8      1.385      2.274
REMARK  Name = 
REMARK  3 active torsions:
REMARK  status: ('A' for Active; 'I' for Inactive)
REMARK    1  A    between atoms: C_4  and  N_5
REMARK    2  A    between atoms: N_5  and  N_6
REMARK    3  A    between atoms: C_7  and  C_9
REMARK                            x       y       z     vdW  Elec       q    Type
REMARK                         _______ _______ _______ _____ _____    ______ ____
ROOT
ATOM      1  N   UNL     1      17.297  10.610  37.126  0.00  0.00    +0.000 NA
ENDROOT
BRANCH   1   5
ATOM      2  C   UNL     1      20.413  13.844  38.819  0.00  0.00    +0.000 C 
ATOM      3  C   UNL     1      19.972  12.249  38.938  0.00  0.00    +0.000 C 
ATOM      4  C   UNL     1      19.014  12.343  37.604  0.00  0.00    +0.000 C 
ATOM      5  C   UNL     1      18.650  10.917  37.406  0.00  0.00    +0.000 C 
ATOM      6  C   UNL     1      19.588  10.012  37.497  0.00  0.00    +0.000 C 
ATOM      7  C   UNL     1      20.992  10.292  37.782  0.00  0.00    +0.000 C 
ATOM      8  C   UNL     1      21.424   9.405  38.933  0.00  0.00    +0.000 C 
ATOM      9  C   UNL     1      21.848   9.908  36.585  0.00  0.00    +0.000 C 
ATOM     10  C   UNL     1      21.281  11.752  38.063  0.00  0.00    +0.000 C 
ENDBRANCH   1   5
BRANCH   1  11
ATOM     11  N   UNL     1      16.905  10.618  35.768  0.00  0.00    +0.000 NA
ATOM     12  C   UNL     1      16.186  11.641  35.156  0.00  0.00    +0.000 C 
ATOM     13  O   UNL     1      15.844  12.645  35.832  0.00  0.00    +0.000 OA
BRANCH  12  14
ATOM     14  C   UNL     1      15.818  11.567  33.729  0.00  0.00    +0.000 A 
ATOM     15  C   UNL     1      16.379  10.635  32.885  0.00  0.00    +0.000 A 
ATOM     16  C   UNL     1      16.016  10.588  31.555  0.00  0.00    +0.000 A 
ATOM     17  C   UNL     1      15.088  11.456  31.011  0.00  0.00    +0.000 A 
ATOM     18  C   UNL     1      14.525  12.390  31.858  0.00  0.00    +0.000 A 
ATOM     19  C   UNL     1      14.897  12.429  33.187  0.00  0.00    +0.000 A 
ENDBRANCH  12  14
ENDBRANCH   1  11
TORSDOF 3
ENDMDL
MODEL 3
REMARK VINA RESULT:      -6.8     17.753     19.306
REMARK  Name = 
REMARK  3 active torsions:
REMARK  status: ('A' for Active; 'I' for Inactive)
REMARK    1  A    between atoms: C_4  and  N_5
REMARK    2  A    between atoms: N_5  and  N_6
REMARK    3  A    between atoms: C_7  and  C_9
REMARK                            x       y       z     vdW  Elec       q    Type
REMARK                         _______ _______ _______ _____ _____    ______ ____
ROOT
ATOM      1  N   UNL     1      33.667   4.840  34.158  0.00  0.00    +0.000 NA
ENDROOT
BRANCH   1   5
ATOM      2  C   UNL     1      37.684   5.051  36.777  0.00  0.00    +0.000 C 
ATOM      3  C   UNL     1      36.700   5.957  35.795  0.00  0.00    +0.000 C 
ATOM      4  C   UNL     1      35.506   4.825  35.831  0.00  0.00    +0.000 C 
ATOM      5  C   UNL     1      34.404   5.543  35.142  0.00  0.00    +0.000 C 
ATOM      6  C   UNL     1      34.163   6.785  35.469  0.00  0.00    +0.000 C 
ATOM      7  C   UNL     1      34.900   7.539  36.477  0.00  0.00    +0.000 C 
ATOM      8  C   UNL     1      35.344   8.848  35.854  0.00  0.00    +0.000 C 
ATOM      9  C   UNL     1      33.978   7.893  37.634  0.00  0.00    +0.000 C 
ATOM     10  C   UNL     1      36.067   6.782  37.078  0.00  0.00    +0.000 C 
ENDBRANCH   1   5
BRANCH   1  11
ATOM     11  N   UNL     1      33.541   3.443  34.330  0.00  0.00    +0.000 NA
ATOM     12  C   UNL     1      33.621   2.507  33.302  0.00  0.00    +0.000 C 
ATOM     13  O   UNL     1      33.821   2.899  32.124  0.00  0.00    +0.000 OA
BRANCH  12  14
ATOM     14  C   UNL     1      33.477   1.063  33.572  0.00  0.00    +0.000 A 
ATOM     15  C   UNL     1      34.210   0.122  32.885  0.00  0.00    +0.000 A 
ATOM     16  C   UNL     1      34.055  -1.221  33.158  0.00  0.00    +0.000 A 
ATOM     17  C   UNL     1      33.172  -1.683  34.116  0.00  0.00    +0.000 A 
ATOM     18  C   UNL     1      32.437  -0.740  34.805  0.00  0.00    +0.000 A 
ATOM     19  C   UNL     1      32.600   0.602  34.523  0.00  0.00    +0.000 A 
ENDBRANCH  12  14
ENDBRANCH   1  11
TORSDOF 3
ENDMDL
MODEL 4
REMARK VINA RESULT:      -6.7     22.039     24.219
REMARK  Name = 
REMARK  3 active torsions:
REMARK  status: ('A' for Active; 'I' for Inactive)
REMARK    1  A    between atoms: C_4  and  N_5
REMARK    2  A    between atoms: N_5  and  N_6
REMARK    3  A    between atoms: C_7  and  C_9
REMARK                            x       y       z     vdW  Elec       q    Type
REMARK                         _______ _______ _______ _____ _____    ______ ____
ROOT
ATOM      1  N   UNL     1      29.638  24.749  20.748  0.00  0.00    +0.000 NA
ENDROOT
BRANCH   1   5
ATOM      2  C   UNL     1      27.866  28.789  22.639  0.00  0.00    +0.000 C 
ATOM      3  C   UNL     1      29.161  28.184  21.797  0.00  0.00    +0.000 C 
ATOM      4  C   UNL     1      28.387  26.764  21.490  0.00  0.00    +0.000 C 
ATOM      5  C   UNL     1      29.332  26.116  20.546  0.00  0.00    +0.000 C 
ATOM      6  C   UNL     1      29.838  26.830  19.575  0.00  0.00    +0.000 C 
ATOM      7  C   UNL     1      29.544  28.239  19.336  0.00  0.00    +0.000 C 
ATOM      8  C   UNL     1      30.861  28.980  19.213  0.00  0.00    +0.000 C 
ATOM      9  C   UNL     1      28.824  28.397  18.005  0.00  0.00    +0.000 C 
ATOM     10  C   UNL     1      28.646  28.864  20.383  0.00  0.00    +0.000 C 
ENDBRANCH   1   5
BRANCH   1  11
ATOM     11  N   UNL     1      29.714  24.301  22.086  0.00  0.00    +0.000 NA
ATOM     12  C   UNL     1      28.760  23.503  22.711  0.00  0.00    +0.000 C 
ATOM     13  O   UNL     1      27.745  23.135  22.066  0.00  0.00    +0.000 OA
BRANCH  12  14
ATOM     14  C   UNL     1      28.920  23.081  24.116  0.00  0.00    +0.000 A 
ATOM     15  C   UNL     1      27.855  23.058  24.989  0.00  0.00    +0.000 A 
ATOM     16  C   UNL     1      28.033  22.659  26.297  0.00  0.00    +0.000 A 
ATOM     17  C   UNL     1      29.264  22.268  26.790  0.00  0.00    +0.000 A 
ATOM     18  C   UNL     1      30.331  22.289  25.915  0.00  0.00    +0.000 A 
ATOM     19  C   UNL     1      30.142  22.692  24.607  0.00  0.00    +0.000 A 
ENDBRANCH  12  14
ENDBRANCH   1  11
TORSDOF 3
ENDMDL
MODEL 5
REMARK VINA RESULT:      -6.5     17.615     20.302
REMARK  Name = 
REMARK  3 active torsions:
REMARK  status: ('A' for Active; 'I' for Inactive)
REMARK    1  A    between atoms: C_4  and  N_5
REMARK    2  A    between atoms: N_5  and  N_6
REMARK    3  A    between atoms: C_7  and  C_9
REMARK                            x       y       z     vdW  Elec       q    Type
REMARK                         _______ _______ _______ _____ _____    ______ ____
ROOT
ATOM      1  N   UNL     1      33.605  -0.084  33.147  0.00  0.00    +0.000 NA
ENDROOT
BRANCH   1   5
ATOM      2  C   UNL     1      35.488  -1.970  37.140  0.00  0.00    +0.000 C 
ATOM      3  C   UNL     1      34.133  -1.991  36.182  0.00  0.00    +0.000 C 
ATOM      4  C   UNL     1      34.893  -1.181  34.968  0.00  0.00    +0.000 C 
ATOM      5  C   UNL     1      33.879  -1.260  33.886  0.00  0.00    +0.000 C 
ATOM      6  C   UNL     1      33.287  -2.403  33.663  0.00  0.00    +0.000 C 
ATOM      7  C   UNL     1      33.545  -3.634  34.403  0.00  0.00    +0.000 C 
ATOM      8  C   UNL     1      32.215  -4.187  34.877  0.00  0.00    +0.000 C 
ATOM      9  C   UNL     1      34.150  -4.677  33.475  0.00  0.00    +0.000 C 
ATOM     10  C   UNL     1      34.521  -3.467  35.550  0.00  0.00    +0.000 C 
ENDBRANCH   1   5
BRANCH   1  11
ATOM     11  N   UNL     1      33.569   1.131  33.868  0.00  0.00    +0.000 NA
ATOM     12  C   UNL     1      33.743   2.392  33.305  0.00  0.00    +0.000 C 
ATOM     13  O   UNL     1      33.948   2.494  32.069  0.00  0.00    +0.000 OA
BRANCH  12  14
ATOM     14  C   UNL     1      33.690   3.612  34.135  0.00  0.00    +0.000 A 
ATOM     15  C   UNL     1      32.976   4.722  33.743  0.00  0.00    +0.000 A 
ATOM     16  C   UNL     1      32.944   5.849  34.539  0.00  0.00    +0.000 A 
ATOM     17  C   UNL     1      33.614   5.921  35.746  0.00  0.00    +0.000 A 
ATOM     18  C   UNL     1      34.329   4.807  36.139  0.00  0.00    +0.000 A 
ATOM     19  C   UNL     1      34.355   3.685  35.334  0.00  0.00    +0.000 A 
ENDBRANCH  12  14
ENDBRANCH   1  11
TORSDOF 3
ENDMDL
MODEL 6
REMARK VINA RESULT:      -6.4      2.202      3.967
REMARK  Name = 
REMARK  3 active torsions:
REMARK  status: ('A' for Active; 'I' for Inactive)
REMARK    1  A    between atoms: C_4  and  N_5
REMARK    2  A    between atoms: N_5  and  N_6
REMARK    3  A    between atoms: C_7  and  C_9
REMARK                            x       y       z     vdW  Elec       q    Type
REMARK                         _______ _______ _______ _____ _____    ______ ____
ROOT
ATOM      1  N   UNL     1      18.465  10.260  38.905  0.00  0.00    +0.000 NA
ENDROOT
BRANCH   1   5
ATOM      2  C   UNL     1      19.123   5.718  40.309  0.00  0.00    +0.000 C 
ATOM      3  C   UNL     1      18.823   7.246  40.882  0.00  0.00    +0.000 C 
ATOM      4  C   UNL     1      18.489   7.820  39.376  0.00  0.00    +0.000 C 
ATOM      5  C   UNL     1      17.988   9.182  39.689  0.00  0.00    +0.000 C 
ATOM      6  C   UNL     1      17.135   9.329  40.669  0.00  0.00    +0.000 C 
ATOM      7  C   UNL     1      16.623   8.242  41.496  0.00  0.00    +0.000 C 
ATOM      8  C   UNL     1      16.817   8.625  42.950  0.00  0.00    +0.000 C 
ATOM      9  C   UNL     1      15.125   8.089  41.278  0.00  0.00    +0.000 C 
ATOM     10  C   UNL     1      17.238   6.893  41.187  0.00  0.00    +0.000 C 
ENDBRANCH   1   5
BRANCH   1  11
ATOM     11  N   UNL     1      17.698  10.615  37.771  0.00  0.00    +0.000 NA
ATOM     12  C   UNL     1      18.012  10.265  36.461  0.00  0.00    +0.000 C 
ATOM     13  O   UNL     1      19.044   9.584  36.234  0.00  0.00    +0.000 OA
BRANCH  12  14
ATOM     14  C   UNL     1      17.154  10.680  35.334  0.00  0.00    +0.000 A 
ATOM     15  C   UNL     1      16.100  11.549  35.509  0.00  0.00    +0.000 A 
ATOM     16  C   UNL     1      15.315  11.920  34.437  0.00  0.00    +0.000 A 
ATOM     17  C   UNL     1      15.540  11.448  33.158  0.00  0.00    +0.000 A 
ATOM     18  C   UNL     1      16.596  10.577  32.982  0.00  0.00    +0.000 A 
ATOM     19  C   UNL     1      17.375  10.211  34.063  0.00  0.00    +0.000 A 
ENDBRANCH  12  14
ENDBRANCH   1  11
TORSDOF 3
ENDMDL
MODEL 7
REMARK VINA RESULT:      -6.3      2.297      3.673
REMARK  Name = 
REMARK  3 active torsions:
REMARK  status: ('A' for Active; 'I' for Inactive)
REMARK    1  A    between atoms: C_4  and  N_5
REMARK    2  A    between atoms: N_5  and  N_6
REMARK    3  A    between atoms: C_7  and  C_9
REMARK                            x       y       z     vdW  Elec       q    Type
REMARK                         _______ _______ _______ _____ _____    ______ ____
ROOT
ATOM      1  N   UNL     1      19.200  10.888  38.162  0.00  0.00    +0.000 NA
ENDROOT
BRANCH   1   5
ATOM      2  C   UNL     1      23.118  13.437  39.256  0.00  0.00    +0.000 C 
ATOM      3  C   UNL     1      22.538  11.885  39.157  0.00  0.00    +0.000 C 
ATOM      4  C   UNL     1      21.190  12.367  38.345  0.00  0.00    +0.000 C 
ATOM      5  C   UNL     1      20.593  11.059  37.972  0.00  0.00    +0.000 C 
ATOM      6  C   UNL     1      21.372  10.128  37.489  0.00  0.00    +0.000 C 
ATOM      7  C   UNL     1      22.809  10.270  37.279  0.00  0.00    +0.000 C 
ATOM      8  C   UNL     1      23.500   9.093  37.940  0.00  0.00    +0.000 C 
ATOM      9  C   UNL     1      23.125  10.188  35.793  0.00  0.00    +0.000 C 
ATOM     10  C   UNL     1      23.372  11.591  37.762  0.00  0.00    +0.000 C 
ENDBRANCH   1   5
BRANCH   1  11
ATOM     11  N   UNL     1      18.360  11.234  37.080  0.00  0.00    +0.000 NA
ATOM     12  C   UNL     1      17.816  10.326  36.176  0.00  0.00    +0.000 C 
ATOM     13  O   UNL     1      18.071   9.101  36.302  0.00  0.00    +0.000 OA
BRANCH  12  14
ATOM     14  C   UNL     1      16.946  10.776  35.072  0.00  0.00    +0.000 A 
ATOM     15  C   UNL     1      17.184  10.406  33.767  0.00  0.00    +0.000 A 
ATOM     16  C   UNL     1      16.354  10.841  32.755  0.00  0.00    +0.000 A 
ATOM     17  C   UNL     1      15.262  11.655  32.992  0.00  0.00    +0.000 A 
ATOM     18  C   UNL     1      15.023  12.026  34.300  0.00  0.00    +0.000 A 
ATOM     19  C   UNL     1      15.862  11.585  35.306  0.00  0.00    +0.000 A 
ENDBRANCH  12  14
ENDBRANCH   1  11
TORSDOF 3
ENDMDL
MODEL 8
REMARK VINA RESULT:      -6.2     20.731     23.004
REMARK  Name = 
REMARK  3 active torsions:
REMARK  status: ('A' for Active; 'I' for Inactive)
REMARK    1  A    between atoms: C_4  and  N_5
REMARK    2  A    between atoms: N_5  and  N_6
REMARK    3  A    between atoms: C_7  and  C_9
REMARK                            x       y       z     vdW  Elec       q    Type
REMARK                         _______ _______ _______ _____ _____    ______ ____
ROOT
ATOM      1  N   UNL     1      33.277  -4.355  34.412  0.00  0.00    +0.000 NA
ENDROOT
BRANCH   1   5
ATOM      2  C   UNL     1      35.973  -1.267  36.909  0.00  0.00    +0.000 C 
ATOM      3  C   UNL     1      35.496  -1.655  35.368  0.00  0.00    +0.000 C 
ATOM      4  C   UNL     1      34.322  -2.672  35.914  0.00  0.00    +0.000 C 
ATOM      5  C   UNL     1      33.613  -3.001  34.651  0.00  0.00    +0.000 C 
ATOM      6  C   UNL     1      33.331  -2.033  33.819  0.00  0.00    +0.000 C 
ATOM      7  C   UNL     1      33.660  -0.628  34.033  0.00  0.00    +0.000 C 
ATOM      8  C   UNL     1      34.381  -0.120  32.799  0.00  0.00    +0.000 C 
ATOM      9  C   UNL     1      32.383   0.187  34.163  0.00  0.00    +0.000 C 
ATOM     10  C   UNL     1      34.461  -0.371  35.293  0.00  0.00    +0.000 C 
ENDBRANCH   1   5
BRANCH   1  11
ATOM     11  N   UNL     1      33.312  -4.797  33.070  0.00  0.00    +0.000 NA
ATOM     12  C   UNL     1      34.344  -5.541  32.507  0.00  0.00    +0.000 C 
ATOM     13  O   UNL     1      35.332  -5.863  33.215  0.00  0.00    +0.000 OA
BRANCH  12  14
ATOM     14  C   UNL     1      34.299  -5.960  31.092  0.00  0.00    +0.000 A 
ATOM     15  C   UNL     1      34.940  -7.098  30.654  0.00  0.00    +0.000 A 
ATOM     16  C   UNL     1      34.880  -7.465  29.326  0.00  0.00    +0.000 A 
ATOM     17  C   UNL     1      34.188  -6.727  28.384  0.00  0.00    +0.000 A 
ATOM     18  C   UNL     1      33.545  -5.587  28.824  0.00  0.00    +0.000 A 
ATOM     19  C   UNL     1      33.613  -5.227  30.156  0.00  0.00    +0.000 A 
ENDBRANCH  12  14
ENDBRANCH   1  11
TORSDOF 3
ENDMDL
MODEL 9
REMARK VINA RESULT:      -6.2     20.119     22.588
REMARK  Name = 
REMARK  3 active torsions:
REMARK  status: ('A' for Active; 'I' for Inactive)
REMARK    1  A    between atoms: C_4  and  N_5
REMARK    2  A    between atoms: N_5  and  N_6
REMARK    3  A    between atoms: C_7  and  C_9
REMARK                            x       y       z     vdW  Elec       q    Type
REMARK                         _______ _______ _______ _____ _____    ______ ____
ROOT
ATOM      1  N   UNL     1      33.511  -4.668  33.341  0.00  0.00    +0.000 NA
ENDROOT
BRANCH   1   5
ATOM      2  C   UNL     1      30.182  -7.193  30.979  0.00  0.00    +0.000 C 
ATOM      3  C   UNL     1      31.375  -6.059  30.767  0.00  0.00    +0.000 C 
ATOM      4  C   UNL     1      31.977  -6.310  32.277  0.00  0.00    +0.000 C 
ATOM      5  C   UNL     1      33.221  -5.500  32.233  0.00  0.00    +0.000 C 
ATOM      6  C   UNL     1      33.990  -5.588  31.179  0.00  0.00    +0.000 C 
ATOM      7  C   UNL     1      33.723  -6.434  30.021  0.00  0.00    +0.000 C 
ATOM      8  C   UNL     1      33.825  -5.575  28.776  0.00  0.00    +0.000 C 
ATOM      9  C   UNL     1      34.796  -7.505  29.906  0.00  0.00    +0.000 C 
ATOM     10  C   UNL     1      32.397  -7.165  30.088  0.00  0.00    +0.000 C 
ENDBRANCH   1   5
BRANCH   1  11
ATOM     11  N   UNL     1      33.548  -3.275  33.104  0.00  0.00    +0.000 NA
ATOM     12  C   UNL     1      33.477  -2.300  34.094  0.00  0.00    +0.000 C 
ATOM     13  O   UNL     1      33.373  -2.649  35.298  0.00  0.00    +0.000 OA
BRANCH  12  14
ATOM     14  C   UNL     1      33.521  -0.864  33.757  0.00  0.00    +0.000 A 
ATOM     15  C   UNL     1      32.790   0.067  34.460  0.00  0.00    +0.000 A 
ATOM     16  C   UNL     1      32.851   1.403  34.122  0.00  0.00    +0.000 A 
ATOM     17  C   UNL     1      33.633   1.868  33.082  0.00  0.00    +0.000 A 
ATOM     18  C   UNL     1      34.367   0.934  32.377  0.00  0.00    +0.000 A 
ATOM     19  C   UNL     1      34.297  -0.401  32.723  0.00  0.00    +0.000 A 
ENDBRANCH  12  14
ENDBRANCH   1  11
TORSDOF 3
ENDMDL
MODEL 10
REMARK VINA RESULT:      -6.1     22.534     24.760
REMARK  Name = 
REMARK  3 active torsions:
REMARK  status: ('A' for Active; 'I' for Inactive)
REMARK    1  A    between atoms: C_4  and  N_5
REMARK    2  A    between atoms: N_5  and  N_6
REMARK    3  A    between atoms: C_7  and  C_9
REMARK                            x       y       z     vdW  Elec       q    Type
REMARK                         _______ _______ _______ _____ _____    ______ ____
ROOT
ATOM      1  N   UNL     1      29.686  25.326  20.413  0.00  0.00    +0.000 NA
ENDROOT
BRANCH   1   5
ATOM      2  C   UNL     1      28.124  29.747  21.439  0.00  0.00    +0.000 C 
ATOM      3  C   UNL     1      29.456  28.906  20.921  0.00  0.00    +0.000 C 
ATOM      4  C   UNL     1      28.579  27.537  20.664  0.00  0.00    +0.000 C 
ATOM      5  C   UNL     1      29.580  26.672  19.989  0.00  0.00    +0.000 C 
ATOM      6  C   UNL     1      30.316  27.187  19.040  0.00  0.00    +0.000 C 
ATOM      7  C   UNL     1      30.234  28.568  18.577  0.00  0.00    +0.000 C 
ATOM      8  C   UNL     1      31.632  29.155  18.595  0.00  0.00    +0.000 C 
ATOM      9  C   UNL     1      29.761  28.601  17.132  0.00  0.00    +0.000 C 
ATOM     10  C   UNL     1      29.260  29.421  19.364  0.00  0.00    +0.000 C 
ENDBRANCH   1   5
BRANCH   1  11
ATOM     11  N   UNL     1      28.708  24.862  21.322  0.00  0.00    +0.000 NA
ATOM     12  C   UNL     1      28.984  24.191  22.510  0.00  0.00    +0.000 C 
ATOM     13  O   UNL     1      30.179  23.966  22.829  0.00  0.00    +0.000 OA
BRANCH  12  14
ATOM     14  C   UNL     1      27.898  23.740  23.401  0.00  0.00    +0.000 A 
ATOM     15  C   UNL     1      28.148  23.305  24.684  0.00  0.00    +0.000 A 
ATOM     16  C   UNL     1      27.114  22.889  25.495  0.00  0.00    +0.000 A 
ATOM     17  C   UNL     1      25.797  22.887  25.073  0.00  0.00    +0.000 A 
ATOM     18  C   UNL     1      25.546  23.324  23.788  0.00  0.00    +0.000 A 
ATOM     19  C   UNL     1      26.590  23.737  22.983  0.00  0.00    +0.000 A 
ENDBRANCH  12  14
ENDBRANCH   1  11
TORSDOF 3
ENDMDL
