MODEL 1
REMARK VINA RESULT:      -8.1      0.000      0.000
REMARK  Name = 
REMARK  6 active torsions:
REMARK  status: ('A' for Active; 'I' for Inactive)
REMARK    1  A    between atoms: O_2  and  C_3
REMARK    2  A    between atoms: C_8  and  N_9
REMARK    3  A    between atoms: C_10  and  C_12
REMARK    4  A    between atoms: C_13  and  N_14
REMARK    5  A    between atoms: C_15  and  C_17
REMARK    6  A    between atoms: C_17  and  C_18
REMARK                            x       y       z     vdW  Elec       q    Type
REMARK                         _______ _______ _______ _____ _____    ______ ____
ROOT
ATOM      1  C   UNL     1      39.521   0.232  14.186  0.00  0.00    +0.000 A 
ATOM      2  C   UNL     1      39.912   1.510  14.187  0.00  0.00    +0.000 A 
ATOM      3  S   UNL     1      41.377   1.432  13.174  0.00  0.00    +0.000 S 
ATOM      4  C   UNL     1      41.354  -0.222  12.833  0.00  0.00    +0.000 A 
ATOM      5  C   UNL     1      40.260  -0.668  13.483  0.00  0.00    +0.000 A 
ATOM      6  C   UNL     1      40.063  -2.155  13.295  0.00  0.00    +0.000 C 
ATOM      7  C   UNL     1      41.315  -2.876  13.679  0.00  0.00    +0.000 C 
ATOM      8  C   UNL     1      42.513  -2.406  12.893  0.00  0.00    +0.000 C 
ATOM      9  C   UNL     1      42.200  -1.198  12.047  0.00  0.00    +0.000 C 
ENDROOT
BRANCH   1  11
ATOM     10  N   UNL     1      37.080  -0.291  14.645  0.00  0.00    +0.000 NA
ATOM     11  C   UNL     1      38.437  -0.265  15.072  0.00  0.00    +0.000 C 
ATOM     12  O   UNL     1      38.652  -0.673  16.213  0.00  0.00    +0.000 OA
BRANCH  10  18
ATOM     13  C   UNL     1      35.723  -2.135  15.431  0.00  0.00    +0.000 A 
ATOM     14  C   UNL     1      34.778  -2.642  16.279  0.00  0.00    +0.000 A 
ATOM     15  C   UNL     1      34.155  -1.869  17.222  0.00  0.00    +0.000 A 
ATOM     16  C   UNL     1      34.482  -0.541  17.330  0.00  0.00    +0.000 A 
ATOM     17  C   UNL     1      35.432  -0.038  16.473  0.00  0.00    +0.000 A 
ATOM     18  C   UNL     1      36.078  -0.777  15.517  0.00  0.00    +0.000 A 
BRANCH  13  20
ATOM     19  C   UNL     1      37.141  -3.997  14.887  0.00  0.00    +0.000 C 
ATOM     20  O   UNL     1      36.363  -2.915  14.465  0.00  0.00    +0.000 OA
ENDBRANCH  13  20
ENDBRANCH  10  18
ENDBRANCH   1  11
BRANCH   2  21
ATOM     21  N   UNL     1      39.470   2.760  14.559  0.00  0.00    +0.000 NA
ATOM     22  C   UNL     1      38.593   3.374  15.377  0.00  0.00    +0.000 C 
ATOM     23  O   UNL     1      37.832   2.717  16.103  0.00  0.00    +0.000 OA
BRANCH  22  24
ATOM     24  C   UNL     1      38.438   4.877  15.496  0.00  0.00    +0.000 C 
BRANCH  24  25
ATOM     25  C   UNL     1      39.261   5.361  16.643  0.00  0.00    +0.000 A 
ATOM     26  C   UNL     1      38.771   5.274  17.932  0.00  0.00    +0.000 A 
ATOM     27  C   UNL     1      39.525   5.736  18.998  0.00  0.00    +0.000 A 
ATOM     28  C   UNL     1      40.754   6.283  18.818  0.00  0.00    +0.000 A 
ATOM     29  C   UNL     1      41.274   6.383  17.530  0.00  0.00    +0.000 A 
ATOM     30  C   UNL     1      40.513   5.918  16.476  0.00  0.00    +0.000 A 
ENDBRANCH  24  25
ENDBRANCH  22  24
ENDBRANCH   2  21
TORSDOF 6
ENDMDL
MODEL 2
REMARK VINA RESULT:      -8.0      1.906      5.070
REMARK  Name = 
REMARK  6 active torsions:
REMARK  status: ('A' for Active; 'I' for Inactive)
REMARK    1  A    between atoms: O_2  and  C_3
REMARK    2  A    between atoms: C_8  and  N_9
REMARK    3  A    between atoms: C_10  and  C_12
REMARK    4  A    between atoms: C_13  and  N_14
REMARK    5  A    between atoms: C_15  and  C_17
REMARK    6  A    between atoms: C_17  and  C_18
REMARK                            x       y       z     vdW  Elec       q    Type
REMARK                         _______ _______ _______ _____ _____    ______ ____
ROOT
ATOM      1  C   UNL     1      36.887   0.305  15.866  0.00  0.00    +0.000 A 
ATOM      2  C   UNL     1      36.479   1.553  16.112  0.00  0.00    +0.000 A 
ATOM      3  S   UNL     1      34.963   1.260  17.003  0.00  0.00    +0.000 S 
ATOM      4  C   UNL     1      34.992  -0.429  16.990  0.00  0.00    +0.000 A 
ATOM      5  C   UNL     1      36.125  -0.725  16.321  0.00  0.00    +0.000 A 
ATOM      6  C   UNL     1      36.333  -2.218  16.203  0.00  0.00    +0.000 C 
ATOM      7  C   UNL     1      35.113  -2.845  15.608  0.00  0.00    +0.000 C 
ATOM      8  C   UNL     1      33.869  -2.554  16.408  0.00  0.00    +0.000 C 
ATOM      9  C   UNL     1      34.119  -1.551  17.505  0.00  0.00    +0.000 C 
ENDROOT
BRANCH   1  11
ATOM     10  N   UNL     1      39.241  -0.547  15.441  0.00  0.00    +0.000 NA
ATOM     11  C   UNL     1      38.024   0.009  14.956  0.00  0.00    +0.000 C 
ATOM     12  O   UNL     1      37.976   0.231  13.746  0.00  0.00    +0.000 OA
BRANCH  10  18
ATOM     13  C   UNL     1      40.303  -2.059  13.879  0.00  0.00    +0.000 A 
ATOM     14  C   UNL     1      41.296  -2.342  12.982  0.00  0.00    +0.000 A 
ATOM     15  C   UNL     1      42.297  -1.453  12.698  0.00  0.00    +0.000 A 
ATOM     16  C   UNL     1      42.317  -0.234  13.328  0.00  0.00    +0.000 A 
ATOM     17  C   UNL     1      41.316   0.043  14.230  0.00  0.00    +0.000 A 
ATOM     18  C   UNL     1      40.297  -0.819  14.541  0.00  0.00    +0.000 A 
BRANCH  13  20
ATOM     19  C   UNL     1      38.285  -3.183  13.217  0.00  0.00    +0.000 C 
ATOM     20  O   UNL     1      39.278  -2.961  14.176  0.00  0.00    +0.000 OA
ENDBRANCH  13  20
ENDBRANCH  10  18
ENDBRANCH   1  11
BRANCH   2  21
ATOM     21  N   UNL     1      36.922   2.855  16.035  0.00  0.00    +0.000 NA
ATOM     22  C   UNL     1      38.008   3.589  15.723  0.00  0.00    +0.000 C 
ATOM     23  O   UNL     1      39.068   3.043  15.382  0.00  0.00    +0.000 OA
BRANCH  22  24
ATOM     24  C   UNL     1      38.060   5.103  15.758  0.00  0.00    +0.000 C 
BRANCH  24  25
ATOM     25  C   UNL     1      39.032   5.532  16.805  0.00  0.00    +0.000 A 
ATOM     26  C   UNL     1      40.267   6.034  16.438  0.00  0.00    +0.000 A 
ATOM     27  C   UNL     1      41.178   6.419  17.407  0.00  0.00    +0.000 A 
ATOM     28  C   UNL     1      40.898   6.318  18.731  0.00  0.00    +0.000 A 
ATOM     29  C   UNL     1      39.661   5.817  19.130  0.00  0.00    +0.000 A 
ATOM     30  C   UNL     1      38.760   5.438  18.155  0.00  0.00    +0.000 A 
ENDBRANCH  24  25
ENDBRANCH  22  24
ENDBRANCH   2  21
TORSDOF 6
ENDMDL
MODEL 3
REMARK VINA RESULT:      -7.8      1.998      5.221
REMARK  Name = 
REMARK  6 active torsions:
REMARK  status: ('A' for Active; 'I' for Inactive)
REMARK    1  A    between atoms: O_2  and  C_3
REMARK    2  A    between atoms: C_8  and  N_9
REMARK    3  A    between atoms: C_10  and  C_12
REMARK    4  A    between atoms: C_13  and  N_14
REMARK    5  A    between atoms: C_15  and  C_17
REMARK    6  A    between atoms: C_17  and  C_18
REMARK                            x       y       z     vdW  Elec       q    Type
REMARK                         _______ _______ _______ _____ _____    ______ ____
ROOT
ATOM      1  C   UNL     1      36.955   0.024  15.844  0.00  0.00    +0.000 A 
ATOM      2  C   UNL     1      36.635   1.317  15.945  0.00  0.00    +0.000 A 
ATOM      3  S   UNL     1      35.086   1.231  16.823  0.00  0.00    +0.000 S 
ATOM      4  C   UNL     1      34.991  -0.447  16.991  0.00  0.00    +0.000 A 
ATOM      5  C   UNL     1      36.111  -0.894  16.387  0.00  0.00    +0.000 A 
ATOM      6  C   UNL     1      36.211  -2.402  16.435  0.00  0.00    +0.000 C 
ATOM      7  C   UNL     1      34.960  -3.001  15.879  0.00  0.00    +0.000 C 
ATOM      8  C   UNL     1      33.726  -2.538  16.611  0.00  0.00    +0.000 C 
ATOM      9  C   UNL     1      34.029  -1.441  17.601  0.00  0.00    +0.000 C 
ENDROOT
BRANCH   1  11
ATOM     10  N   UNL     1      37.914  -0.724  13.616  0.00  0.00    +0.000 NA
ATOM     11  C   UNL     1      38.084  -0.449  15.001  0.00  0.00    +0.000 C 
ATOM     12  O   UNL     1      39.215  -0.628  15.453  0.00  0.00    +0.000 OA
BRANCH  10  18
ATOM     13  C   UNL     1      39.723  -0.216  12.091  0.00  0.00    +0.000 A 
ATOM     14  C   UNL     1      40.810  -0.607  11.359  0.00  0.00    +0.000 A 
ATOM     15  C   UNL     1      41.242  -1.906  11.332  0.00  0.00    +0.000 A 
ATOM     16  C   UNL     1      40.571  -2.856  12.061  0.00  0.00    +0.000 A 
ATOM     17  C   UNL     1      39.478  -2.455  12.794  0.00  0.00    +0.000 A 
ATOM     18  C   UNL     1      39.015  -1.167  12.847  0.00  0.00    +0.000 A 
BRANCH  13  20
ATOM     19  C   UNL     1      39.116   1.789  10.914  0.00  0.00    +0.000 C 
ATOM     20  O   UNL     1      39.274   1.107  12.124  0.00  0.00    +0.000 OA
ENDBRANCH  13  20
ENDBRANCH  10  18
ENDBRANCH   1  11
BRANCH   2  21
ATOM     21  N   UNL     1      37.174   2.568  15.741  0.00  0.00    +0.000 NA
ATOM     22  C   UNL     1      38.313   3.185  15.367  0.00  0.00    +0.000 C 
ATOM     23  O   UNL     1      39.330   2.530  15.094  0.00  0.00    +0.000 OA
BRANCH  22  24
ATOM     24  C   UNL     1      38.477   4.687  15.248  0.00  0.00    +0.000 C 
BRANCH  24  25
ATOM     25  C   UNL     1      39.188   5.195  16.458  0.00  0.00    +0.000 A 
ATOM     26  C   UNL     1      38.630   5.026  17.711  0.00  0.00    +0.000 A 
ATOM     27  C   UNL     1      39.280   5.509  18.834  0.00  0.00    +0.000 A 
ATOM     28  C   UNL     1      40.469   6.158  18.747  0.00  0.00    +0.000 A 
ATOM     29  C   UNL     1      41.055   6.342  17.496  0.00  0.00    +0.000 A 
ATOM     30  C   UNL     1      40.398   5.854  16.384  0.00  0.00    +0.000 A 
ENDBRANCH  24  25
ENDBRANCH  22  24
ENDBRANCH   2  21
TORSDOF 6
ENDMDL
MODEL 4
REMARK VINA RESULT:      -7.6      1.027      1.777
REMARK  Name = 
REMARK  6 active torsions:
REMARK  status: ('A' for Active; 'I' for Inactive)
REMARK    1  A    between atoms: O_2  and  C_3
REMARK    2  A    between atoms: C_8  and  N_9
REMARK    3  A    between atoms: C_10  and  C_12
REMARK    4  A    between atoms: C_13  and  N_14
REMARK    5  A    between atoms: C_15  and  C_17
REMARK    6  A    between atoms: C_17  and  C_18
REMARK                            x       y       z     vdW  Elec       q    Type
REMARK                         _______ _______ _______ _____ _____    ______ ____
ROOT
ATOM      1  C   UNL     1      39.361   0.114  13.853  0.00  0.00    +0.000 A 
ATOM      2  C   UNL     1      39.781   1.356  14.114  0.00  0.00    +0.000 A 
ATOM      3  S   UNL     1      41.472   1.282  13.556  0.00  0.00    +0.000 S 
ATOM      4  C   UNL     1      41.489  -0.324  13.031  0.00  0.00    +0.000 A 
ATOM      5  C   UNL     1      40.239  -0.758  13.288  0.00  0.00    +0.000 A 
ATOM      6  C   UNL     1      40.051  -2.201  12.879  0.00  0.00    +0.000 C 
ATOM      7  C   UNL     1      41.112  -3.041  13.514  0.00  0.00    +0.000 C 
ATOM      8  C   UNL     1      42.502  -2.576  13.160  0.00  0.00    +0.000 C 
ATOM      9  C   UNL     1      42.491  -1.269  12.407  0.00  0.00    +0.000 C 
ENDROOT
BRANCH   1  11
ATOM     10  N   UNL     1      37.949  -1.228  15.481  0.00  0.00    +0.000 NA
ATOM     11  C   UNL     1      38.050  -0.395  14.332  0.00  0.00    +0.000 C 
ATOM     12  O   UNL     1      36.991  -0.129  13.763  0.00  0.00    +0.000 OA
BRANCH  10  18
ATOM     13  C   UNL     1      36.092  -1.069  17.025  0.00  0.00    +0.000 A 
ATOM     14  C   UNL     1      34.854  -1.471  17.445  0.00  0.00    +0.000 A 
ATOM     15  C   UNL     1      34.156  -2.465  16.812  0.00  0.00    +0.000 A 
ATOM     16  C   UNL     1      34.706  -3.085  15.718  0.00  0.00    +0.000 A 
ATOM     17  C   UNL     1      35.951  -2.676  15.302  0.00  0.00    +0.000 A 
ATOM     18  C   UNL     1      36.681  -1.686  15.907  0.00  0.00    +0.000 A 
BRANCH  13  20
ATOM     19  C   UNL     1      36.370   0.390  18.913  0.00  0.00    +0.000 C 
ATOM     20  O   UNL     1      36.812  -0.058  17.664  0.00  0.00    +0.000 OA
ENDBRANCH  13  20
ENDBRANCH  10  18
ENDBRANCH   1  11
BRANCH   2  21
ATOM     21  N   UNL     1      39.295   2.588  14.491  0.00  0.00    +0.000 NA
ATOM     22  C   UNL     1      38.400   3.169  15.313  0.00  0.00    +0.000 C 
ATOM     23  O   UNL     1      37.666   2.484  16.041  0.00  0.00    +0.000 OA
BRANCH  22  24
ATOM     24  C   UNL     1      38.191   4.666  15.435  0.00  0.00    +0.000 C 
BRANCH  24  25
ATOM     25  C   UNL     1      39.060   5.190  16.529  0.00  0.00    +0.000 A 
ATOM     26  C   UNL     1      38.643   5.107  17.844  0.00  0.00    +0.000 A 
ATOM     27  C   UNL     1      39.441   5.606  18.860  0.00  0.00    +0.000 A 
ATOM     28  C   UNL     1      40.640   6.187  18.607  0.00  0.00    +0.000 A 
ATOM     29  C   UNL     1      41.086   6.283  17.290  0.00  0.00    +0.000 A 
ATOM     30  C   UNL     1      40.284   5.781  16.286  0.00  0.00    +0.000 A 
ENDBRANCH  24  25
ENDBRANCH  22  24
ENDBRANCH   2  21
TORSDOF 6
ENDMDL
MODEL 5
REMARK VINA RESULT:      -7.4      2.938      7.329
REMARK  Name = 
REMARK  6 active torsions:
REMARK  status: ('A' for Active; 'I' for Inactive)
REMARK    1  A    between atoms: O_2  and  C_3
REMARK    2  A    between atoms: C_8  and  N_9
REMARK    3  A    between atoms: C_10  and  C_12
REMARK    4  A    between atoms: C_13  and  N_14
REMARK    5  A    between atoms: C_15  and  C_17
REMARK    6  A    between atoms: C_17  and  C_18
REMARK                            x       y       z     vdW  Elec       q    Type
REMARK                         _______ _______ _______ _____ _____    ______ ____
ROOT
ATOM      1  C   UNL     1      36.791   1.898  14.666  0.00  0.00    +0.000 A 
ATOM      2  C   UNL     1      35.732   1.517  15.386  0.00  0.00    +0.000 A 
ATOM      3  S   UNL     1      34.686   2.955  15.263  0.00  0.00    +0.000 S 
ATOM      4  C   UNL     1      35.690   3.909  14.296  0.00  0.00    +0.000 A 
ATOM      5  C   UNL     1      36.773   3.132  14.095  0.00  0.00    +0.000 A 
ATOM      6  C   UNL     1      37.807   3.822  13.234  0.00  0.00    +0.000 C 
ATOM      7  C   UNL     1      38.135   5.156  13.823  0.00  0.00    +0.000 C 
ATOM      8  C   UNL     1      36.918   6.032  13.978  0.00  0.00    +0.000 C 
ATOM      9  C   UNL     1      35.640   5.289  13.680  0.00  0.00    +0.000 C 
ENDROOT
BRANCH   1  11
ATOM     10  N   UNL     1      38.124  -0.146  13.962  0.00  0.00    +0.000 NA
ATOM     11  C   UNL     1      38.049   1.108  14.631  0.00  0.00    +0.000 C 
ATOM     12  O   UNL     1      39.084   1.492  15.176  0.00  0.00    +0.000 OA
BRANCH  10  18
ATOM     13  C   UNL     1      40.238  -0.630  12.889  0.00  0.00    +0.000 A 
ATOM     14  C   UNL     1      41.437  -1.287  12.860  0.00  0.00    +0.000 A 
ATOM     15  C   UNL     1      41.804  -2.176  13.836  0.00  0.00    +0.000 A 
ATOM     16  C   UNL     1      40.951  -2.422  14.881  0.00  0.00    +0.000 A 
ATOM     17  C   UNL     1      39.747  -1.758  14.903  0.00  0.00    +0.000 A 
ATOM     18  C   UNL     1      39.342  -0.863  13.947  0.00  0.00    +0.000 A 
BRANCH  13  20
ATOM     19  C   UNL     1      40.548   1.487  11.794  0.00  0.00    +0.000 C 
ATOM     20  O   UNL     1      39.853   0.277  11.899  0.00  0.00    +0.000 OA
ENDBRANCH  13  20
ENDBRANCH  10  18
ENDBRANCH   1  11
BRANCH   2  21
ATOM     21  N   UNL     1      35.198   0.400  15.988  0.00  0.00    +0.000 NA
ATOM     22  C   UNL     1      34.986  -0.154  17.199  0.00  0.00    +0.000 C 
ATOM     23  O   UNL     1      35.365   0.415  18.234  0.00  0.00    +0.000 OA
BRANCH  22  24
ATOM     24  C   UNL     1      34.296  -1.484  17.426  0.00  0.00    +0.000 C 
BRANCH  24  25
ATOM     25  C   UNL     1      35.072  -2.558  16.739  0.00  0.00    +0.000 A 
ATOM     26  C   UNL     1      36.342  -2.882  17.178  0.00  0.00    +0.000 A 
ATOM     27  C   UNL     1      37.071  -3.867  16.535  0.00  0.00    +0.000 A 
ATOM     28  C   UNL     1      36.575  -4.539  15.466  0.00  0.00    +0.000 A 
ATOM     29  C   UNL     1      35.297  -4.234  15.002  0.00  0.00    +0.000 A 
ATOM     30  C   UNL     1      34.579  -3.251  15.653  0.00  0.00    +0.000 A 
ENDBRANCH  24  25
ENDBRANCH  22  24
ENDBRANCH   2  21
TORSDOF 6
ENDMDL
MODEL 6
REMARK VINA RESULT:      -7.4      2.592      3.614
REMARK  Name = 
REMARK  6 active torsions:
REMARK  status: ('A' for Active; 'I' for Inactive)
REMARK    1  A    between atoms: O_2  and  C_3
REMARK    2  A    between atoms: C_8  and  N_9
REMARK    3  A    between atoms: C_10  and  C_12
REMARK    4  A    between atoms: C_13  and  N_14
REMARK    5  A    between atoms: C_15  and  C_17
REMARK    6  A    between atoms: C_17  and  C_18
REMARK                            x       y       z     vdW  Elec       q    Type
REMARK                         _______ _______ _______ _____ _____    ______ ____
ROOT
ATOM      1  C   UNL     1      38.244   1.691  14.425  0.00  0.00    +0.000 A 
ATOM      2  C   UNL     1      38.380   2.878  15.024  0.00  0.00    +0.000 A 
ATOM      3  S   UNL     1      38.086   3.995  13.666  0.00  0.00    +0.000 S 
ATOM      4  C   UNL     1      37.807   2.847  12.459  0.00  0.00    +0.000 A 
ATOM      5  C   UNL     1      37.943   1.668  13.099  0.00  0.00    +0.000 A 
ATOM      6  C   UNL     1      37.725   0.496  12.169  0.00  0.00    +0.000 C 
ATOM      7  C   UNL     1      38.621   0.631  10.980  0.00  0.00    +0.000 C 
ATOM      8  C   UNL     1      38.406   1.928  10.242  0.00  0.00    +0.000 C 
ATOM      9  C   UNL     1      37.478   2.858  10.983  0.00  0.00    +0.000 C 
ENDROOT
BRANCH   1  11
ATOM     10  N   UNL     1      37.619  -0.371  15.767  0.00  0.00    +0.000 NA
ATOM     11  C   UNL     1      38.599   0.417  15.103  0.00  0.00    +0.000 C 
ATOM     12  O   UNL     1      39.751  -0.018  15.128  0.00  0.00    +0.000 OA
BRANCH  10  18
ATOM     13  C   UNL     1      37.896  -1.663  17.794  0.00  0.00    +0.000 A 
ATOM     14  C   UNL     1      38.228  -2.827  18.430  0.00  0.00    +0.000 A 
ATOM     15  C   UNL     1      38.660  -3.933  17.746  0.00  0.00    +0.000 A 
ATOM     16  C   UNL     1      38.767  -3.883  16.379  0.00  0.00    +0.000 A 
ATOM     17  C   UNL     1      38.433  -2.707  15.748  0.00  0.00    +0.000 A 
ATOM     18  C   UNL     1      37.997  -1.581  16.395  0.00  0.00    +0.000 A 
BRANCH  13  20
ATOM     19  C   UNL     1      36.221  -0.583  19.137  0.00  0.00    +0.000 C 
ATOM     20  O   UNL     1      37.456  -0.530  18.483  0.00  0.00    +0.000 OA
ENDBRANCH  13  20
ENDBRANCH  10  18
ENDBRANCH   1  11
BRANCH   2  21
ATOM     21  N   UNL     1      38.500   3.431  16.280  0.00  0.00    +0.000 NA
ATOM     22  C   UNL     1      38.341   4.590  16.947  0.00  0.00    +0.000 C 
ATOM     23  O   UNL     1      37.978   5.620  16.358  0.00  0.00    +0.000 OA
BRANCH  22  24
ATOM     24  C   UNL     1      38.583   4.766  18.434  0.00  0.00    +0.000 C 
BRANCH  24  25
ATOM     25  C   UNL     1      39.603   5.836  18.637  0.00  0.00    +0.000 A 
ATOM     26  C   UNL     1      39.449   6.753  19.659  0.00  0.00    +0.000 A 
ATOM     27  C   UNL     1      40.386   7.757  19.841  0.00  0.00    +0.000 A 
ATOM     28  C   UNL     1      41.471   7.875  19.036  0.00  0.00    +0.000 A 
ATOM     29  C   UNL     1      41.653   6.963  17.998  0.00  0.00    +0.000 A 
ATOM     30  C   UNL     1      40.713   5.966  17.827  0.00  0.00    +0.000 A 
ENDBRANCH  24  25
ENDBRANCH  22  24
ENDBRANCH   2  21
TORSDOF 6
ENDMDL
MODEL 7
REMARK VINA RESULT:      -7.3      2.236      5.852
REMARK  Name = 
REMARK  6 active torsions:
REMARK  status: ('A' for Active; 'I' for Inactive)
REMARK    1  A    between atoms: O_2  and  C_3
REMARK    2  A    between atoms: C_8  and  N_9
REMARK    3  A    between atoms: C_10  and  C_12
REMARK    4  A    between atoms: C_13  and  N_14
REMARK    5  A    between atoms: C_15  and  C_17
REMARK    6  A    between atoms: C_17  and  C_18
REMARK                            x       y       z     vdW  Elec       q    Type
REMARK                         _______ _______ _______ _____ _____    ______ ____
ROOT
ATOM      1  C   UNL     1      39.895  -0.431  14.423  0.00  0.00    +0.000 A 
ATOM      2  C   UNL     1      39.665  -1.636  14.953  0.00  0.00    +0.000 A 
ATOM      3  S   UNL     1      41.216  -2.459  14.647  0.00  0.00    +0.000 S 
ATOM      4  C   UNL     1      42.022  -1.189  13.879  0.00  0.00    +0.000 A 
ATOM      5  C   UNL     1      41.115  -0.192  13.870  0.00  0.00    +0.000 A 
ATOM      6  C   UNL     1      41.659   1.056  13.213  0.00  0.00    +0.000 C 
ATOM      7  C   UNL     1      42.179   0.715  11.853  0.00  0.00    +0.000 C 
ATOM      8  C   UNL     1      43.239  -0.356  11.894  0.00  0.00    +0.000 C 
ATOM      9  C   UNL     1      43.386  -0.959  13.268  0.00  0.00    +0.000 C 
ENDROOT
BRANCH   1  11
ATOM     10  N   UNL     1      38.163   1.171  15.358  0.00  0.00    +0.000 NA
ATOM     11  C   UNL     1      38.816   0.574  14.244  0.00  0.00    +0.000 C 
ATOM     12  O   UNL     1      38.432   0.939  13.133  0.00  0.00    +0.000 OA
BRANCH  10  18
ATOM     13  C   UNL     1      37.507   3.487  15.102  0.00  0.00    +0.000 A 
ATOM     14  C   UNL     1      36.550   4.435  14.871  0.00  0.00    +0.000 A 
ATOM     15  C   UNL     1      35.234   4.111  14.675  0.00  0.00    +0.000 A 
ATOM     16  C   UNL     1      34.851   2.794  14.710  0.00  0.00    +0.000 A 
ATOM     17  C   UNL     1      35.819   1.846  14.945  0.00  0.00    +0.000 A 
ATOM     18  C   UNL     1      37.144   2.129  15.145  0.00  0.00    +0.000 A 
BRANCH  13  20
ATOM     19  C   UNL     1      39.165   5.039  15.888  0.00  0.00    +0.000 C 
ATOM     20  O   UNL     1      38.852   3.807  15.304  0.00  0.00    +0.000 OA
ENDBRANCH  13  20
ENDBRANCH  10  18
ENDBRANCH   1  11
BRANCH   2  21
ATOM     21  N   UNL     1      38.742  -2.300  15.730  0.00  0.00    +0.000 NA
ATOM     22  C   UNL     1      38.631  -3.312  16.613  0.00  0.00    +0.000 C 
ATOM     23  O   UNL     1      39.618  -3.994  16.927  0.00  0.00    +0.000 OA
BRANCH  22  24
ATOM     24  C   UNL     1      37.339  -3.722  17.291  0.00  0.00    +0.000 C 
BRANCH  24  25
ATOM     25  C   UNL     1      36.594  -2.495  17.699  0.00  0.00    +0.000 A 
ATOM     26  C   UNL     1      37.022  -1.754  18.784  0.00  0.00    +0.000 A 
ATOM     27  C   UNL     1      36.325  -0.623  19.174  0.00  0.00    +0.000 A 
ATOM     28  C   UNL     1      35.213  -0.207  18.517  0.00  0.00    +0.000 A 
ATOM     29  C   UNL     1      34.759  -0.935  17.419  0.00  0.00    +0.000 A 
ATOM     30  C   UNL     1      35.463  -2.059  17.038  0.00  0.00    +0.000 A 
ENDBRANCH  24  25
ENDBRANCH  22  24
ENDBRANCH   2  21
TORSDOF 6
ENDMDL
MODEL 8
REMARK VINA RESULT:      -7.2      3.496      5.620
REMARK  Name = 
REMARK  6 active torsions:
REMARK  status: ('A' for Active; 'I' for Inactive)
REMARK    1  A    between atoms: O_2  and  C_3
REMARK    2  A    between atoms: C_8  and  N_9
REMARK    3  A    between atoms: C_10  and  C_12
REMARK    4  A    between atoms: C_13  and  N_14
REMARK    5  A    between atoms: C_15  and  C_17
REMARK    6  A    between atoms: C_17  and  C_18
REMARK                            x       y       z     vdW  Elec       q    Type
REMARK                         _______ _______ _______ _____ _____    ______ ____
ROOT
ATOM      1  C   UNL     1      37.598  -0.804  15.790  0.00  0.00    +0.000 A 
ATOM      2  C   UNL     1      36.577  -0.086  16.267  0.00  0.00    +0.000 A 
ATOM      3  S   UNL     1      36.459  -0.706  17.934  0.00  0.00    +0.000 S 
ATOM      4  C   UNL     1      37.729  -1.818  17.875  0.00  0.00    +0.000 A 
ATOM      5  C   UNL     1      38.202  -1.698  16.618  0.00  0.00    +0.000 A 
ATOM      6  C   UNL     1      39.366  -2.629  16.365  0.00  0.00    +0.000 C 
ATOM      7  C   UNL     1      38.971  -4.027  16.718  0.00  0.00    +0.000 C 
ATOM      8  C   UNL     1      38.507  -4.149  18.147  0.00  0.00    +0.000 C 
ATOM      9  C   UNL     1      38.374  -2.807  18.820  0.00  0.00    +0.000 C 
ENDROOT
BRANCH   1  11
ATOM     10  N   UNL     1      38.965   0.073  13.838  0.00  0.00    +0.000 NA
ATOM     11  C   UNL     1      37.964  -0.799  14.349  0.00  0.00    +0.000 C 
ATOM     12  O   UNL     1      37.422  -1.540  13.528  0.00  0.00    +0.000 OA
BRANCH  10  18
ATOM     13  C   UNL     1      40.298  -0.837  12.035  0.00  0.00    +0.000 A 
ATOM     14  C   UNL     1      40.615  -0.911  10.707  0.00  0.00    +0.000 A 
ATOM     15  C   UNL     1      39.977  -0.151   9.763  0.00  0.00    +0.000 A 
ATOM     16  C   UNL     1      38.986   0.716  10.149  0.00  0.00    +0.000 A 
ATOM     17  C   UNL     1      38.675   0.785  11.487  0.00  0.00    +0.000 A 
ATOM     18  C   UNL     1      39.288   0.042  12.462  0.00  0.00    +0.000 A 
BRANCH  13  20
ATOM     19  C   UNL     1      40.896  -3.000  12.895  0.00  0.00    +0.000 C 
ATOM     20  O   UNL     1      40.944  -1.607  13.006  0.00  0.00    +0.000 OA
ENDBRANCH  13  20
ENDBRANCH  10  18
ENDBRANCH   1  11
BRANCH   2  21
ATOM     21  N   UNL     1      35.786   0.992  15.939  0.00  0.00    +0.000 NA
ATOM     22  C   UNL     1      35.628   2.306  16.188  0.00  0.00    +0.000 C 
ATOM     23  O   UNL     1      36.371   2.896  16.987  0.00  0.00    +0.000 OA
BRANCH  22  24
ATOM     24  C   UNL     1      34.564   3.179  15.552  0.00  0.00    +0.000 C 
BRANCH  24  25
ATOM     25  C   UNL     1      35.191   4.001  14.475  0.00  0.00    +0.000 A 
ATOM     26  C   UNL     1      34.719   5.273  14.213  0.00  0.00    +0.000 A 
ATOM     27  C   UNL     1      35.288   6.033  13.205  0.00  0.00    +0.000 A 
ATOM     28  C   UNL     1      36.312   5.564  12.449  0.00  0.00    +0.000 A 
ATOM     29  C   UNL     1      36.808   4.285  12.691  0.00  0.00    +0.000 A 
ATOM     30  C   UNL     1      36.234   3.538  13.700  0.00  0.00    +0.000 A 
ENDBRANCH  24  25
ENDBRANCH  22  24
ENDBRANCH   2  21
TORSDOF 6
ENDMDL
MODEL 9
REMARK VINA RESULT:      -7.2      3.229      6.610
REMARK  Name = 
REMARK  6 active torsions:
REMARK  status: ('A' for Active; 'I' for Inactive)
REMARK    1  A    between atoms: O_2  and  C_3
REMARK    2  A    between atoms: C_8  and  N_9
REMARK    3  A    between atoms: C_10  and  C_12
REMARK    4  A    between atoms: C_13  and  N_14
REMARK    5  A    between atoms: C_15  and  C_17
REMARK    6  A    between atoms: C_17  and  C_18
REMARK                            x       y       z     vdW  Elec       q    Type
REMARK                         _______ _______ _______ _____ _____    ______ ____
ROOT
ATOM      1  C   UNL     1      39.730  -0.284  14.781  0.00  0.00    +0.000 A 
ATOM      2  C   UNL     1      39.095  -1.335  15.306  0.00  0.00    +0.000 A 
ATOM      3  S   UNL     1      40.301  -2.627  15.077  0.00  0.00    +0.000 S 
ATOM      4  C   UNL     1      41.511  -1.708  14.339  0.00  0.00    +0.000 A 
ATOM      5  C   UNL     1      40.982  -0.469  14.283  0.00  0.00    +0.000 A 
ATOM      6  C   UNL     1      41.933   0.519  13.645  0.00  0.00    +0.000 C 
ATOM      7  C   UNL     1      42.368  -0.001  12.312  0.00  0.00    +0.000 C 
ATOM      8  C   UNL     1      43.015  -1.359  12.407  0.00  0.00    +0.000 C 
ATOM      9  C   UNL     1      42.899  -1.949  13.790  0.00  0.00    +0.000 C 
ENDROOT
BRANCH   1  11
ATOM     10  N   UNL     1      37.833   1.099  13.815  0.00  0.00    +0.000 NA
ATOM     11  C   UNL     1      39.050   1.016  14.547  0.00  0.00    +0.000 C 
ATOM     12  O   UNL     1      39.500   2.082  14.969  0.00  0.00    +0.000 OA
BRANCH  10  18
ATOM     13  C   UNL     1      36.346   2.831  14.619  0.00  0.00    +0.000 A 
ATOM     14  C   UNL     1      35.753   4.054  14.474  0.00  0.00    +0.000 A 
ATOM     15  C   UNL     1      35.974   4.846  13.378  0.00  0.00    +0.000 A 
ATOM     16  C   UNL     1      36.816   4.408  12.387  0.00  0.00    +0.000 A 
ATOM     17  C   UNL     1      37.408   3.176  12.540  0.00  0.00    +0.000 A 
ATOM     18  C   UNL     1      37.214   2.355  13.620  0.00  0.00    +0.000 A 
BRANCH  13  20
ATOM     19  C   UNL     1      34.856   2.009  16.315  0.00  0.00    +0.000 C 
ATOM     20  O   UNL     1      36.127   2.016  15.732  0.00  0.00    +0.000 OA
ENDBRANCH  13  20
ENDBRANCH  10  18
ENDBRANCH   1  11
BRANCH   2  21
ATOM     21  N   UNL     1      37.974  -1.644  16.044  0.00  0.00    +0.000 NA
ATOM     22  C   UNL     1      37.495  -1.627  17.303  0.00  0.00    +0.000 C 
ATOM     23  O   UNL     1      38.199  -1.235  18.246  0.00  0.00    +0.000 OA
BRANCH  22  24
ATOM     24  C   UNL     1      36.100  -2.069  17.697  0.00  0.00    +0.000 C 
BRANCH  24  25
ATOM     25  C   UNL     1      35.654  -3.151  16.772  0.00  0.00    +0.000 A 
ATOM     26  C   UNL     1      36.348  -4.345  16.718  0.00  0.00    +0.000 A 
ATOM     27  C   UNL     1      35.946  -5.346  15.849  0.00  0.00    +0.000 A 
ATOM     28  C   UNL     1      34.874  -5.194  15.031  0.00  0.00    +0.000 A 
ATOM     29  C   UNL     1      34.156  -4.001  15.064  0.00  0.00    +0.000 A 
ATOM     30  C   UNL     1      34.565  -3.011  15.936  0.00  0.00    +0.000 A 
ENDBRANCH  24  25
ENDBRANCH  22  24
ENDBRANCH   2  21
TORSDOF 6
ENDMDL
MODEL 10
REMARK VINA RESULT:      -7.0     27.352     30.825
REMARK  Name = 
REMARK  6 active torsions:
REMARK  status: ('A' for Active; 'I' for Inactive)
REMARK    1  A    between atoms: O_2  and  C_3
REMARK    2  A    between atoms: C_8  and  N_9
REMARK    3  A    between atoms: C_10  and  C_12
REMARK    4  A    between atoms: C_13  and  N_14
REMARK    5  A    between atoms: C_15  and  C_17
REMARK    6  A    between atoms: C_17  and  C_18
REMARK                            x       y       z     vdW  Elec       q    Type
REMARK                         _______ _______ _______ _____ _____    ______ ____
ROOT
ATOM      1  C   UNL     1      25.586  14.373  40.602  0.00  0.00    +0.000 A 
ATOM      2  C   UNL     1      25.493  14.847  39.357  0.00  0.00    +0.000 A 
ATOM      3  S   UNL     1      24.077  15.922  39.493  0.00  0.00    +0.000 S 
ATOM      4  C   UNL     1      23.737  15.676  41.129  0.00  0.00    +0.000 A 
ATOM      5  C   UNL     1      24.683  14.801  41.525  0.00  0.00    +0.000 A 
ATOM      6  C   UNL     1      24.546  14.451  42.989  0.00  0.00    +0.000 C 
ATOM      7  C   UNL     1      23.153  13.979  43.260  0.00  0.00    +0.000 C 
ATOM      8  C   UNL     1      22.114  15.000  42.868  0.00  0.00    +0.000 C 
ATOM      9  C   UNL     1      22.714  16.168  42.128  0.00  0.00    +0.000 C 
ENDROOT
BRANCH   1  11
ATOM     10  N   UNL     1      26.171  11.904  40.694  0.00  0.00    +0.000 NA
ATOM     11  C   UNL     1      26.505  13.262  40.959  0.00  0.00    +0.000 C 
ATOM     12  O   UNL     1      27.594  13.454  41.501  0.00  0.00    +0.000 OA
BRANCH  10  18
ATOM     13  C   UNL     1      26.665   9.920  41.989  0.00  0.00    +0.000 A 
ATOM     14  C   UNL     1      27.507   8.898  42.328  0.00  0.00    +0.000 A 
ATOM     15  C   UNL     1      28.754   8.766  41.776  0.00  0.00    +0.000 A 
ATOM     16  C   UNL     1      29.183   9.684  40.851  0.00  0.00    +0.000 A 
ATOM     17  C   UNL     1      28.330  10.710  40.515  0.00  0.00    +0.000 A 
ATOM     18  C   UNL     1      27.077  10.876  41.044  0.00  0.00    +0.000 A 
BRANCH  13  20
ATOM     19  C   UNL     1      25.094   9.362  43.719  0.00  0.00    +0.000 C 
ATOM     20  O   UNL     1      25.393  10.063  42.547  0.00  0.00    +0.000 OA
ENDBRANCH  13  20
ENDBRANCH  10  18
ENDBRANCH   1  11
BRANCH   2  21
ATOM     21  N   UNL     1      26.194  14.877  38.172  0.00  0.00    +0.000 NA
ATOM     22  C   UNL     1      26.898  15.706  37.376  0.00  0.00    +0.000 C 
ATOM     23  O   UNL     1      27.041  16.902  37.672  0.00  0.00    +0.000 OA
BRANCH  22  24
ATOM     24  C   UNL     1      27.564  15.291  36.080  0.00  0.00    +0.000 C 
BRANCH  24  25
ATOM     25  C   UNL     1      26.606  15.497  34.954  0.00  0.00    +0.000 A 
ATOM     26  C   UNL     1      26.214  14.425  34.175  0.00  0.00    +0.000 A 
ATOM     27  C   UNL     1      25.337  14.614  33.120  0.00  0.00    +0.000 A 
ATOM     28  C   UNL     1      24.840  15.839  32.816  0.00  0.00    +0.000 A 
ATOM     29  C   UNL     1      25.218  16.938  33.585  0.00  0.00    +0.000 A 
ATOM     30  C   UNL     1      26.091  16.737  34.635  0.00  0.00    +0.000 A 
ENDBRANCH  24  25
ENDBRANCH  22  24
ENDBRANCH   2  21
TORSDOF 6
ENDMDL
