MODEL 1
REMARK VINA RESULT:      -8.1      0.000      0.000
REMARK  Name = 
REMARK  9 active torsions:
REMARK  status: ('A' for Active; 'I' for Inactive)
REMARK    1  A    between atoms: C_2  and  C_3
REMARK    2  A    between atoms: C_3  and  N_4
REMARK    3  A    between atoms: C_5  and  S_6
REMARK    4  A    between atoms: S_6  and  C_7
REMARK    5  A    between atoms: C_7  and  C_8
REMARK    6  A    between atoms: C_8  and  C_10
REMARK    7  A    between atoms: C_21  and  C_22
REMARK    8  A    between atoms: C_27  and  O_28
REMARK    9  A    between atoms: C_32  and  C_33
REMARK                            x       y       z     vdW  Elec       q    Type
REMARK                         _______ _______ _______ _____ _____    ______ ____
ROOT
ATOM      1  N   UNL     1      37.248   1.001  15.269  0.00  0.00    +0.000 N 
ATOM      2  C   UNL     1      38.222   1.952  15.084  0.00  0.00    +0.000 A 
ATOM      3  N   UNL     1      39.360   1.268  14.919  0.00  0.00    +0.000 NA
ATOM      4  N   UNL     1      39.100  -0.013  14.997  0.00  0.00    +0.000 NA
ATOM      5  C   UNL     1      37.748  -0.216  15.220  0.00  0.00    +0.000 A 
ENDROOT
BRANCH   5   6
ATOM      6  C   UNL     1      37.170  -1.550  15.387  0.00  0.00    +0.000 A 
ATOM      7  N   UNL     1      35.941  -1.891  14.851  0.00  0.00    +0.000 NA
ATOM      8  C   UNL     1      35.628  -3.147  15.148  0.00  0.00    +0.000 A 
ATOM      9  C   UNL     1      34.534  -3.921  14.841  0.00  0.00    +0.000 A 
ATOM     10  C   UNL     1      34.448  -5.244  15.281  0.00  0.00    +0.000 A 
ATOM     11  C   UNL     1      35.455  -5.805  16.033  0.00  0.00    +0.000 A 
ATOM     12  C   UNL     1      36.550  -5.002  16.330  0.00  0.00    +0.000 A 
ATOM     13  C   UNL     1      36.635  -3.696  15.896  0.00  0.00    +0.000 A 
ATOM     14  C   UNL     1      37.578  -2.665  16.025  0.00  0.00    +0.000 A 
BRANCH  11  15
ATOM     15  O   UNL     1      35.361  -7.119  16.465  0.00  0.00    +0.000 OA
ATOM     16  C   UNL     1      34.243  -7.924  16.133  0.00  0.00    +0.000 C 
ENDBRANCH  11  15
BRANCH  14  17
ATOM     17  C   UNL     1      38.777  -2.861  16.864  0.00  0.00    +0.000 C 
ATOM     18  C   UNL     1      39.974  -3.170  15.948  0.00  0.00    +0.000 C 
ENDBRANCH  14  17
ENDBRANCH   5   6
BRANCH   1  19
ATOM     19  C   UNL     1      35.866   1.345  15.525  0.00  0.00    +0.000 C 
BRANCH  19  21
ATOM     20  C   UNL     1      35.071   0.349  17.663  0.00  0.00    +0.000 C 
ATOM     21  C   UNL     1      35.709   1.305  17.024  0.00  0.00    +0.000 C 
ENDBRANCH  19  21
ENDBRANCH   1  19
BRANCH   2  22
ATOM     22  S   UNL     1      37.920   3.693  15.080  0.00  0.00    +0.000 S 
BRANCH  22  23
ATOM     23  C   UNL     1      37.842   4.433  16.707  0.00  0.00    +0.000 C 
BRANCH  23  24
ATOM     24  C   UNL     1      38.828   5.474  16.886  0.00  0.00    +0.000 C 
ATOM     25  O   UNL     1      39.485   5.871  15.849  0.00  0.00    +0.000 OA
BRANCH  24  26
ATOM     26  C   UNL     1      39.155   6.118  18.129  0.00  0.00    +0.000 A 
ATOM     27  C   UNL     1      40.181   5.738  19.010  0.00  0.00    +0.000 A 
ATOM     28  N   UNL     1      40.154   6.544  20.070  0.00  0.00    +0.000 NA
ATOM     29  C   UNL     1      39.184   7.445  19.972  0.00  0.00    +0.000 A 
ATOM     30  C   UNL     1      38.758   8.483  20.772  0.00  0.00    +0.000 A 
ATOM     31  C   UNL     1      37.703   9.311  20.419  0.00  0.00    +0.000 A 
ATOM     32  C   UNL     1      37.073   9.066  19.222  0.00  0.00    +0.000 A 
ATOM     33  C   UNL     1      37.507   8.031  18.441  0.00  0.00    +0.000 A 
ATOM     34  C   UNL     1      38.554   7.181  18.754  0.00  0.00    +0.000 A 
ENDBRANCH  24  26
ENDBRANCH  23  24
ENDBRANCH  22  23
ENDBRANCH   2  22
TORSDOF 9
ENDMDL
MODEL 2
REMARK VINA RESULT:      -7.8      2.806      9.646
REMARK  Name = 
REMARK  9 active torsions:
REMARK  status: ('A' for Active; 'I' for Inactive)
REMARK    1  A    between atoms: C_2  and  C_3
REMARK    2  A    between atoms: C_3  and  N_4
REMARK    3  A    between atoms: C_5  and  S_6
REMARK    4  A    between atoms: S_6  and  C_7
REMARK    5  A    between atoms: C_7  and  C_8
REMARK    6  A    between atoms: C_8  and  C_10
REMARK    7  A    between atoms: C_21  and  C_22
REMARK    8  A    between atoms: C_27  and  O_28
REMARK    9  A    between atoms: C_32  and  C_33
REMARK                            x       y       z     vdW  Elec       q    Type
REMARK                         _______ _______ _______ _____ _____    ______ ____
ROOT
ATOM      1  N   UNL     1      37.862   2.439  15.100  0.00  0.00    +0.000 N 
ATOM      2  C   UNL     1      38.297   1.654  14.060  0.00  0.00    +0.000 A 
ATOM      3  N   UNL     1      39.395   2.258  13.593  0.00  0.00    +0.000 NA
ATOM      4  N   UNL     1      39.618   3.339  14.299  0.00  0.00    +0.000 NA
ATOM      5  C   UNL     1      38.648   3.480  15.277  0.00  0.00    +0.000 A 
ENDROOT
BRANCH   5   6
ATOM      6  C   UNL     1      38.619   4.619  16.197  0.00  0.00    +0.000 A 
ATOM      7  N   UNL     1      39.178   4.557  17.461  0.00  0.00    +0.000 NA
ATOM      8  C   UNL     1      39.015   5.706  18.107  0.00  0.00    +0.000 A 
ATOM      9  C   UNL     1      39.393   6.118  19.363  0.00  0.00    +0.000 A 
ATOM     10  C   UNL     1      39.097   7.408  19.811  0.00  0.00    +0.000 A 
ATOM     11  C   UNL     1      38.419   8.296  19.008  0.00  0.00    +0.000 A 
ATOM     12  C   UNL     1      38.048   7.855  17.743  0.00  0.00    +0.000 A 
ATOM     13  C   UNL     1      38.339   6.582  17.301  0.00  0.00    +0.000 A 
ATOM     14  C   UNL     1      38.109   5.864  16.117  0.00  0.00    +0.000 A 
BRANCH  11  15
ATOM     15  O   UNL     1      38.130   9.574  19.462  0.00  0.00    +0.000 OA
ATOM     16  C   UNL     1      38.378   9.951  20.804  0.00  0.00    +0.000 C 
ENDBRANCH  11  15
BRANCH  14  17
ATOM     17  C   UNL     1      37.307   6.464  15.033  0.00  0.00    +0.000 C 
ATOM     18  C   UNL     1      38.263   7.015  13.961  0.00  0.00    +0.000 C 
ENDBRANCH  14  17
ENDBRANCH   5   6
BRANCH   1  19
ATOM     19  C   UNL     1      36.659   2.141  15.849  0.00  0.00    +0.000 C 
BRANCH  19  21
ATOM     20  C   UNL     1      34.473   3.262  15.456  0.00  0.00    +0.000 C 
ATOM     21  C   UNL     1      35.517   2.615  14.987  0.00  0.00    +0.000 C 
ENDBRANCH  19  21
ENDBRANCH   1  19
BRANCH   2  22
ATOM     22  S   UNL     1      37.494   0.169  13.537  0.00  0.00    +0.000 S 
BRANCH  22  23
ATOM     23  C   UNL     1      38.560  -1.266  13.478  0.00  0.00    +0.000 C 
BRANCH  23  24
ATOM     24  C   UNL     1      38.048  -2.365  14.263  0.00  0.00    +0.000 C 
ATOM     25  O   UNL     1      37.219  -3.178  13.699  0.00  0.00    +0.000 OA
BRANCH  24  26
ATOM     26  C   UNL     1      38.376  -2.646  15.634  0.00  0.00    +0.000 A 
ATOM     27  C   UNL     1      39.366  -3.539  16.079  0.00  0.00    +0.000 A 
ATOM     28  N   UNL     1      39.351  -3.563  17.411  0.00  0.00    +0.000 NA
ATOM     29  C   UNL     1      38.425  -2.750  17.902  0.00  0.00    +0.000 A 
ATOM     30  C   UNL     1      38.028  -2.412  19.178  0.00  0.00    +0.000 A 
ATOM     31  C   UNL     1      37.018  -1.494  19.426  0.00  0.00    +0.000 A 
ATOM     32  C   UNL     1      36.403  -0.914  18.341  0.00  0.00    +0.000 A 
ATOM     33  C   UNL     1      36.808  -1.261  17.082  0.00  0.00    +0.000 A 
ATOM     34  C   UNL     1      37.810  -2.172  16.790  0.00  0.00    +0.000 A 
ENDBRANCH  24  26
ENDBRANCH  23  24
ENDBRANCH  22  23
ENDBRANCH   2  22
TORSDOF 9
ENDMDL
MODEL 3
REMARK VINA RESULT:      -7.8      2.360      3.775
REMARK  Name = 
REMARK  9 active torsions:
REMARK  status: ('A' for Active; 'I' for Inactive)
REMARK    1  A    between atoms: C_2  and  C_3
REMARK    2  A    between atoms: C_3  and  N_4
REMARK    3  A    between atoms: C_5  and  S_6
REMARK    4  A    between atoms: S_6  and  C_7
REMARK    5  A    between atoms: C_7  and  C_8
REMARK    6  A    between atoms: C_8  and  C_10
REMARK    7  A    between atoms: C_21  and  C_22
REMARK    8  A    between atoms: C_27  and  O_28
REMARK    9  A    between atoms: C_32  and  C_33
REMARK                            x       y       z     vdW  Elec       q    Type
REMARK                         _______ _______ _______ _____ _____    ______ ____
ROOT
ATOM      1  N   UNL     1      37.223   4.204  15.418  0.00  0.00    +0.000 N 
ATOM      2  C   UNL     1      37.822   5.297  15.995  0.00  0.00    +0.000 A 
ATOM      3  N   UNL     1      38.207   4.892  17.209  0.00  0.00    +0.000 NA
ATOM      4  N   UNL     1      37.869   3.636  17.366  0.00  0.00    +0.000 NA
ATOM      5  C   UNL     1      37.235   3.166  16.227  0.00  0.00    +0.000 A 
ENDROOT
BRANCH   5   6
ATOM      6  C   UNL     1      36.712   1.803  16.126  0.00  0.00    +0.000 A 
ATOM      7  N   UNL     1      35.775   1.307  17.016  0.00  0.00    +0.000 NA
ATOM      8  C   UNL     1      35.467   0.048  16.726  0.00  0.00    +0.000 A 
ATOM      9  C   UNL     1      34.603  -0.846  17.311  0.00  0.00    +0.000 A 
ATOM     10  C   UNL     1      34.457  -2.138  16.799  0.00  0.00    +0.000 A 
ATOM     11  C   UNL     1      35.175  -2.547  15.699  0.00  0.00    +0.000 A 
ATOM     12  C   UNL     1      36.043  -1.624  15.127  0.00  0.00    +0.000 A 
ATOM     13  C   UNL     1      36.188  -0.349  15.632  0.00  0.00    +0.000 A 
ATOM     14  C   UNL     1      36.954   0.775  15.289  0.00  0.00    +0.000 A 
BRANCH  11  15
ATOM     15  O   UNL     1      35.024  -3.831  15.198  0.00  0.00    +0.000 OA
ATOM     16  C   UNL     1      33.742  -4.365  14.917  0.00  0.00    +0.000 C 
ENDBRANCH  11  15
BRANCH  14  17
ATOM     17  C   UNL     1      37.942   0.691  14.195  0.00  0.00    +0.000 C 
ATOM     18  C   UNL     1      39.284   0.217  14.780  0.00  0.00    +0.000 C 
ENDBRANCH  14  17
ENDBRANCH   5   6
BRANCH   1  19
ATOM     19  C   UNL     1      36.630   4.249  14.098  0.00  0.00    +0.000 C 
BRANCH  19  21
ATOM     20  C   UNL     1      34.641   5.739  13.973  0.00  0.00    +0.000 C 
ATOM     21  C   UNL     1      35.178   4.589  14.318  0.00  0.00    +0.000 C 
ENDBRANCH  19  21
ENDBRANCH   1  19
BRANCH   2  22
ATOM     22  S   UNL     1      37.995   6.866  15.201  0.00  0.00    +0.000 S 
BRANCH  22  23
ATOM     23  C   UNL     1      37.231   8.226  16.076  0.00  0.00    +0.000 C 
BRANCH  23  24
ATOM     24  C   UNL     1      38.144   8.879  16.985  0.00  0.00    +0.000 C 
ATOM     25  O   UNL     1      38.562  10.061  16.679  0.00  0.00    +0.000 OA
BRANCH  24  26
ATOM     26  C   UNL     1      38.642   8.330  18.217  0.00  0.00    +0.000 A 
ATOM     27  C   UNL     1      37.987   8.362  19.459  0.00  0.00    +0.000 A 
ATOM     28  N   UNL     1      38.772   7.792  20.371  0.00  0.00    +0.000 NA
ATOM     29  C   UNL     1      39.913   7.373  19.839  0.00  0.00    +0.000 A 
ATOM     30  C   UNL     1      41.021   6.724  20.338  0.00  0.00    +0.000 A 
ATOM     31  C   UNL     1      42.101   6.372  19.542  0.00  0.00    +0.000 A 
ATOM     32  C   UNL     1      42.041   6.695  18.207  0.00  0.00    +0.000 A 
ATOM     33  C   UNL     1      40.934   7.339  17.727  0.00  0.00    +0.000 A 
ATOM     34  C   UNL     1      39.836   7.709  18.485  0.00  0.00    +0.000 A 
ENDBRANCH  24  26
ENDBRANCH  23  24
ENDBRANCH  22  23
ENDBRANCH   2  22
TORSDOF 9
ENDMDL
MODEL 4
REMARK VINA RESULT:      -7.7      3.059      9.303
REMARK  Name = 
REMARK  9 active torsions:
REMARK  status: ('A' for Active; 'I' for Inactive)
REMARK    1  A    between atoms: C_2  and  C_3
REMARK    2  A    between atoms: C_3  and  N_4
REMARK    3  A    between atoms: C_5  and  S_6
REMARK    4  A    between atoms: S_6  and  C_7
REMARK    5  A    between atoms: C_7  and  C_8
REMARK    6  A    between atoms: C_8  and  C_10
REMARK    7  A    between atoms: C_21  and  C_22
REMARK    8  A    between atoms: C_27  and  O_28
REMARK    9  A    between atoms: C_32  and  C_33
REMARK                            x       y       z     vdW  Elec       q    Type
REMARK                         _______ _______ _______ _____ _____    ______ ____
ROOT
ATOM      1  N   UNL     1      38.156   1.791  14.309  0.00  0.00    +0.000 N 
ATOM      2  C   UNL     1      37.295   0.941  13.660  0.00  0.00    +0.000 A 
ATOM      3  N   UNL     1      36.077   1.462  13.841  0.00  0.00    +0.000 NA
ATOM      4  N   UNL     1      36.184   2.557  14.551  0.00  0.00    +0.000 NA
ATOM      5  C   UNL     1      37.512   2.795  14.865  0.00  0.00    +0.000 A 
ENDROOT
BRANCH   5   6
ATOM      6  C   UNL     1      37.933   3.933  15.684  0.00  0.00    +0.000 A 
ATOM      7  N   UNL     1      38.319   3.785  17.005  0.00  0.00    +0.000 NA
ATOM      8  C   UNL     1      38.643   4.958  17.537  0.00  0.00    +0.000 A 
ATOM      9  C   UNL     1      39.081   5.310  18.791  0.00  0.00    +0.000 A 
ATOM     10  C   UNL     1      39.362   6.643  19.102  0.00  0.00    +0.000 A 
ATOM     11  C   UNL     1      39.207   7.635  18.161  0.00  0.00    +0.000 A 
ATOM     12  C   UNL     1      38.763   7.253  16.900  0.00  0.00    +0.000 A 
ATOM     13  C   UNL     1      38.485   5.938  16.594  0.00  0.00    +0.000 A 
ATOM     14  C   UNL     1      38.038   5.256  15.451  0.00  0.00    +0.000 A 
BRANCH  11  15
ATOM     15  O   UNL     1      39.488   8.955  18.478  0.00  0.00    +0.000 OA
ATOM     16  C   UNL     1      40.816   9.448  18.466  0.00  0.00    +0.000 C 
ENDBRANCH  11  15
BRANCH  14  17
ATOM     17  C   UNL     1      37.662   6.012  14.240  0.00  0.00    +0.000 C 
ATOM     18  C   UNL     1      36.140   6.236  14.251  0.00  0.00    +0.000 C 
ENDBRANCH  14  17
ENDBRANCH   5   6
BRANCH   1  19
ATOM     19  C   UNL     1      39.581   1.548  14.381  0.00  0.00    +0.000 C 
BRANCH  19  21
ATOM     20  C   UNL     1      41.417   2.278  12.868  0.00  0.00    +0.000 C 
ATOM     21  C   UNL     1      40.198   2.439  13.332  0.00  0.00    +0.000 C 
ENDBRANCH  19  21
ENDBRANCH   1  19
BRANCH   2  22
ATOM     22  S   UNL     1      37.803  -0.513  12.794  0.00  0.00    +0.000 S 
BRANCH  22  23
ATOM     23  C   UNL     1      37.730  -2.015  13.763  0.00  0.00    +0.000 C 
BRANCH  23  24
ATOM     24  C   UNL     1      38.739  -2.055  14.795  0.00  0.00    +0.000 C 
ATOM     25  O   UNL     1      39.975  -1.954  14.437  0.00  0.00    +0.000 OA
BRANCH  24  26
ATOM     26  C   UNL     1      38.497  -2.201  16.204  0.00  0.00    +0.000 A 
ATOM     27  C   UNL     1      39.105  -3.142  17.052  0.00  0.00    +0.000 A 
ATOM     28  N   UNL     1      38.602  -3.000  18.278  0.00  0.00    +0.000 NA
ATOM     29  C   UNL     1      37.698  -2.030  18.323  0.00  0.00    +0.000 A 
ATOM     30  C   UNL     1      36.921  -1.492  19.327  0.00  0.00    +0.000 A 
ATOM     31  C   UNL     1      36.045  -0.439  19.108  0.00  0.00    +0.000 A 
ATOM     32  C   UNL     1      35.966   0.070  17.834  0.00  0.00    +0.000 A 
ATOM     33  C   UNL     1      36.743  -0.474  16.849  0.00  0.00    +0.000 A 
ATOM     34  C   UNL     1      37.629  -1.525  17.023  0.00  0.00    +0.000 A 
ENDBRANCH  24  26
ENDBRANCH  23  24
ENDBRANCH  22  23
ENDBRANCH   2  22
TORSDOF 9
ENDMDL
MODEL 5
REMARK VINA RESULT:      -7.7      3.139     10.193
REMARK  Name = 
REMARK  9 active torsions:
REMARK  status: ('A' for Active; 'I' for Inactive)
REMARK    1  A    between atoms: C_2  and  C_3
REMARK    2  A    between atoms: C_3  and  N_4
REMARK    3  A    between atoms: C_5  and  S_6
REMARK    4  A    between atoms: S_6  and  C_7
REMARK    5  A    between atoms: C_7  and  C_8
REMARK    6  A    between atoms: C_8  and  C_10
REMARK    7  A    between atoms: C_21  and  C_22
REMARK    8  A    between atoms: C_27  and  O_28
REMARK    9  A    between atoms: C_32  and  C_33
REMARK                            x       y       z     vdW  Elec       q    Type
REMARK                         _______ _______ _______ _____ _____    ______ ____
ROOT
ATOM      1  N   UNL     1      38.400   5.119  15.338  0.00  0.00    +0.000 N 
ATOM      2  C   UNL     1      37.184   5.453  14.793  0.00  0.00    +0.000 A 
ATOM      3  N   UNL     1      36.992   6.737  15.113  0.00  0.00    +0.000 NA
ATOM      4  N   UNL     1      38.020   7.161  15.805  0.00  0.00    +0.000 NA
ATOM      5  C   UNL     1      38.943   6.141  15.965  0.00  0.00    +0.000 A 
ENDROOT
BRANCH   5   6
ATOM      6  C   UNL     1      40.179   6.313  16.730  0.00  0.00    +0.000 A 
ATOM      7  N   UNL     1      41.395   6.559  16.116  0.00  0.00    +0.000 NA
ATOM      8  C   UNL     1      42.366   6.664  17.017  0.00  0.00    +0.000 A 
ATOM      9  C   UNL     1      43.714   6.903  16.893  0.00  0.00    +0.000 A 
ATOM     10  C   UNL     1      44.534   6.971  18.021  0.00  0.00    +0.000 A 
ATOM     11  C   UNL     1      44.014   6.798  19.284  0.00  0.00    +0.000 A 
ATOM     12  C   UNL     1      42.648   6.557  19.382  0.00  0.00    +0.000 A 
ATOM     13  C   UNL     1      41.839   6.490  18.268  0.00  0.00    +0.000 A 
ATOM     14  C   UNL     1      40.471   6.271  18.045  0.00  0.00    +0.000 A 
BRANCH  11  15
ATOM     15  O   UNL     1      44.836   6.866  20.398  0.00  0.00    +0.000 OA
ATOM     16  C   UNL     1      46.166   6.379  20.362  0.00  0.00    +0.000 C 
ENDBRANCH  11  15
BRANCH  14  17
ATOM     17  C   UNL     1      39.580   5.943  19.176  0.00  0.00    +0.000 C 
ATOM     18  C   UNL     1      39.104   7.255  19.823  0.00  0.00    +0.000 C 
ENDBRANCH  14  17
ENDBRANCH   5   6
BRANCH   1  19
ATOM     19  C   UNL     1      38.952   3.784  15.246  0.00  0.00    +0.000 C 
BRANCH  19  21
ATOM     20  C   UNL     1      39.787   2.870  13.087  0.00  0.00    +0.000 C 
ATOM     21  C   UNL     1      39.832   3.794  14.021  0.00  0.00    +0.000 C 
ENDBRANCH  19  21
ENDBRANCH   1  19
BRANCH   2  22
ATOM     22  S   UNL     1      36.170   4.336  13.874  0.00  0.00    +0.000 S 
BRANCH  22  23
ATOM     23  C   UNL     1      35.016   3.397  14.867  0.00  0.00    +0.000 C 
BRANCH  23  24
ATOM     24  C   UNL     1      35.678   2.446  15.730  0.00  0.00    +0.000 C 
ATOM     25  O   UNL     1      36.011   2.833  16.916  0.00  0.00    +0.000 OA
BRANCH  24  26
ATOM     26  C   UNL     1      36.010   1.089  15.391  0.00  0.00    +0.000 A 
ATOM     27  C   UNL     1      36.881   0.685  14.366  0.00  0.00    +0.000 A 
ATOM     28  N   UNL     1      36.907  -0.647  14.328  0.00  0.00    +0.000 NA
ATOM     29  C   UNL     1      36.117  -1.175  15.253  0.00  0.00    +0.000 A 
ATOM     30  C   UNL     1      35.812  -2.466  15.627  0.00  0.00    +0.000 A 
ATOM     31  C   UNL     1      34.946  -2.755  16.671  0.00  0.00    +0.000 A 
ATOM     32  C   UNL     1      34.381  -1.697  17.343  0.00  0.00    +0.000 A 
ATOM     33  C   UNL     1      34.693  -0.422  16.959  0.00  0.00    +0.000 A 
ATOM     34  C   UNL     1      35.551  -0.089  15.924  0.00  0.00    +0.000 A 
ENDBRANCH  24  26
ENDBRANCH  23  24
ENDBRANCH  22  23
ENDBRANCH   2  22
TORSDOF 9
ENDMDL
MODEL 6
REMARK VINA RESULT:      -7.6      3.266     10.698
REMARK  Name = 
REMARK  9 active torsions:
REMARK  status: ('A' for Active; 'I' for Inactive)
REMARK    1  A    between atoms: C_2  and  C_3
REMARK    2  A    between atoms: C_3  and  N_4
REMARK    3  A    between atoms: C_5  and  S_6
REMARK    4  A    between atoms: S_6  and  C_7
REMARK    5  A    between atoms: C_7  and  C_8
REMARK    6  A    between atoms: C_8  and  C_10
REMARK    7  A    between atoms: C_21  and  C_22
REMARK    8  A    between atoms: C_27  and  O_28
REMARK    9  A    between atoms: C_32  and  C_33
REMARK                            x       y       z     vdW  Elec       q    Type
REMARK                         _______ _______ _______ _____ _____    ______ ____
ROOT
ATOM      1  N   UNL     1      38.408   5.564  16.553  0.00  0.00    +0.000 N 
ATOM      2  C   UNL     1      37.949   4.295  16.297  0.00  0.00    +0.000 A 
ATOM      3  N   UNL     1      37.975   3.662  17.474  0.00  0.00    +0.000 NA
ATOM      4  N   UNL     1      38.419   4.487  18.390  0.00  0.00    +0.000 NA
ATOM      5  C   UNL     1      38.705   5.719  17.826  0.00  0.00    +0.000 A 
ENDROOT
BRANCH   5   6
ATOM      6  C   UNL     1      39.253   6.831  18.605  0.00  0.00    +0.000 A 
ATOM      7  N   UNL     1      38.459   7.865  19.068  0.00  0.00    +0.000 NA
ATOM      8  C   UNL     1      39.185   8.757  19.734  0.00  0.00    +0.000 A 
ATOM      9  C   UNL     1      38.849   9.928  20.369  0.00  0.00    +0.000 A 
ATOM     10  C   UNL     1      39.822  10.697  21.012  0.00  0.00    +0.000 A 
ATOM     11  C   UNL     1      41.140  10.301  21.025  0.00  0.00    +0.000 A 
ATOM     12  C   UNL     1      41.454   9.113  20.376  0.00  0.00    +0.000 A 
ATOM     13  C   UNL     1      40.494   8.355  19.740  0.00  0.00    +0.000 A 
ATOM     14  C   UNL     1      40.494   7.149  19.022  0.00  0.00    +0.000 A 
BRANCH  11  15
ATOM     15  O   UNL     1      42.099  11.071  21.666  0.00  0.00    +0.000 OA
ATOM     16  C   UNL     1      43.181  10.473  22.357  0.00  0.00    +0.000 C 
ENDBRANCH  11  15
BRANCH  14  17
ATOM     17  C   UNL     1      41.768   6.459  18.736  0.00  0.00    +0.000 C 
ATOM     18  C   UNL     1      42.081   6.607  17.237  0.00  0.00    +0.000 C 
ENDBRANCH  14  17
ENDBRANCH   5   6
BRANCH   1  19
ATOM     19  C   UNL     1      38.569   6.557  15.513  0.00  0.00    +0.000 C 
BRANCH  19  21
ATOM     20  C   UNL     1      36.545   7.566  14.474  0.00  0.00    +0.000 C 
ATOM     21  C   UNL     1      37.302   7.373  15.532  0.00  0.00    +0.000 C 
ENDBRANCH  19  21
ENDBRANCH   1  19
BRANCH   2  22
ATOM     22  S   UNL     1      37.449   3.726  14.700  0.00  0.00    +0.000 S 
BRANCH  22  23
ATOM     23  C   UNL     1      35.685   3.497  14.515  0.00  0.00    +0.000 C 
BRANCH  23  24
ATOM     24  C   UNL     1      35.169   2.466  15.385  0.00  0.00    +0.000 C 
ATOM     25  O   UNL     1      34.081   2.710  16.035  0.00  0.00    +0.000 OA
BRANCH  24  26
ATOM     26  C   UNL     1      35.760   1.174  15.603  0.00  0.00    +0.000 A 
ATOM     27  C   UNL     1      36.231   0.304  14.605  0.00  0.00    +0.000 A 
ATOM     28  N   UNL     1      36.671  -0.812  15.185  0.00  0.00    +0.000 NA
ATOM     29  C   UNL     1      36.536  -0.762  16.503  0.00  0.00    +0.000 A 
ATOM     30  C   UNL     1      36.844  -1.627  17.531  0.00  0.00    +0.000 A 
ATOM     31  C   UNL     1      36.612  -1.316  18.862  0.00  0.00    +0.000 A 
ATOM     32  C   UNL     1      36.051  -0.093  19.143  0.00  0.00    +0.000 A 
ATOM     33  C   UNL     1      35.749   0.754  18.112  0.00  0.00    +0.000 A 
ATOM     34  C   UNL     1      35.964   0.483  16.771  0.00  0.00    +0.000 A 
ENDBRANCH  24  26
ENDBRANCH  23  24
ENDBRANCH  22  23
ENDBRANCH   2  22
TORSDOF 9
ENDMDL
MODEL 7
REMARK VINA RESULT:      -7.6      2.579      4.400
REMARK  Name = 
REMARK  9 active torsions:
REMARK  status: ('A' for Active; 'I' for Inactive)
REMARK    1  A    between atoms: C_2  and  C_3
REMARK    2  A    between atoms: C_3  and  N_4
REMARK    3  A    between atoms: C_5  and  S_6
REMARK    4  A    between atoms: S_6  and  C_7
REMARK    5  A    between atoms: C_7  and  C_8
REMARK    6  A    between atoms: C_8  and  C_10
REMARK    7  A    between atoms: C_21  and  C_22
REMARK    8  A    between atoms: C_27  and  O_28
REMARK    9  A    between atoms: C_32  and  C_33
REMARK                            x       y       z     vdW  Elec       q    Type
REMARK                         _______ _______ _______ _____ _____    ______ ____
ROOT
ATOM      1  N   UNL     1      37.208   4.907  15.141  0.00  0.00    +0.000 N 
ATOM      2  C   UNL     1      36.929   6.073  14.471  0.00  0.00    +0.000 A 
ATOM      3  N   UNL     1      35.733   5.882  13.905  0.00  0.00    +0.000 NA
ATOM      4  N   UNL     1      35.307   4.681  14.207  0.00  0.00    +0.000 NA
ATOM      5  C   UNL     1      36.235   4.030  15.004  0.00  0.00    +0.000 A 
ENDROOT
BRANCH   5   6
ATOM      6  C   UNL     1      36.046   2.655  15.468  0.00  0.00    +0.000 A 
ATOM      7  N   UNL     1      35.798   2.355  16.796  0.00  0.00    +0.000 NA
ATOM      8  C   UNL     1      35.676   1.044  16.970  0.00  0.00    +0.000 A 
ATOM      9  C   UNL     1      35.428   0.283  18.088  0.00  0.00    +0.000 A 
ATOM     10  C   UNL     1      35.342  -1.109  18.000  0.00  0.00    +0.000 A 
ATOM     11  C   UNL     1      35.504  -1.751  16.793  0.00  0.00    +0.000 A 
ATOM     12  C   UNL     1      35.753  -0.959  15.679  0.00  0.00    +0.000 A 
ATOM     13  C   UNL     1      35.839   0.414  15.765  0.00  0.00    +0.000 A 
ATOM     14  C   UNL     1      36.070   1.456  14.853  0.00  0.00    +0.000 A 
BRANCH  11  15
ATOM     15  O   UNL     1      35.417  -3.133  16.715  0.00  0.00    +0.000 OA
ATOM     16  C   UNL     1      34.729  -3.768  15.652  0.00  0.00    +0.000 C 
ENDBRANCH  11  15
BRANCH  14  17
ATOM     17  C   UNL     1      36.391   1.148  13.446  0.00  0.00    +0.000 C 
ATOM     18  C   UNL     1      37.906   1.318  13.237  0.00  0.00    +0.000 C 
ENDBRANCH  14  17
ENDBRANCH   5   6
BRANCH   1  19
ATOM     19  C   UNL     1      38.448   4.700  15.858  0.00  0.00    +0.000 C 
BRANCH  19  21
ATOM     20  C   UNL     1      38.667   4.480  18.327  0.00  0.00    +0.000 C 
ATOM     21  C   UNL     1      38.164   5.101  17.283  0.00  0.00    +0.000 C 
ENDBRANCH  19  21
ENDBRANCH   1  19
BRANCH   2  22
ATOM     22  S   UNL     1      38.002   7.477  14.437  0.00  0.00    +0.000 S 
BRANCH  22  23
ATOM     23  C   UNL     1      37.542   8.787  15.565  0.00  0.00    +0.000 C 
BRANCH  23  24
ATOM     24  C   UNL     1      38.634   9.181  16.425  0.00  0.00    +0.000 C 
ATOM     25  O   UNL     1      39.457  10.074  15.988  0.00  0.00    +0.000 OA
BRANCH  24  26
ATOM     26  C   UNL     1      38.896   8.667  17.742  0.00  0.00    +0.000 A 
ATOM     27  C   UNL     1      38.095   8.863  18.879  0.00  0.00    +0.000 A 
ATOM     28  N   UNL     1      38.679   8.271  19.920  0.00  0.00    +0.000 NA
ATOM     29  C   UNL     1      39.818   7.686  19.572  0.00  0.00    +0.000 A 
ATOM     30  C   UNL     1      40.763   6.951  20.253  0.00  0.00    +0.000 A 
ATOM     31  C   UNL     1      41.884   6.420  19.632  0.00  0.00    +0.000 A 
ATOM     32  C   UNL     1      42.037   6.652  18.286  0.00  0.00    +0.000 A 
ATOM     33  C   UNL     1      41.091   7.385  17.624  0.00  0.00    +0.000 A 
ATOM     34  C   UNL     1      39.959   7.932  18.204  0.00  0.00    +0.000 A 
ENDBRANCH  24  26
ENDBRANCH  23  24
ENDBRANCH  22  23
ENDBRANCH   2  22
TORSDOF 9
ENDMDL
MODEL 8
REMARK VINA RESULT:      -7.5      2.996     10.856
REMARK  Name = 
REMARK  9 active torsions:
REMARK  status: ('A' for Active; 'I' for Inactive)
REMARK    1  A    between atoms: C_2  and  C_3
REMARK    2  A    between atoms: C_3  and  N_4
REMARK    3  A    between atoms: C_5  and  S_6
REMARK    4  A    between atoms: S_6  and  C_7
REMARK    5  A    between atoms: C_7  and  C_8
REMARK    6  A    between atoms: C_8  and  C_10
REMARK    7  A    between atoms: C_21  and  C_22
REMARK    8  A    between atoms: C_27  and  O_28
REMARK    9  A    between atoms: C_32  and  C_33
REMARK                            x       y       z     vdW  Elec       q    Type
REMARK                         _______ _______ _______ _____ _____    ______ ____
ROOT
ATOM      1  N   UNL     1      38.660   5.386  16.454  0.00  0.00    +0.000 N 
ATOM      2  C   UNL     1      37.709   4.401  16.348  0.00  0.00    +0.000 A 
ATOM      3  N   UNL     1      37.747   3.742  17.511  0.00  0.00    +0.000 NA
ATOM      4  N   UNL     1      38.659   4.287  18.278  0.00  0.00    +0.000 NA
ATOM      5  C   UNL     1      39.262   5.348  17.624  0.00  0.00    +0.000 A 
ENDROOT
BRANCH   5   6
ATOM      6  C   UNL     1      40.348   6.126  18.224  0.00  0.00    +0.000 A 
ATOM      7  N   UNL     1      41.634   6.107  17.714  0.00  0.00    +0.000 NA
ATOM      8  C   UNL     1      42.439   6.880  18.435  0.00  0.00    +0.000 A 
ATOM      9  C   UNL     1      43.777   7.177  18.319  0.00  0.00    +0.000 A 
ATOM     10  C   UNL     1      44.398   8.040  19.225  0.00  0.00    +0.000 A 
ATOM     11  C   UNL     1      43.687   8.614  20.255  0.00  0.00    +0.000 A 
ATOM     12  C   UNL     1      42.337   8.297  20.350  0.00  0.00    +0.000 A 
ATOM     13  C   UNL     1      41.724   7.444  19.457  0.00  0.00    +0.000 A 
ATOM     14  C   UNL     1      40.422   6.947  19.291  0.00  0.00    +0.000 A 
BRANCH  11  15
ATOM     15  O   UNL     1      44.312   9.470  21.148  0.00  0.00    +0.000 OA
ATOM     16  C   UNL     1      44.477   9.118  22.511  0.00  0.00    +0.000 C 
ENDBRANCH  11  15
BRANCH  14  17
ATOM     17  C   UNL     1      39.376   7.268  20.281  0.00  0.00    +0.000 C 
ATOM     18  C   UNL     1      38.444   8.336  19.685  0.00  0.00    +0.000 C 
ENDBRANCH  14  17
ENDBRANCH   5   6
BRANCH   1  19
ATOM     19  C   UNL     1      38.957   6.299  15.371  0.00  0.00    +0.000 C 
BRANCH  19  21
ATOM     20  C   UNL     1      38.776   8.699  16.003  0.00  0.00    +0.000 C 
ATOM     21  C   UNL     1      38.197   7.562  15.686  0.00  0.00    +0.000 C 
ENDBRANCH  19  21
ENDBRANCH   1  19
BRANCH   2  22
ATOM     22  S   UNL     1      36.696   4.151  14.922  0.00  0.00    +0.000 S 
BRANCH  22  23
ATOM     23  C   UNL     1      36.961   2.588  14.092  0.00  0.00    +0.000 C 
BRANCH  23  24
ATOM     24  C   UNL     1      37.273   1.520  15.014  0.00  0.00    +0.000 C 
ATOM     25  O   UNL     1      38.515   1.225  15.201  0.00  0.00    +0.000 OA
BRANCH  24  26
ATOM     26  C   UNL     1      36.318   0.741  15.753  0.00  0.00    +0.000 A 
ATOM     27  C   UNL     1      35.487   1.215  16.782  0.00  0.00    +0.000 A 
ATOM     28  N   UNL     1      34.768   0.197  17.254  0.00  0.00    +0.000 NA
ATOM     29  C   UNL     1      35.050  -0.933  16.618  0.00  0.00    +0.000 A 
ATOM     30  C   UNL     1      34.584  -2.227  16.714  0.00  0.00    +0.000 A 
ATOM     31  C   UNL     1      35.042  -3.247  15.894  0.00  0.00    +0.000 A 
ATOM     32  C   UNL     1      35.999  -2.931  14.958  0.00  0.00    +0.000 A 
ATOM     33  C   UNL     1      36.451  -1.644  14.876  0.00  0.00    +0.000 A 
ATOM     34  C   UNL     1      36.022  -0.597  15.674  0.00  0.00    +0.000 A 
ENDBRANCH  24  26
ENDBRANCH  23  24
ENDBRANCH  22  23
ENDBRANCH   2  22
TORSDOF 9
ENDMDL
MODEL 9
REMARK VINA RESULT:      -7.5      2.851     10.763
REMARK  Name = 
REMARK  9 active torsions:
REMARK  status: ('A' for Active; 'I' for Inactive)
REMARK    1  A    between atoms: C_2  and  C_3
REMARK    2  A    between atoms: C_3  and  N_4
REMARK    3  A    between atoms: C_5  and  S_6
REMARK    4  A    between atoms: S_6  and  C_7
REMARK    5  A    between atoms: C_7  and  C_8
REMARK    6  A    between atoms: C_8  and  C_10
REMARK    7  A    between atoms: C_21  and  C_22
REMARK    8  A    between atoms: C_27  and  O_28
REMARK    9  A    between atoms: C_32  and  C_33
REMARK                            x       y       z     vdW  Elec       q    Type
REMARK                         _______ _______ _______ _____ _____    ______ ____
ROOT
ATOM      1  N   UNL     1      37.765   5.301  16.296  0.00  0.00    +0.000 N 
ATOM      2  C   UNL     1      37.486   3.989  15.999  0.00  0.00    +0.000 A 
ATOM      3  N   UNL     1      37.804   3.300  17.100  0.00  0.00    +0.000 NA
ATOM      4  N   UNL     1      38.246   4.132  18.010  0.00  0.00    +0.000 NA
ATOM      5  C   UNL     1      38.230   5.428  17.521  0.00  0.00    +0.000 A 
ENDROOT
BRANCH   5   6
ATOM      6  C   UNL     1      38.704   6.570  18.306  0.00  0.00    +0.000 A 
ATOM      7  N   UNL     1      37.866   7.607  18.673  0.00  0.00    +0.000 NA
ATOM      8  C   UNL     1      38.528   8.527  19.366  0.00  0.00    +0.000 A 
ATOM      9  C   UNL     1      38.131   9.713  19.937  0.00  0.00    +0.000 A 
ATOM     10  C   UNL     1      39.043  10.513  20.630  0.00  0.00    +0.000 A 
ATOM     11  C   UNL     1      40.360  10.134  20.759  0.00  0.00    +0.000 A 
ATOM     12  C   UNL     1      40.736   8.931  20.173  0.00  0.00    +0.000 A 
ATOM     13  C   UNL     1      39.837   8.142  19.487  0.00  0.00    +0.000 A 
ATOM     14  C   UNL     1      39.906   6.915  18.810  0.00  0.00    +0.000 A 
BRANCH  11  15
ATOM     15  O   UNL     1      41.257  10.934  21.449  0.00  0.00    +0.000 OA
ATOM     16  C   UNL     1      41.046  12.328  21.585  0.00  0.00    +0.000 C 
ENDBRANCH  11  15
BRANCH  14  17
ATOM     17  C   UNL     1      41.204   6.233  18.645  0.00  0.00    +0.000 C 
ATOM     18  C   UNL     1      41.823   6.668  17.305  0.00  0.00    +0.000 C 
ENDBRANCH  14  17
ENDBRANCH   5   6
BRANCH   1  19
ATOM     19  C   UNL     1      37.591   6.369  15.335  0.00  0.00    +0.000 C 
BRANCH  19  21
ATOM     20  C   UNL     1      39.597   7.738  14.791  0.00  0.00    +0.000 C 
ATOM     21  C   UNL     1      38.953   6.594  14.728  0.00  0.00    +0.000 C 
ENDBRANCH  19  21
ENDBRANCH   1  19
BRANCH   2  22
ATOM     22  S   UNL     1      36.840   3.440  14.449  0.00  0.00    +0.000 S 
BRANCH  22  23
ATOM     23  C   UNL     1      37.920   2.336  13.547  0.00  0.00    +0.000 C 
BRANCH  23  24
ATOM     24  C   UNL     1      38.357   1.216  14.348  0.00  0.00    +0.000 C 
ATOM     25  O   UNL     1      39.484   1.319  14.969  0.00  0.00    +0.000 OA
BRANCH  24  26
ATOM     26  C   UNL     1      37.649  -0.022  14.522  0.00  0.00    +0.000 A 
ATOM     27  C   UNL     1      37.819  -1.185  13.752  0.00  0.00    +0.000 A 
ATOM     28  N   UNL     1      36.963  -2.111  14.182  0.00  0.00    +0.000 NA
ATOM     29  C   UNL     1      36.225  -1.662  15.188  0.00  0.00    +0.000 A 
ATOM     30  C   UNL     1      35.235  -2.216  15.971  0.00  0.00    +0.000 A 
ATOM     31  C   UNL     1      34.621  -1.519  17.001  0.00  0.00    +0.000 A 
ATOM     32  C   UNL     1      35.031  -0.226  17.229  0.00  0.00    +0.000 A 
ATOM     33  C   UNL     1      36.013   0.309  16.443  0.00  0.00    +0.000 A 
ATOM     34  C   UNL     1      36.651  -0.350  15.406  0.00  0.00    +0.000 A 
ENDBRANCH  24  26
ENDBRANCH  23  24
ENDBRANCH  22  23
ENDBRANCH   2  22
TORSDOF 9
ENDMDL
MODEL 10
REMARK VINA RESULT:      -7.4      4.600      8.790
REMARK  Name = 
REMARK  9 active torsions:
REMARK  status: ('A' for Active; 'I' for Inactive)
REMARK    1  A    between atoms: C_2  and  C_3
REMARK    2  A    between atoms: C_3  and  N_4
REMARK    3  A    between atoms: C_5  and  S_6
REMARK    4  A    between atoms: S_6  and  C_7
REMARK    5  A    between atoms: C_7  and  C_8
REMARK    6  A    between atoms: C_8  and  C_10
REMARK    7  A    between atoms: C_21  and  C_22
REMARK    8  A    between atoms: C_27  and  O_28
REMARK    9  A    between atoms: C_32  and  C_33
REMARK                            x       y       z     vdW  Elec       q    Type
REMARK                         _______ _______ _______ _____ _____    ______ ____
ROOT
ATOM      1  N   UNL     1      38.100   0.974  13.457  0.00  0.00    +0.000 N 
ATOM      2  C   UNL     1      39.067   0.257  14.118  0.00  0.00    +0.000 A 
ATOM      3  N   UNL     1      39.564   1.093  15.036  0.00  0.00    +0.000 NA
ATOM      4  N   UNL     1      38.943   2.242  14.945  0.00  0.00    +0.000 NA
ATOM      5  C   UNL     1      37.993   2.195  13.937  0.00  0.00    +0.000 A 
ENDROOT
BRANCH   5   6
ATOM      6  C   UNL     1      37.168   3.350  13.581  0.00  0.00    +0.000 A 
ATOM      7  N   UNL     1      36.095   3.754  14.356  0.00  0.00    +0.000 NA
ATOM      8  C   UNL     1      35.497   4.813  13.821  0.00  0.00    +0.000 A 
ATOM      9  C   UNL     1      34.413   5.557  14.221  0.00  0.00    +0.000 A 
ATOM     10  C   UNL     1      33.978   6.649  13.465  0.00  0.00    +0.000 A 
ATOM     11  C   UNL     1      34.624   7.005  12.303  0.00  0.00    +0.000 A 
ATOM     12  C   UNL     1      35.717   6.236  11.921  0.00  0.00    +0.000 A 
ATOM     13  C   UNL     1      36.146   5.158  12.666  0.00  0.00    +0.000 A 
ATOM     14  C   UNL     1      37.182   4.219  12.550  0.00  0.00    +0.000 A 
BRANCH  11  15
ATOM     15  O   UNL     1      34.186   8.090  11.560  0.00  0.00    +0.000 OA
ATOM     16  C   UNL     1      34.482   8.205  10.179  0.00  0.00    +0.000 C 
ENDBRANCH  11  15
BRANCH  14  17
ATOM     17  C   UNL     1      38.049   4.217  11.356  0.00  0.00    +0.000 C 
ATOM     18  C   UNL     1      39.335   4.997  11.680  0.00  0.00    +0.000 C 
ENDBRANCH  14  17
ENDBRANCH   5   6
BRANCH   1  19
ATOM     19  C   UNL     1      37.347   0.426  12.348  0.00  0.00    +0.000 C 
BRANCH  19  21
ATOM     20  C   UNL     1      38.998   0.282  10.492  0.00  0.00    +0.000 C 
ATOM     21  C   UNL     1      38.032   0.931  11.104  0.00  0.00    +0.000 C 
ENDBRANCH  19  21
ENDBRANCH   1  19
BRANCH   2  22
ATOM     22  S   UNL     1      39.483  -1.420  13.749  0.00  0.00    +0.000 S 
BRANCH  22  23
ATOM     23  C   UNL     1      39.789  -2.439  15.187  0.00  0.00    +0.000 C 
BRANCH  23  24
ATOM     24  C   UNL     1      38.577  -2.757  15.906  0.00  0.00    +0.000 C 
ATOM     25  O   UNL     1      37.934  -3.824  15.567  0.00  0.00    +0.000 OA
BRANCH  24  26
ATOM     26  C   UNL     1      38.008  -1.988  16.978  0.00  0.00    +0.000 A 
ATOM     27  C   UNL     1      38.375  -2.063  18.332  0.00  0.00    +0.000 A 
ATOM     28  N   UNL     1      37.602  -1.232  19.031  0.00  0.00    +0.000 NA
ATOM     29  C   UNL     1      36.738  -0.598  18.249  0.00  0.00    +0.000 A 
ATOM     30  C   UNL     1      35.762   0.349  18.472  0.00  0.00    +0.000 A 
ATOM     31  C   UNL     1      34.990   0.879  17.450  0.00  0.00    +0.000 A 
ATOM     32  C   UNL     1      35.225   0.427  16.173  0.00  0.00    +0.000 A 
ATOM     33  C   UNL     1      36.197  -0.513  15.968  0.00  0.00    +0.000 A 
ATOM     34  C   UNL     1      36.989  -1.069  16.959  0.00  0.00    +0.000 A 
ENDBRANCH  24  26
ENDBRANCH  23  24
ENDBRANCH  22  23
ENDBRANCH   2  22
TORSDOF 9
ENDMDL
