MODEL 1
REMARK VINA RESULT:      -5.8      0.000      0.000
REMARK  Name = 
REMARK  4 active torsions:
REMARK  status: ('A' for Active; 'I' for Inactive)
REMARK    1  A    between atoms: C_2  and  C_5
REMARK    2  A    between atoms: N_7  and  C_8
REMARK    3  A    between atoms: C_8  and  N_10
REMARK    4  A    between atoms: N_10  and  C_11
REMARK                            x       y       z     vdW  Elec       q    Type
REMARK                         _______ _______ _______ _____ _____    ______ ____
ROOT
ATOM      1  C   UNL     1      30.537  20.967  11.303  0.00  0.00    +0.000 C 
ATOM      2  S   UNL     1      31.744  20.217  12.203  0.00  0.00    +0.000 S 
ENDROOT
BRANCH   1   5
ATOM      3  C   UNL     1      31.270  21.187   8.927  0.00  0.00    +0.000 C 
ATOM      4  O   UNL     1      31.962  22.194   9.168  0.00  0.00    +0.000 OA
ATOM      5  N   UNL     1      30.561  20.566   9.958  0.00  0.00    +0.000 NA
BRANCH   3   7
ATOM      6  C   UNL     1      31.145  21.928   6.628  0.00  0.00    +0.000 C 
ATOM      7  C   UNL     1      31.245  20.694   7.510  0.00  0.00    +0.000 C 
ATOM      8  C   UNL     1      32.562  20.036   7.186  0.00  0.00    +0.000 C 
ATOM      9  C   UNL     1      30.061  19.789   7.277  0.00  0.00    +0.000 C 
ENDBRANCH   3   7
ENDBRANCH   1   5
BRANCH   1  10
ATOM     10  N   UNL     1      29.737  21.803  11.891  0.00  0.00    +0.000 NA
BRANCH  10  11
ATOM     11  C   UNL     1      28.922  22.656  12.491  0.00  0.00    +0.000 A 
ATOM     12  C   UNL     1      29.280  23.452  13.554  0.00  0.00    +0.000 A 
ATOM     13  C   UNL     1      28.442  24.342  14.189  0.00  0.00    +0.000 A 
ATOM     14  C   UNL     1      27.151  24.435  13.718  0.00  0.00    +0.000 A 
ATOM     15  C   UNL     1      26.716  23.673  12.660  0.00  0.00    +0.000 A 
ATOM     16  C   UNL     1      27.592  22.802  12.063  0.00  0.00    +0.000 A 
ATOM     17  O   UNL     1      27.182  22.012  10.984  0.00  0.00    +0.000 OA
ENDBRANCH  10  11
ENDBRANCH   1  10
TORSDOF 4
ENDMDL
MODEL 2
REMARK VINA RESULT:      -5.5     29.162     30.202
REMARK  Name = 
REMARK  4 active torsions:
REMARK  status: ('A' for Active; 'I' for Inactive)
REMARK    1  A    between atoms: C_2  and  C_5
REMARK    2  A    between atoms: N_7  and  C_8
REMARK    3  A    between atoms: C_8  and  N_10
REMARK    4  A    between atoms: N_10  and  C_11
REMARK                            x       y       z     vdW  Elec       q    Type
REMARK                         _______ _______ _______ _____ _____    ______ ____
ROOT
ATOM      1  C   UNL     1      18.905   9.873  37.114  0.00  0.00    +0.000 C 
ATOM      2  S   UNL     1      18.288   9.484  38.630  0.00  0.00    +0.000 S 
ENDROOT
BRANCH   1   5
ATOM      3  C   UNL     1      21.246  10.658  37.482  0.00  0.00    +0.000 C 
ATOM      4  O   UNL     1      20.873  11.749  37.954  0.00  0.00    +0.000 OA
ATOM      5  N   UNL     1      20.301   9.721  37.062  0.00  0.00    +0.000 NA
BRANCH   3   7
ATOM      6  C   UNL     1      23.038  10.202  35.922  0.00  0.00    +0.000 C 
ATOM      7  C   UNL     1      22.725  10.418  37.394  0.00  0.00    +0.000 C 
ATOM      8  C   UNL     1      23.460  11.665  37.813  0.00  0.00    +0.000 C 
ATOM      9  C   UNL     1      23.121   9.203  38.195  0.00  0.00    +0.000 C 
ENDBRANCH   3   7
ENDBRANCH   1   5
BRANCH   1  10
ATOM     10  N   UNL     1      18.091  10.261  36.180  0.00  0.00    +0.000 NA
BRANCH  10  11
ATOM     11  C   UNL     1      17.262  10.657  35.228  0.00  0.00    +0.000 A 
ATOM     12  C   UNL     1      17.393  10.322  33.900  0.00  0.00    +0.000 A 
ATOM     13  C   UNL     1      16.539  10.728  32.898  0.00  0.00    +0.000 A 
ATOM     14  C   UNL     1      15.477  11.526  33.262  0.00  0.00    +0.000 A 
ATOM     15  C   UNL     1      15.278  11.904  34.569  0.00  0.00    +0.000 A 
ATOM     16  C   UNL     1      16.158  11.472  35.527  0.00  0.00    +0.000 A 
ATOM     17  O   UNL     1      15.984  11.837  36.867  0.00  0.00    +0.000 OA
ENDBRANCH  10  11
ENDBRANCH   1  10
TORSDOF 4
ENDMDL
MODEL 3
REMARK VINA RESULT:      -5.2     33.507     34.283
REMARK  Name = 
REMARK  4 active torsions:
REMARK  status: ('A' for Active; 'I' for Inactive)
REMARK    1  A    between atoms: C_2  and  C_5
REMARK    2  A    between atoms: N_7  and  C_8
REMARK    3  A    between atoms: C_8  and  N_10
REMARK    4  A    between atoms: N_10  and  C_11
REMARK                            x       y       z     vdW  Elec       q    Type
REMARK                         _______ _______ _______ _____ _____    ______ ____
ROOT
ATOM      1  C   UNL     1      21.869  -9.258  25.809  0.00  0.00    +0.000 C 
ATOM      2  S   UNL     1      21.950 -10.636  26.770  0.00  0.00    +0.000 S 
ENDROOT
BRANCH   1   5
ATOM      3  C   UNL     1      23.612  -8.151  24.406  0.00  0.00    +0.000 C 
ATOM      4  O   UNL     1      23.427  -7.041  24.940  0.00  0.00    +0.000 OA
ATOM      5  N   UNL     1      22.861  -9.255  24.814  0.00  0.00    +0.000 NA
BRANCH   3   7
ATOM      6  C   UNL     1      25.372  -6.888  23.329  0.00  0.00    +0.000 C 
ATOM      7  C   UNL     1      24.658  -8.231  23.333  0.00  0.00    +0.000 C 
ATOM      8  C   UNL     1      25.687  -9.266  23.714  0.00  0.00    +0.000 C 
ATOM      9  C   UNL     1      24.030  -8.492  21.988  0.00  0.00    +0.000 C 
ENDBRANCH   3   7
ENDBRANCH   1   5
BRANCH   1  10
ATOM     10  N   UNL     1      20.956  -8.369  26.054  0.00  0.00    +0.000 NA
BRANCH  10  11
ATOM     11  C   UNL     1      20.025  -7.461  26.303  0.00  0.00    +0.000 A 
ATOM     12  C   UNL     1      20.094  -6.151  25.893  0.00  0.00    +0.000 A 
ATOM     13  C   UNL     1      19.134  -5.194  26.147  0.00  0.00    +0.000 A 
ATOM     14  C   UNL     1      18.027  -5.591  26.865  0.00  0.00    +0.000 A 
ATOM     15  C   UNL     1      17.886  -6.884  27.311  0.00  0.00    +0.000 A 
ATOM     16  C   UNL     1      18.871  -7.795  27.030  0.00  0.00    +0.000 A 
ATOM     17  O   UNL     1      18.758  -9.119  27.468  0.00  0.00    +0.000 OA
ENDBRANCH  10  11
ENDBRANCH   1  10
TORSDOF 4
ENDMDL
MODEL 4
REMARK VINA RESULT:      -5.2     33.594     34.388
REMARK  Name = 
REMARK  4 active torsions:
REMARK  status: ('A' for Active; 'I' for Inactive)
REMARK    1  A    between atoms: C_2  and  C_5
REMARK    2  A    between atoms: N_7  and  C_8
REMARK    3  A    between atoms: C_8  and  N_10
REMARK    4  A    between atoms: N_10  and  C_11
REMARK                            x       y       z     vdW  Elec       q    Type
REMARK                         _______ _______ _______ _____ _____    ______ ____
ROOT
ATOM      1  C   UNL     1      21.897  -9.338  25.897  0.00  0.00    +0.000 C 
ATOM      2  S   UNL     1      22.507 -10.481  26.970  0.00  0.00    +0.000 S 
ENDROOT
BRANCH   1   5
ATOM      3  C   UNL     1      23.434  -8.101  24.367  0.00  0.00    +0.000 C 
ATOM      4  O   UNL     1      23.423  -7.079  25.079  0.00  0.00    +0.000 OA
ATOM      5  N   UNL     1      22.695  -9.223  24.746  0.00  0.00    +0.000 NA
BRANCH   3   7
ATOM      6  C   UNL     1      24.879  -9.441  22.964  0.00  0.00    +0.000 C 
ATOM      7  C   UNL     1      24.265  -8.059  23.118  0.00  0.00    +0.000 C 
ATOM      8  C   UNL     1      23.365  -7.850  21.927  0.00  0.00    +0.000 C 
ATOM      9  C   UNL     1      25.348  -7.016  23.228  0.00  0.00    +0.000 C 
ENDBRANCH   3   7
ENDBRANCH   1   5
BRANCH   1  10
ATOM     10  N   UNL     1      20.812  -8.696  26.205  0.00  0.00    +0.000 NA
BRANCH  10  11
ATOM     11  C   UNL     1      19.705  -8.042  26.519  0.00  0.00    +0.000 A 
ATOM     12  C   UNL     1      18.693  -8.561  27.292  0.00  0.00    +0.000 A 
ATOM     13  C   UNL     1      17.535  -7.893  27.625  0.00  0.00    +0.000 A 
ATOM     14  C   UNL     1      17.390  -6.609  27.146  0.00  0.00    +0.000 A 
ATOM     15  C   UNL     1      18.358  -6.020  26.367  0.00  0.00    +0.000 A 
ATOM     16  C   UNL     1      19.491  -6.731  26.065  0.00  0.00    +0.000 A 
ATOM     17  O   UNL     1      20.496  -6.161  25.275  0.00  0.00    +0.000 OA
ENDBRANCH  10  11
ENDBRANCH   1  10
TORSDOF 4
ENDMDL
MODEL 5
REMARK VINA RESULT:      -5.1     29.393     30.840
REMARK  Name = 
REMARK  4 active torsions:
REMARK  status: ('A' for Active; 'I' for Inactive)
REMARK    1  A    between atoms: C_2  and  C_5
REMARK    2  A    between atoms: N_7  and  C_8
REMARK    3  A    between atoms: C_8  and  N_10
REMARK    4  A    between atoms: N_10  and  C_11
REMARK                            x       y       z     vdW  Elec       q    Type
REMARK                         _______ _______ _______ _____ _____    ______ ____
ROOT
ATOM      1  C   UNL     1      19.864  10.299  38.408  0.00  0.00    +0.000 C 
ATOM      2  S   UNL     1      19.725  10.080  40.070  0.00  0.00    +0.000 S 
ENDROOT
BRANCH   1   5
ATOM      3  C   UNL     1      17.960  11.552  37.390  0.00  0.00    +0.000 C 
ATOM      4  O   UNL     1      18.500  12.657  37.586  0.00  0.00    +0.000 OA
ATOM      5  N   UNL     1      18.608  10.379  37.784  0.00  0.00    +0.000 NA
BRANCH   3   7
ATOM      6  C   UNL     1      15.629  11.015  37.751  0.00  0.00    +0.000 C 
ATOM      7  C   UNL     1      16.614  11.553  36.726  0.00  0.00    +0.000 C 
ATOM      8  C   UNL     1      16.202  12.974  36.435  0.00  0.00    +0.000 C 
ATOM      9  C   UNL     1      16.619  10.678  35.498  0.00  0.00    +0.000 C 
ENDBRANCH   3   7
ENDBRANCH   1   5
BRANCH   1  10
ATOM     10  N   UNL     1      21.046  10.367  37.876  0.00  0.00    +0.000 NA
BRANCH  10  11
ATOM     11  C   UNL     1      22.251  10.438  37.334  0.00  0.00    +0.000 A 
ATOM     12  C   UNL     1      22.746   9.528  36.429  0.00  0.00    +0.000 A 
ATOM     13  C   UNL     1      23.999   9.587  35.857  0.00  0.00    +0.000 A 
ATOM     14  C   UNL     1      24.808  10.639  36.226  0.00  0.00    +0.000 A 
ATOM     15  C   UNL     1      24.385  11.590  37.125  0.00  0.00    +0.000 A 
ATOM     16  C   UNL     1      23.128  11.483  37.663  0.00  0.00    +0.000 A 
ATOM     17  O   UNL     1      22.667  12.433  38.581  0.00  0.00    +0.000 OA
ENDBRANCH  10  11
ENDBRANCH   1  10
TORSDOF 4
ENDMDL
MODEL 6
REMARK VINA RESULT:      -5.1     31.619     32.749
REMARK  Name = 
REMARK  4 active torsions:
REMARK  status: ('A' for Active; 'I' for Inactive)
REMARK    1  A    between atoms: C_2  and  C_5
REMARK    2  A    between atoms: N_7  and  C_8
REMARK    3  A    between atoms: C_8  and  N_10
REMARK    4  A    between atoms: N_10  and  C_11
REMARK                            x       y       z     vdW  Elec       q    Type
REMARK                         _______ _______ _______ _____ _____    ______ ____
ROOT
ATOM      1  C   UNL     1      34.253   0.987  36.909  0.00  0.00    +0.000 C 
ATOM      2  S   UNL     1      34.338   0.692  38.563  0.00  0.00    +0.000 S 
ENDROOT
BRANCH   1   5
ATOM      3  C   UNL     1      33.264  -0.944  35.674  0.00  0.00    +0.000 C 
ATOM      4  O   UNL     1      32.096  -0.569  35.895  0.00  0.00    +0.000 OA
ATOM      5  N   UNL     1      34.340  -0.198  36.160  0.00  0.00    +0.000 NA
BRANCH   3   7
ATOM      6  C   UNL     1      32.102  -2.924  34.910  0.00  0.00    +0.000 C 
ATOM      7  C   UNL     1      33.441  -2.204  34.878  0.00  0.00    +0.000 C 
ATOM      8  C   UNL     1      33.708  -1.852  33.437  0.00  0.00    +0.000 C 
ATOM      9  C   UNL     1      34.515  -3.073  35.481  0.00  0.00    +0.000 C 
ENDBRANCH   3   7
ENDBRANCH   1   5
BRANCH   1  10
ATOM     10  N   UNL     1      34.125   2.209  36.490  0.00  0.00    +0.000 NA
BRANCH  10  11
ATOM     11  C   UNL     1      33.994   3.455  36.064  0.00  0.00    +0.000 A 
ATOM     12  C   UNL     1      34.030   4.560  36.881  0.00  0.00    +0.000 A 
ATOM     13  C   UNL     1      33.893   5.863  36.452  0.00  0.00    +0.000 A 
ATOM     14  C   UNL     1      33.708   6.063  35.101  0.00  0.00    +0.000 A 
ATOM     15  C   UNL     1      33.660   5.009  34.219  0.00  0.00    +0.000 A 
ATOM     16  C   UNL     1      33.802   3.733  34.700  0.00  0.00    +0.000 A 
ATOM     17  O   UNL     1      33.759   2.638  33.830  0.00  0.00    +0.000 OA
ENDBRANCH  10  11
ENDBRANCH   1  10
TORSDOF 4
ENDMDL
MODEL 7
REMARK VINA RESULT:      -4.9     30.718     32.661
REMARK  Name = 
REMARK  4 active torsions:
REMARK  status: ('A' for Active; 'I' for Inactive)
REMARK    1  A    between atoms: C_2  and  C_5
REMARK    2  A    between atoms: N_7  and  C_8
REMARK    3  A    between atoms: C_8  and  N_10
REMARK    4  A    between atoms: N_10  and  C_11
REMARK                            x       y       z     vdW  Elec       q    Type
REMARK                         _______ _______ _______ _____ _____    ______ ____
ROOT
ATOM      1  C   UNL     1      19.040  10.849  38.497  0.00  0.00    +0.000 C 
ATOM      2  S   UNL     1      18.307  12.030  37.550  0.00  0.00    +0.000 S 
ENDROOT
BRANCH   1   5
ATOM      3  C   UNL     1      21.171  10.234  37.352  0.00  0.00    +0.000 C 
ATOM      4  O   UNL     1      20.582   9.587  36.465  0.00  0.00    +0.000 OA
ATOM      5  N   UNL     1      20.438  10.862  38.361  0.00  0.00    +0.000 NA
BRANCH   3   7
ATOM      6  C   UNL     1      23.076  11.617  37.911  0.00  0.00    +0.000 C 
ATOM      7  C   UNL     1      22.669  10.296  37.276  0.00  0.00    +0.000 C 
ATOM      8  C   UNL     1      23.259   9.205  38.132  0.00  0.00    +0.000 C 
ATOM      9  C   UNL     1      23.137  10.240  35.844  0.00  0.00    +0.000 C 
ENDBRANCH   3   7
ENDBRANCH   1   5
BRANCH   1  10
ATOM     10  N   UNL     1      18.298  10.072  39.226  0.00  0.00    +0.000 NA
BRANCH  10  11
ATOM     11  C   UNL     1      17.543   9.279  39.969  0.00  0.00    +0.000 A 
ATOM     12  C   UNL     1      16.317   9.636  40.480  0.00  0.00    +0.000 A 
ATOM     13  C   UNL     1      15.520   8.822  41.256  0.00  0.00    +0.000 A 
ATOM     14  C   UNL     1      15.994   7.559  41.535  0.00  0.00    +0.000 A 
ATOM     15  C   UNL     1      17.211   7.128  41.061  0.00  0.00    +0.000 A 
ATOM     16  C   UNL     1      17.964   7.979  40.292  0.00  0.00    +0.000 A 
ATOM     17  O   UNL     1      19.206   7.572  39.793  0.00  0.00    +0.000 OA
ENDBRANCH  10  11
ENDBRANCH   1  10
TORSDOF 4
ENDMDL
MODEL 8
REMARK VINA RESULT:      -4.9      2.551      3.601
REMARK  Name = 
REMARK  4 active torsions:
REMARK  status: ('A' for Active; 'I' for Inactive)
REMARK    1  A    between atoms: C_2  and  C_5
REMARK    2  A    between atoms: N_7  and  C_8
REMARK    3  A    between atoms: C_8  and  N_10
REMARK    4  A    between atoms: N_10  and  C_11
REMARK                            x       y       z     vdW  Elec       q    Type
REMARK                         _______ _______ _______ _____ _____    ______ ____
ROOT
ATOM      1  C   UNL     1      32.221  20.677   8.467  0.00  0.00    +0.000 C 
ATOM      2  S   UNL     1      33.627  19.770   8.648  0.00  0.00    +0.000 S 
ENDROOT
BRANCH   1   5
ATOM      3  C   UNL     1      30.628  20.188   6.608  0.00  0.00    +0.000 C 
ATOM      4  O   UNL     1      29.839  19.584   7.359  0.00  0.00    +0.000 OA
ATOM      5  N   UNL     1      31.804  20.734   7.127  0.00  0.00    +0.000 NA
BRANCH   3   7
ATOM      6  C   UNL     1      31.458  19.809   4.367  0.00  0.00    +0.000 C 
ATOM      7  C   UNL     1      30.253  20.293   5.159  0.00  0.00    +0.000 C 
ATOM      8  C   UNL     1      29.128  19.334   4.863  0.00  0.00    +0.000 C 
ATOM      9  C   UNL     1      29.925  21.717   4.790  0.00  0.00    +0.000 C 
ENDBRANCH   3   7
ENDBRANCH   1   5
BRANCH   1  10
ATOM     10  N   UNL     1      31.677  21.215   9.515  0.00  0.00    +0.000 NA
BRANCH  10  11
ATOM     11  C   UNL     1      31.122  21.765  10.583  0.00  0.00    +0.000 A 
ATOM     12  C   UNL     1      30.214  22.797  10.539  0.00  0.00    +0.000 A 
ATOM     13  C   UNL     1      29.630  23.380  11.643  0.00  0.00    +0.000 A 
ATOM     14  C   UNL     1      29.988  22.885  12.878  0.00  0.00    +0.000 A 
ATOM     15  C   UNL     1      30.889  21.854  13.005  0.00  0.00    +0.000 A 
ATOM     16  C   UNL     1      31.440  21.310  11.873  0.00  0.00    +0.000 A 
ATOM     17  O   UNL     1      32.360  20.260  11.967  0.00  0.00    +0.000 OA
ENDBRANCH  10  11
ENDBRANCH   1  10
TORSDOF 4
ENDMDL
MODEL 9
REMARK VINA RESULT:      -4.9     13.525     16.880
REMARK  Name = 
REMARK  4 active torsions:
REMARK  status: ('A' for Active; 'I' for Inactive)
REMARK    1  A    between atoms: C_2  and  C_5
REMARK    2  A    between atoms: N_7  and  C_8
REMARK    3  A    between atoms: C_8  and  N_10
REMARK    4  A    between atoms: N_10  and  C_11
REMARK                            x       y       z     vdW  Elec       q    Type
REMARK                         _______ _______ _______ _____ _____    ______ ____
ROOT
ATOM      1  C   UNL     1      29.329  22.735  26.620  0.00  0.00    +0.000 C 
ATOM      2  S   UNL     1      31.009  22.826  26.622  0.00  0.00    +0.000 S 
ENDROOT
BRANCH   1   5
ATOM      3  C   UNL     1      28.379  23.273  28.865  0.00  0.00    +0.000 C 
ATOM      4  O   UNL     1      28.412  24.501  28.655  0.00  0.00    +0.000 OA
ATOM      5  N   UNL     1      28.822  22.385  27.883  0.00  0.00    +0.000 NA
BRANCH   3   7
ATOM      6  C   UNL     1      27.074  23.992  30.771  0.00  0.00    +0.000 C 
ATOM      7  C   UNL     1      27.849  22.819  30.193  0.00  0.00    +0.000 C 
ATOM      8  C   UNL     1      26.854  21.706  29.980  0.00  0.00    +0.000 C 
ATOM      9  C   UNL     1      28.975  22.432  31.118  0.00  0.00    +0.000 C 
ENDBRANCH   3   7
ENDBRANCH   1   5
BRANCH   1  10
ATOM     10  N   UNL     1      28.683  22.977  25.521  0.00  0.00    +0.000 NA
BRANCH  10  11
ATOM     11  C   UNL     1      28.025  23.224  24.399  0.00  0.00    +0.000 A 
ATOM     12  C   UNL     1      26.656  23.188  24.283  0.00  0.00    +0.000 A 
ATOM     13  C   UNL     1      25.956  23.440  23.122  0.00  0.00    +0.000 A 
ATOM     14  C   UNL     1      26.693  23.752  22.001  0.00  0.00    +0.000 A 
ATOM     15  C   UNL     1      28.067  23.808  22.036  0.00  0.00    +0.000 A 
ATOM     16  C   UNL     1      28.712  23.548  23.218  0.00  0.00    +0.000 A 
ATOM     17  O   UNL     1      30.108  23.596  23.289  0.00  0.00    +0.000 OA
ENDBRANCH  10  11
ENDBRANCH   1  10
TORSDOF 4
ENDMDL
MODEL 10
REMARK VINA RESULT:      -4.9     33.769     35.208
REMARK  Name = 
REMARK  4 active torsions:
REMARK  status: ('A' for Active; 'I' for Inactive)
REMARK    1  A    between atoms: C_2  and  C_5
REMARK    2  A    between atoms: N_7  and  C_8
REMARK    3  A    between atoms: C_8  and  N_10
REMARK    4  A    between atoms: N_10  and  C_11
REMARK                            x       y       z     vdW  Elec       q    Type
REMARK                         _______ _______ _______ _____ _____    ______ ____
ROOT
ATOM      1  C   UNL     1      34.358  -5.302  33.264  0.00  0.00    +0.000 C 
ATOM      2  S   UNL     1      34.357  -6.438  34.505  0.00  0.00    +0.000 S 
ENDROOT
BRANCH   1   5
ATOM      3  C   UNL     1      33.346  -3.226  34.211  0.00  0.00    +0.000 C 
ATOM      4  O   UNL     1      32.197  -3.705  34.200  0.00  0.00    +0.000 OA
ATOM      5  N   UNL     1      34.424  -3.989  33.757  0.00  0.00    +0.000 NA
BRANCH   3   7
ATOM      6  C   UNL     1      32.162  -1.440  35.333  0.00  0.00    +0.000 C 
ATOM      7  C   UNL     1      33.501  -1.825  34.725  0.00  0.00    +0.000 C 
ATOM      8  C   UNL     1      34.506  -1.813  35.850  0.00  0.00    +0.000 C 
ATOM      9  C   UNL     1      33.858  -0.878  33.607  0.00  0.00    +0.000 C 
ENDBRANCH   3   7
ENDBRANCH   1   5
BRANCH   1  10
ATOM     10  N   UNL     1      34.298  -5.710  32.033  0.00  0.00    +0.000 NA
BRANCH  10  11
ATOM     11  C   UNL     1      34.236  -6.126  30.778  0.00  0.00    +0.000 A 
ATOM     12  C   UNL     1      33.514  -5.498  29.791  0.00  0.00    +0.000 A 
ATOM     13  C   UNL     1      33.439  -5.920  28.481  0.00  0.00    +0.000 A 
ATOM     14  C   UNL     1      34.142  -7.056  28.145  0.00  0.00    +0.000 A 
ATOM     15  C   UNL     1      34.887  -7.740  29.076  0.00  0.00    +0.000 A 
ATOM     16  C   UNL     1      34.928  -7.276  30.366  0.00  0.00    +0.000 A 
ATOM     17  O   UNL     1      35.676  -7.949  31.339  0.00  0.00    +0.000 OA
ENDBRANCH  10  11
ENDBRANCH   1  10
TORSDOF 4
ENDMDL
