MODEL 1
REMARK VINA RESULT:      -7.2      0.000      0.000
REMARK  Name = 
REMARK  0 active torsions:
REMARK  status: ('A' for Active; 'I' for Inactive)
REMARK                            x       y       z     vdW  Elec       q    Type
REMARK                         _______ _______ _______ _____ _____    ______ ____
ROOT
ATOM      1  C   UNL     1      20.996 -11.831  26.503  0.00  0.00    +0.000 C 
ATOM      2  C   UNL     1      21.492 -10.539  25.955  0.00  0.00    +0.000 A 
ATOM      3  N   UNL     1      22.657 -10.487  25.287  0.00  0.00    +0.000 NA
ATOM      4  C   UNL     1      23.151  -9.345  24.769  0.00  0.00    +0.000 A 
ATOM      5  C   UNL     1      22.373  -8.216  24.969  0.00  0.00    +0.000 A 
ATOM      6  C   UNL     1      21.186  -8.173  25.634  0.00  0.00    +0.000 A 
ATOM      7  C   UNL     1      20.747  -9.388  26.136  0.00  0.00    +0.000 A 
ATOM      8  N   UNL     1      19.581  -9.121  26.770  0.00  0.00    +0.000 NA
ATOM      9  C   UNL     1      19.296  -7.818  26.682  0.00  0.00    +0.000 A 
ATOM     10  C   UNL     1      18.275  -7.022  27.146  0.00  0.00    +0.000 A 
ATOM     11  C   UNL     1      18.198  -5.662  26.943  0.00  0.00    +0.000 A 
ATOM     12  C   UNL     1      19.225  -5.088  26.224  0.00  0.00    +0.000 A 
ATOM     13  C   UNL     1      20.242  -5.817  25.748  0.00  0.00    +0.000 A 
ATOM     14  C   UNL     1      20.308  -7.170  25.957  0.00  0.00    +0.000 A 
ATOM     15  C   UNL     1      22.968  -6.885  24.287  0.00  0.00    +0.000 C 
ATOM     16  O   UNL     1      21.682  -6.194  23.852  0.00  0.00    +0.000 OA
ATOM     17  C   UNL     1      23.174  -7.630  22.771  0.00  0.00    +0.000 C 
ATOM     18  C   UNL     1      24.574  -8.169  23.096  0.00  0.00    +0.000 C 
ATOM     19  C   UNL     1      25.444  -7.125  23.761  0.00  0.00    +0.000 C 
ATOM     20  C   UNL     1      25.310  -8.675  21.906  0.00  0.00    +0.000 C 
ATOM     21  C   UNL     1      24.463  -9.305  24.086  0.00  0.00    +0.000 C 
ENDROOT
TORSDOF 0
ENDMDL
MODEL 2
REMARK VINA RESULT:      -6.8     31.486     32.206
REMARK  Name = 
REMARK  0 active torsions:
REMARK  status: ('A' for Active; 'I' for Inactive)
REMARK                            x       y       z     vdW  Elec       q    Type
REMARK                         _______ _______ _______ _____ _____    ______ ____
ROOT
ATOM      1  C   UNL     1      26.055  23.421  30.035  0.00  0.00    +0.000 C 
ATOM      2  C   UNL     1      27.271  23.316  29.182  0.00  0.00    +0.000 A 
ATOM      3  N   UNL     1      28.488  23.218  29.743  0.00  0.00    +0.000 NA
ATOM      4  C   UNL     1      29.620  23.119  29.017  0.00  0.00    +0.000 A 
ATOM      5  C   UNL     1      29.448  23.123  27.643  0.00  0.00    +0.000 A 
ATOM      6  C   UNL     1      28.258  23.223  26.989  0.00  0.00    +0.000 A 
ATOM      7  C   UNL     1      27.142  23.321  27.805  0.00  0.00    +0.000 A 
ATOM      8  N   UNL     1      26.086  23.433  26.966  0.00  0.00    +0.000 NA
ATOM      9  C   UNL     1      26.501  23.411  25.696  0.00  0.00    +0.000 A 
ATOM     10  C   UNL     1      25.873  23.504  24.476  0.00  0.00    +0.000 A 
ATOM     11  C   UNL     1      26.525  23.475  23.264  0.00  0.00    +0.000 A 
ATOM     12  C   UNL     1      27.897  23.344  23.305  0.00  0.00    +0.000 A 
ATOM     13  C   UNL     1      28.558  23.248  24.466  0.00  0.00    +0.000 A 
ATOM     14  C   UNL     1      27.897  23.278  25.666  0.00  0.00    +0.000 A 
ATOM     15  C   UNL     1      30.816  22.945  26.814  0.00  0.00    +0.000 C 
ATOM     16  O   UNL     1      30.326  22.106  25.640  0.00  0.00    +0.000 OA
ATOM     17  C   UNL     1      31.294  21.573  27.699  0.00  0.00    +0.000 C 
ATOM     18  C   UNL     1      31.990  22.383  28.802  0.00  0.00    +0.000 C 
ATOM     19  C   UNL     1      32.853  23.489  28.235  0.00  0.00    +0.000 C 
ATOM     20  C   UNL     1      32.847  21.558  29.697  0.00  0.00    +0.000 C 
ATOM     21  C   UNL     1      30.952  23.067  29.660  0.00  0.00    +0.000 C 
ENDROOT
TORSDOF 0
ENDMDL
MODEL 3
REMARK VINA RESULT:      -6.7     14.262     16.415
REMARK  Name = 
REMARK  0 active torsions:
REMARK  status: ('A' for Active; 'I' for Inactive)
REMARK                            x       y       z     vdW  Elec       q    Type
REMARK                         _______ _______ _______ _____ _____    ______ ____
ROOT
ATOM      1  C   UNL     1      25.410   4.292  12.560  0.00  0.00    +0.000 C 
ATOM      2  C   UNL     1      25.066   4.237  14.007  0.00  0.00    +0.000 A 
ATOM      3  N   UNL     1      23.993   3.544  14.426  0.00  0.00    +0.000 NA
ATOM      4  C   UNL     1      23.639   3.461  15.723  0.00  0.00    +0.000 A 
ATOM      5  C   UNL     1      24.460   4.140  16.609  0.00  0.00    +0.000 A 
ATOM      6  C   UNL     1      25.561   4.868  16.277  0.00  0.00    +0.000 A 
ATOM      7  C   UNL     1      25.858   4.905  14.924  0.00  0.00    +0.000 A 
ATOM      8  N   UNL     1      26.956   5.689  14.813  0.00  0.00    +0.000 NA
ATOM      9  C   UNL     1      27.333   6.127  16.018  0.00  0.00    +0.000 A 
ATOM     10  C   UNL     1      28.343   6.943  16.473  0.00  0.00    +0.000 A 
ATOM     11  C   UNL     1      28.531   7.280  17.795  0.00  0.00    +0.000 A 
ATOM     12  C   UNL     1      27.635   6.751  18.699  0.00  0.00    +0.000 A 
ATOM     13  C   UNL     1      26.635   5.950  18.310  0.00  0.00    +0.000 A 
ATOM     14  C   UNL     1      26.458   5.621  16.991  0.00  0.00    +0.000 A 
ATOM     15  C   UNL     1      24.036   3.968  18.152  0.00  0.00    +0.000 C 
ATOM     16  O   UNL     1      25.406   3.939  18.818  0.00  0.00    +0.000 OA
ATOM     17  C   UNL     1      23.961   2.272  18.050  0.00  0.00    +0.000 C 
ATOM     18  C   UNL     1      22.500   2.249  17.578  0.00  0.00    +0.000 C 
ATOM     19  C   UNL     1      21.629   3.186  18.385  0.00  0.00    +0.000 C 
ATOM     20  C   UNL     1      21.878   0.898  17.631  0.00  0.00    +0.000 C 
ATOM     21  C   UNL     1      22.421   2.737  16.151  0.00  0.00    +0.000 C 
ENDROOT
TORSDOF 0
ENDMDL
MODEL 4
REMARK VINA RESULT:      -6.7     31.181     32.934
REMARK  Name = 
REMARK  0 active torsions:
REMARK  status: ('A' for Active; 'I' for Inactive)
REMARK                            x       y       z     vdW  Elec       q    Type
REMARK                         _______ _______ _______ _____ _____    ______ ____
ROOT
ATOM      1  C   UNL     1      27.988  23.442  23.738  0.00  0.00    +0.000 C 
ATOM      2  C   UNL     1      27.413  23.542  25.107  0.00  0.00    +0.000 A 
ATOM      3  N   UNL     1      27.951  22.846  26.123  0.00  0.00    +0.000 NA
ATOM      4  C   UNL     1      27.471  22.902  27.381  0.00  0.00    +0.000 A 
ATOM      5  C   UNL     1      26.377  23.732  27.565  0.00  0.00    +0.000 A 
ATOM      6  C   UNL     1      25.765  24.469  26.597  0.00  0.00    +0.000 A 
ATOM      7  C   UNL     1      26.317  24.357  25.331  0.00  0.00    +0.000 A 
ATOM      8  N   UNL     1      25.555  25.138  24.530  0.00  0.00    +0.000 NA
ATOM      9  C   UNL     1      24.577  25.709  25.238  0.00  0.00    +0.000 A 
ATOM     10  C   UNL     1      23.538  26.557  24.935  0.00  0.00    +0.000 A 
ATOM     11  C   UNL     1      22.616  27.013  25.851  0.00  0.00    +0.000 A 
ATOM     12  C   UNL     1      22.768  26.574  27.149  0.00  0.00    +0.000 A 
ATOM     13  C   UNL     1      23.764  25.748  27.499  0.00  0.00    +0.000 A 
ATOM     14  C   UNL     1      24.675  25.302  26.578  0.00  0.00    +0.000 A 
ATOM     15  C   UNL     1      25.870  23.815  29.089  0.00  0.00    +0.000 C 
ATOM     16  O   UNL     1      25.442  25.276  29.164  0.00  0.00    +0.000 OA
ATOM     17  C   UNL     1      27.423  24.157  29.695  0.00  0.00    +0.000 C 
ATOM     18  C   UNL     1      27.819  22.681  29.838  0.00  0.00    +0.000 C 
ATOM     19  C   UNL     1      26.719  21.857  30.471  0.00  0.00    +0.000 C 
ATOM     20  C   UNL     1      29.056  22.471  30.639  0.00  0.00    +0.000 C 
ATOM     21  C   UNL     1      28.048  22.083  28.470  0.00  0.00    +0.000 C 
ENDROOT
TORSDOF 0
ENDMDL
MODEL 5
REMARK VINA RESULT:      -6.5      2.001      3.852
REMARK  Name = 
REMARK  0 active torsions:
REMARK  status: ('A' for Active; 'I' for Inactive)
REMARK                            x       y       z     vdW  Elec       q    Type
REMARK                         _______ _______ _______ _____ _____    ______ ____
ROOT
ATOM      1  C   UNL     1      18.890  -4.714  26.673  0.00  0.00    +0.000 C 
ATOM      2  C   UNL     1      19.626  -5.844  26.043  0.00  0.00    +0.000 A 
ATOM      3  N   UNL     1      20.701  -5.609  25.271  0.00  0.00    +0.000 NA
ATOM      4  C   UNL     1      21.404  -6.595  24.679  0.00  0.00    +0.000 A 
ATOM      5  C   UNL     1      20.946  -7.880  24.920  0.00  0.00    +0.000 A 
ATOM      6  C   UNL     1      19.868  -8.212  25.683  0.00  0.00    +0.000 A 
ATOM      7  C   UNL     1      19.198  -7.142  26.256  0.00  0.00    +0.000 A 
ATOM      8  N   UNL     1      18.164  -7.684  26.941  0.00  0.00    +0.000 NA
ATOM      9  C   UNL     1      18.170  -9.014  26.810  0.00  0.00    +0.000 A 
ATOM     10  C   UNL     1      17.364 -10.030  27.266  0.00  0.00    +0.000 A 
ATOM     11  C   UNL     1      17.559 -11.363  26.981  0.00  0.00    +0.000 A 
ATOM     12  C   UNL     1      18.641 -11.670  26.183  0.00  0.00    +0.000 A 
ATOM     13  C   UNL     1      19.458 -10.719  25.713  0.00  0.00    +0.000 A 
ATOM     14  C   UNL     1      19.253  -9.396  26.004  0.00  0.00    +0.000 A 
ATOM     15  C   UNL     1      21.845  -9.031  24.244  0.00  0.00    +0.000 C 
ATOM     16  O   UNL     1      21.757 -10.118  25.308  0.00  0.00    +0.000 OA
ATOM     17  C   UNL     1      23.297  -8.413  24.880  0.00  0.00    +0.000 C 
ATOM     18  C   UNL     1      23.535  -7.448  23.711  0.00  0.00    +0.000 C 
ATOM     19  C   UNL     1      23.297  -8.109  22.372  0.00  0.00    +0.000 C 
ATOM     20  C   UNL     1      24.905  -6.865  23.688  0.00  0.00    +0.000 C 
ATOM     21  C   UNL     1      22.550  -6.306  23.788  0.00  0.00    +0.000 C 
ENDROOT
TORSDOF 0
ENDMDL
MODEL 6
REMARK VINA RESULT:      -6.3     13.399     15.288
REMARK  Name = 
REMARK  0 active torsions:
REMARK  status: ('A' for Active; 'I' for Inactive)
REMARK                            x       y       z     vdW  Elec       q    Type
REMARK                         _______ _______ _______ _____ _____    ______ ____
ROOT
ATOM      1  C   UNL     1      28.587   0.648  15.672  0.00  0.00    +0.000 C 
ATOM      2  C   UNL     1      27.978   1.883  16.237  0.00  0.00    +0.000 A 
ATOM      3  N   UNL     1      28.712   3.001  16.374  0.00  0.00    +0.000 NA
ATOM      4  C   UNL     1      28.209   4.146  16.878  0.00  0.00    +0.000 A 
ATOM      5  C   UNL     1      26.875   4.099  17.248  0.00  0.00    +0.000 A 
ATOM      6  C   UNL     1      26.059   3.014  17.149  0.00  0.00    +0.000 A 
ATOM      7  C   UNL     1      26.650   1.876  16.622  0.00  0.00    +0.000 A 
ATOM      8  N   UNL     1      25.686   0.925  16.635  0.00  0.00    +0.000 NA
ATOM      9  C   UNL     1      24.554   1.422  17.142  0.00  0.00    +0.000 A 
ATOM     10  C   UNL     1      23.304   0.907  17.394  0.00  0.00    +0.000 A 
ATOM     11  C   UNL     1      22.269   1.622  17.954  0.00  0.00    +0.000 A 
ATOM     12  C   UNL     1      22.530   2.938  18.271  0.00  0.00    +0.000 A 
ATOM     13  C   UNL     1      23.730   3.490  18.045  0.00  0.00    +0.000 A 
ATOM     14  C   UNL     1      24.752   2.768  17.487  0.00  0.00    +0.000 A 
ATOM     15  C   UNL     1      26.299   5.500  17.790  0.00  0.00    +0.000 C 
ATOM     16  O   UNL     1      24.879   5.451  17.241  0.00  0.00    +0.000 OA
ATOM     17  C   UNL     1      26.873   6.373  16.448  0.00  0.00    +0.000 C 
ATOM     18  C   UNL     1      28.257   6.630  17.060  0.00  0.00    +0.000 C 
ATOM     19  C   UNL     1      28.166   7.071  18.504  0.00  0.00    +0.000 C 
ATOM     20  C   UNL     1      29.053   7.653  16.327  0.00  0.00    +0.000 C 
ATOM     21  C   UNL     1      29.054   5.346  17.069  0.00  0.00    +0.000 C 
ENDROOT
TORSDOF 0
ENDMDL
MODEL 7
REMARK VINA RESULT:      -6.3     20.293     21.927
REMARK  Name = 
REMARK  0 active torsions:
REMARK  status: ('A' for Active; 'I' for Inactive)
REMARK                            x       y       z     vdW  Elec       q    Type
REMARK                         _______ _______ _______ _____ _____    ______ ____
ROOT
ATOM      1  C   UNL     1      34.998   2.789  40.015  0.00  0.00    +0.000 C 
ATOM      2  C   UNL     1      34.884   3.742  38.877  0.00  0.00    +0.000 A 
ATOM      3  N   UNL     1      35.100   5.055  39.066  0.00  0.00    +0.000 NA
ATOM      4  C   UNL     1      35.011   5.960  38.070  0.00  0.00    +0.000 A 
ATOM      5  C   UNL     1      34.683   5.446  36.826  0.00  0.00    +0.000 A 
ATOM      6  C   UNL     1      34.445   4.136  36.543  0.00  0.00    +0.000 A 
ATOM      7  C   UNL     1      34.555   3.269  37.619  0.00  0.00    +0.000 A 
ATOM      8  N   UNL     1      34.259   2.042  37.131  0.00  0.00    +0.000 NA
ATOM      9  C   UNL     1      33.974   2.120  35.828  0.00  0.00    +0.000 A 
ATOM     10  C   UNL     1      33.602   1.209  34.867  0.00  0.00    +0.000 A 
ATOM     11  C   UNL     1      33.336   1.530  33.555  0.00  0.00    +0.000 A 
ATOM     12  C   UNL     1      33.458   2.859  33.209  0.00  0.00    +0.000 A 
ATOM     13  C   UNL     1      33.819   3.787  34.105  0.00  0.00    +0.000 A 
ATOM     14  C   UNL     1      34.082   3.455  35.409  0.00  0.00    +0.000 A 
ATOM     15  C   UNL     1      34.645   6.548  35.655  0.00  0.00    +0.000 C 
ATOM     16  O   UNL     1      35.187   5.735  34.486  0.00  0.00    +0.000 OA
ATOM     17  C   UNL     1      36.182   7.165  36.043  0.00  0.00    +0.000 C 
ATOM     18  C   UNL     1      35.649   8.158  37.085  0.00  0.00    +0.000 C 
ATOM     19  C   UNL     1      34.431   8.904  36.588  0.00  0.00    +0.000 C 
ATOM     20  C   UNL     1      36.653   9.170  37.513  0.00  0.00    +0.000 C 
ATOM     21  C   UNL     1      35.199   7.407  38.317  0.00  0.00    +0.000 C 
ENDROOT
TORSDOF 0
ENDMDL
MODEL 8
REMARK VINA RESULT:      -6.3     31.505     33.323
REMARK  Name = 
REMARK  0 active torsions:
REMARK  status: ('A' for Active; 'I' for Inactive)
REMARK                            x       y       z     vdW  Elec       q    Type
REMARK                         _______ _______ _______ _____ _____    ______ ____
ROOT
ATOM      1  C   UNL     1      26.992  22.333  30.071  0.00  0.00    +0.000 C 
ATOM      2  C   UNL     1      26.788  23.142  28.838  0.00  0.00    +0.000 A 
ATOM      3  N   UNL     1      25.708  23.931  28.713  0.00  0.00    +0.000 NA
ATOM      4  C   UNL     1      25.477  24.684  27.619  0.00  0.00    +0.000 A 
ATOM      5  C   UNL     1      26.434  24.596  26.622  0.00  0.00    +0.000 A 
ATOM      6  C   UNL     1      27.555  23.823  26.660  0.00  0.00    +0.000 A 
ATOM      7  C   UNL     1      27.720  23.078  27.817  0.00  0.00    +0.000 A 
ATOM      8  N   UNL     1      28.864  22.377  27.639  0.00  0.00    +0.000 NA
ATOM      9  C   UNL     1      29.393  22.652  26.444  0.00  0.00    +0.000 A 
ATOM     10  C   UNL     1      30.506  22.222  25.761  0.00  0.00    +0.000 A 
ATOM     11  C   UNL     1      30.851  22.643  24.496  0.00  0.00    +0.000 A 
ATOM     12  C   UNL     1      30.008  23.555  23.899  0.00  0.00    +0.000 A 
ATOM     13  C   UNL     1      28.911  24.008  24.520  0.00  0.00    +0.000 A 
ATOM     14  C   UNL     1      28.578  23.581  25.779  0.00  0.00    +0.000 A 
ATOM     15  C   UNL     1      26.152  25.553  25.360  0.00  0.00    +0.000 C 
ATOM     16  O   UNL     1      27.574  25.957  24.991  0.00  0.00    +0.000 OA
ATOM     17  C   UNL     1      25.925  26.934  26.327  0.00  0.00    +0.000 C 
ATOM     18  C   UNL     1      24.428  26.675  26.550  0.00  0.00    +0.000 C 
ATOM     19  C   UNL     1      23.722  26.294  25.268  0.00  0.00    +0.000 C 
ATOM     20  C   UNL     1      23.703  27.836  27.135  0.00  0.00    +0.000 C 
ATOM     21  C   UNL     1      24.250  25.502  27.484  0.00  0.00    +0.000 C 
ENDROOT
TORSDOF 0
ENDMDL
MODEL 9
REMARK VINA RESULT:      -6.3     20.948     23.701
REMARK  Name = 
REMARK  0 active torsions:
REMARK  status: ('A' for Active; 'I' for Inactive)
REMARK                            x       y       z     vdW  Elec       q    Type
REMARK                         _______ _______ _______ _____ _____    ______ ____
ROOT
ATOM      1  C   UNL     1      20.020   4.143  41.375  0.00  0.00    +0.000 C 
ATOM      2  C   UNL     1      18.898   4.974  41.891  0.00  0.00    +0.000 A 
ATOM      3  N   UNL     1      18.225   4.600  42.992  0.00  0.00    +0.000 NA
ATOM      4  C   UNL     1      17.203   5.316  43.502  0.00  0.00    +0.000 A 
ATOM      5  C   UNL     1      16.887   6.476  42.814  0.00  0.00    +0.000 A 
ATOM      6  C   UNL     1      17.509   6.931  41.692  0.00  0.00    +0.000 A 
ATOM      7  C   UNL     1      18.549   6.139  41.230  0.00  0.00    +0.000 A 
ATOM      8  N   UNL     1      19.004   6.750  40.111  0.00  0.00    +0.000 NA
ATOM      9  C   UNL     1      18.298   7.859  39.872  0.00  0.00    +0.000 A 
ATOM     10  C   UNL     1      18.322   8.822  38.890  0.00  0.00    +0.000 A 
ATOM     11  C   UNL     1      17.462   9.896  38.836  0.00  0.00    +0.000 A 
ATOM     12  C   UNL     1      16.526   9.987  39.844  0.00  0.00    +0.000 A 
ATOM     13  C   UNL     1      16.460   9.076  40.825  0.00  0.00    +0.000 A 
ATOM     14  C   UNL     1      17.322   8.012  40.868  0.00  0.00    +0.000 A 
ATOM     15  C   UNL     1      15.702   7.331  43.486  0.00  0.00    +0.000 C 
ATOM     16  O   UNL     1      16.178   8.749  43.197  0.00  0.00    +0.000 OA
ATOM     17  C   UNL     1      16.425   7.317  45.026  0.00  0.00    +0.000 C 
ATOM     18  C   UNL     1      15.789   5.984  45.441  0.00  0.00    +0.000 C 
ATOM     19  C   UNL     1      14.319   5.922  45.088  0.00  0.00    +0.000 C 
ATOM     20  C   UNL     1      15.915   5.689  46.895  0.00  0.00    +0.000 C 
ATOM     21  C   UNL     1      16.443   4.852  44.684  0.00  0.00    +0.000 C 
ENDROOT
TORSDOF 0
ENDMDL
MODEL 10
REMARK VINA RESULT:      -6.1     17.639     19.972
REMARK  Name = 
REMARK  0 active torsions:
REMARK  status: ('A' for Active; 'I' for Inactive)
REMARK                            x       y       z     vdW  Elec       q    Type
REMARK                         _______ _______ _______ _____ _____    ______ ____
ROOT
ATOM      1  C   UNL     1      22.505  -0.878  40.610  0.00  0.00    +0.000 C 
ATOM      2  C   UNL     1      22.327   0.600  40.644  0.00  0.00    +0.000 A 
ATOM      3  N   UNL     1      21.096   1.136  40.682  0.00  0.00    +0.000 NA
ATOM      4  C   UNL     1      20.879   2.466  40.716  0.00  0.00    +0.000 A 
ATOM      5  C   UNL     1      22.018   3.255  40.711  0.00  0.00    +0.000 A 
ATOM      6  C   UNL     1      23.301   2.801  40.670  0.00  0.00    +0.000 A 
ATOM      7  C   UNL     1      23.440   1.422  40.636  0.00  0.00    +0.000 A 
ATOM      8  N   UNL     1      24.772   1.191  40.574  0.00  0.00    +0.000 NA
ATOM      9  C   UNL     1      25.441   2.347  40.565  0.00  0.00    +0.000 A 
ATOM     10  C   UNL     1      26.771   2.690  40.496  0.00  0.00    +0.000 A 
ATOM     11  C   UNL     1      27.239   3.984  40.482  0.00  0.00    +0.000 A 
ATOM     12  C   UNL     1      26.291   4.983  40.541  0.00  0.00    +0.000 A 
ATOM     13  C   UNL     1      24.982   4.705  40.610  0.00  0.00    +0.000 A 
ATOM     14  C   UNL     1      24.529   3.412  40.624  0.00  0.00    +0.000 A 
ATOM     15  C   UNL     1      21.719   4.832  40.810  0.00  0.00    +0.000 C 
ATOM     16  O   UNL     1      22.895   5.288  41.665  0.00  0.00    +0.000 OA
ATOM     17  C   UNL     1      20.700   4.659  42.161  0.00  0.00    +0.000 C 
ATOM     18  C   UNL     1      19.439   4.406  41.324  0.00  0.00    +0.000 C 
ATOM     19  C   UNL     1      19.320   5.376  40.170  0.00  0.00    +0.000 C 
ATOM     20  C   UNL     1      18.176   4.483  42.109  0.00  0.00    +0.000 C 
ATOM     21  C   UNL     1      19.512   3.031  40.701  0.00  0.00    +0.000 C 
ENDROOT
TORSDOF 0
ENDMDL
