MODEL 1
REMARK VINA RESULT:      -7.9      0.000      0.000
REMARK  Name = 
REMARK  6 active torsions:
REMARK  status: ('A' for Active; 'I' for Inactive)
REMARK    1  A    between atoms: N_10  and  C_11
REMARK    2  A    between atoms: C_17  and  C_18
REMARK    3  A    between atoms: C_21  and  O_22
REMARK    4  A    between atoms: O_22  and  C_23
REMARK    5  A    between atoms: C_23  and  C_24
REMARK    6  A    between atoms: C_24  and  N_25
REMARK                            x       y       z     vdW  Elec       q    Type
REMARK                         _______ _______ _______ _____ _____    ______ ____
ROOT
ATOM      1  O   UNL     1      43.397  -1.888  12.961  0.00  0.00    +0.000 OA
ATOM      2  C   UNL     1      42.041  -1.749  13.241  0.00  0.00    +0.000 A 
ATOM      3  C   UNL     1      41.270  -1.134  12.281  0.00  0.00    +0.000 A 
ATOM      4  C   UNL     1      39.907  -0.982  12.537  0.00  0.00    +0.000 A 
ATOM      5  C   UNL     1      39.333  -1.427  13.707  0.00  0.00    +0.000 A 
ATOM      6  C   UNL     1      40.099  -2.019  14.621  0.00  0.00    +0.000 A 
ATOM      7  C   UNL     1      41.493  -2.194  14.400  0.00  0.00    +0.000 A 
ATOM      8  C   UNL     1      39.607  -2.538  15.910  0.00  0.00    +0.000 C 
ATOM      9  C   UNL     1      38.415  -1.684  16.299  0.00  0.00    +0.000 C 
ATOM     10  N   UNL     1      37.497  -1.838  15.247  0.00  0.00    +0.000 N 
ATOM     11  C   UNL     1      37.784  -1.183  13.853  0.00  0.00    +0.000 C 
ENDROOT
BRANCH  10  12
ATOM     12  C   UNL     1      36.286  -2.551  15.316  0.00  0.00    +0.000 A 
ATOM     13  C   UNL     1      36.061  -3.614  14.468  0.00  0.00    +0.000 A 
ATOM     14  C   UNL     1      34.878  -4.324  14.522  0.00  0.00    +0.000 A 
ATOM     15  C   UNL     1      33.892  -3.989  15.421  0.00  0.00    +0.000 A 
ATOM     16  C   UNL     1      34.100  -2.931  16.273  0.00  0.00    +0.000 A 
ATOM     17  C   UNL     1      35.287  -2.231  16.209  0.00  0.00    +0.000 A 
ENDBRANCH  10  12
BRANCH  11  18
ATOM     18  C   UNL     1      37.867   0.336  14.382  0.00  0.00    +0.000 A 
ATOM     19  C   UNL     1      36.688   0.892  14.814  0.00  0.00    +0.000 A 
ATOM     20  C   UNL     1      36.691   2.210  15.287  0.00  0.00    +0.000 A 
ATOM     21  C   UNL     1      37.875   2.910  15.304  0.00  0.00    +0.000 A 
ATOM     22  C   UNL     1      39.017   2.300  14.861  0.00  0.00    +0.000 A 
ATOM     23  C   UNL     1      39.009   1.006  14.397  0.00  0.00    +0.000 A 
BRANCH  21  24
ATOM     24  O   UNL     1      37.877   4.238  15.781  0.00  0.00    +0.000 OA
BRANCH  24  25
ATOM     25  C   UNL     1      38.976   4.808  16.420  0.00  0.00    +0.000 C 
BRANCH  25  26
ATOM     26  C   UNL     1      38.708   5.210  17.843  0.00  0.00    +0.000 C 
BRANCH  26  27
ATOM     27  N   UNL     1      39.362   6.467  18.156  0.00  0.00    +0.000 NA
ATOM     28  C   UNL     1      39.464   6.596  19.592  0.00  0.00    +0.000 C 
ATOM     29  C   UNL     1      40.885   6.234  19.955  0.00  0.00    +0.000 C 
ATOM     30  C   UNL     1      41.666   6.584  18.723  0.00  0.00    +0.000 C 
ATOM     31  C   UNL     1      40.674   6.533  17.606  0.00  0.00    +0.000 C 
ENDBRANCH  26  27
ENDBRANCH  25  26
ENDBRANCH  24  25
ENDBRANCH  21  24
ENDBRANCH  11  18
TORSDOF 6
ENDMDL
MODEL 2
REMARK VINA RESULT:      -7.7      6.636     10.038
REMARK  Name = 
REMARK  6 active torsions:
REMARK  status: ('A' for Active; 'I' for Inactive)
REMARK    1  A    between atoms: N_10  and  C_11
REMARK    2  A    between atoms: C_17  and  C_18
REMARK    3  A    between atoms: C_21  and  O_22
REMARK    4  A    between atoms: O_22  and  C_23
REMARK    5  A    between atoms: C_23  and  C_24
REMARK    6  A    between atoms: C_24  and  N_25
REMARK                            x       y       z     vdW  Elec       q    Type
REMARK                         _______ _______ _______ _____ _____    ______ ____
ROOT
ATOM      1  O   UNL     1      38.078   4.856  15.337  0.00  0.00    +0.000 OA
ATOM      2  C   UNL     1      38.860   5.232  16.425  0.00  0.00    +0.000 A 
ATOM      3  C   UNL     1      38.318   5.036  17.675  0.00  0.00    +0.000 A 
ATOM      4  C   UNL     1      39.081   5.405  18.783  0.00  0.00    +0.000 A 
ATOM      5  C   UNL     1      40.339   5.950  18.651  0.00  0.00    +0.000 A 
ATOM      6  C   UNL     1      40.843   6.131  17.431  0.00  0.00    +0.000 A 
ATOM      7  C   UNL     1      40.098   5.769  16.275  0.00  0.00    +0.000 A 
ATOM      8  C   UNL     1      42.173   6.703  17.156  0.00  0.00    +0.000 C 
ATOM      9  C   UNL     1      42.486   7.651  18.297  0.00  0.00    +0.000 C 
ATOM     10  N   UNL     1      42.448   6.856  19.454  0.00  0.00    +0.000 N 
ATOM     11  C   UNL     1      41.077   6.318  19.992  0.00  0.00    +0.000 C 
ENDROOT
BRANCH  10  12
ATOM     12  C   UNL     1      43.563   6.473  20.221  0.00  0.00    +0.000 A 
ATOM     13  C   UNL     1      43.385   5.806  21.414  0.00  0.00    +0.000 A 
ATOM     14  C   UNL     1      44.469   5.424  22.179  0.00  0.00    +0.000 A 
ATOM     15  C   UNL     1      45.754   5.698  21.773  0.00  0.00    +0.000 A 
ATOM     16  C   UNL     1      45.949   6.362  20.586  0.00  0.00    +0.000 A 
ATOM     17  C   UNL     1      44.857   6.738  19.830  0.00  0.00    +0.000 A 
ENDBRANCH  10  12
BRANCH  11  18
ATOM     18  C   UNL     1      40.392   7.760  20.211  0.00  0.00    +0.000 A 
ATOM     19  C   UNL     1      39.028   7.764  20.364  0.00  0.00    +0.000 A 
ATOM     20  C   UNL     1      38.370   8.985  20.559  0.00  0.00    +0.000 A 
ATOM     21  C   UNL     1      39.111  10.145  20.590  0.00  0.00    +0.000 A 
ATOM     22  C   UNL     1      40.468  10.073  20.432  0.00  0.00    +0.000 A 
ATOM     23  C   UNL     1      41.109   8.873  20.240  0.00  0.00    +0.000 A 
BRANCH  21  24
ATOM     24  O   UNL     1      38.448  11.374  20.786  0.00  0.00    +0.000 OA
BRANCH  24  25
ATOM     25  C   UNL     1      37.705  11.999  19.786  0.00  0.00    +0.000 C 
BRANCH  25  26
ATOM     26  C   UNL     1      38.509  12.359  18.569  0.00  0.00    +0.000 C 
BRANCH  26  27
ATOM     27  N   UNL     1      37.922  11.781  17.374  0.00  0.00    +0.000 NA
ATOM     28  C   UNL     1      38.957  11.106  16.624  0.00  0.00    +0.000 C 
ATOM     29  C   UNL     1      38.808   9.632  16.918  0.00  0.00    +0.000 C 
ATOM     30  C   UNL     1      37.350   9.479  17.235  0.00  0.00    +0.000 C 
ATOM     31  C   UNL     1      36.906  10.834  17.687  0.00  0.00    +0.000 C 
ENDBRANCH  26  27
ENDBRANCH  25  26
ENDBRANCH  24  25
ENDBRANCH  21  24
ENDBRANCH  11  18
TORSDOF 6
ENDMDL
MODEL 3
REMARK VINA RESULT:      -7.6      0.517      1.306
REMARK  Name = 
REMARK  6 active torsions:
REMARK  status: ('A' for Active; 'I' for Inactive)
REMARK    1  A    between atoms: N_10  and  C_11
REMARK    2  A    between atoms: C_17  and  C_18
REMARK    3  A    between atoms: C_21  and  O_22
REMARK    4  A    between atoms: O_22  and  C_23
REMARK    5  A    between atoms: C_23  and  C_24
REMARK    6  A    between atoms: C_24  and  N_25
REMARK                            x       y       z     vdW  Elec       q    Type
REMARK                         _______ _______ _______ _____ _____    ______ ____
ROOT
ATOM      1  O   UNL     1      43.405  -1.307  12.220  0.00  0.00    +0.000 OA
ATOM      2  C   UNL     1      42.077  -1.246  12.633  0.00  0.00    +0.000 A 
ATOM      3  C   UNL     1      41.194  -0.615  11.786  0.00  0.00    +0.000 A 
ATOM      4  C   UNL     1      39.856  -0.540  12.175  0.00  0.00    +0.000 A 
ATOM      5  C   UNL     1      39.414  -1.074  13.365  0.00  0.00    +0.000 A 
ATOM      6  C   UNL     1      40.287  -1.680  14.168  0.00  0.00    +0.000 A 
ATOM      7  C   UNL     1      41.659  -1.778  13.809  0.00  0.00    +0.000 A 
ATOM      8  C   UNL     1      39.941  -2.291  15.464  0.00  0.00    +0.000 C 
ATOM      9  C   UNL     1      38.758  -1.516  16.011  0.00  0.00    +0.000 C 
ATOM     10  N   UNL     1      37.751  -1.653  15.042  0.00  0.00    +0.000 N 
ATOM     11  C   UNL     1      37.878  -0.910  13.667  0.00  0.00    +0.000 C 
ENDROOT
BRANCH  10  12
ATOM     12  C   UNL     1      36.582  -2.424  15.179  0.00  0.00    +0.000 A 
ATOM     13  C   UNL     1      35.622  -2.065  16.101  0.00  0.00    +0.000 A 
ATOM     14  C   UNL     1      34.470  -2.810  16.249  0.00  0.00    +0.000 A 
ATOM     15  C   UNL     1      34.247  -3.930  15.483  0.00  0.00    +0.000 A 
ATOM     16  C   UNL     1      35.194  -4.302  14.558  0.00  0.00    +0.000 A 
ATOM     17  C   UNL     1      36.342  -3.548  14.420  0.00  0.00    +0.000 A 
ENDBRANCH  10  12
BRANCH  11  18
ATOM     18  C   UNL     1      37.949   0.580  14.276  0.00  0.00    +0.000 A 
ATOM     19  C   UNL     1      39.156   1.223  14.160  0.00  0.00    +0.000 A 
ATOM     20  C   UNL     1      39.286   2.522  14.669  0.00  0.00    +0.000 A 
ATOM     21  C   UNL     1      38.200   3.114  15.270  0.00  0.00    +0.000 A 
ATOM     22  C   UNL     1      37.023   2.420  15.354  0.00  0.00    +0.000 A 
ATOM     23  C   UNL     1      36.901   1.146  14.854  0.00  0.00    +0.000 A 
BRANCH  21  24
ATOM     24  O   UNL     1      38.331   4.422  15.782  0.00  0.00    +0.000 OA
BRANCH  24  25
ATOM     25  C   UNL     1      37.862   4.789  17.042  0.00  0.00    +0.000 C 
BRANCH  25  26
ATOM     26  C   UNL     1      38.932   4.843  18.095  0.00  0.00    +0.000 C 
BRANCH  26  27
ATOM     27  N   UNL     1      39.500   6.175  18.187  0.00  0.00    +0.000 NA
ATOM     28  C   UNL     1      39.430   6.620  19.560  0.00  0.00    +0.000 C 
ATOM     29  C   UNL     1      40.810   6.432  20.143  0.00  0.00    +0.000 C 
ATOM     30  C   UNL     1      41.717   6.551  18.955  0.00  0.00    +0.000 C 
ATOM     31  C   UNL     1      40.864   6.199  17.778  0.00  0.00    +0.000 C 
ENDBRANCH  26  27
ENDBRANCH  25  26
ENDBRANCH  24  25
ENDBRANCH  21  24
ENDBRANCH  11  18
TORSDOF 6
ENDMDL
MODEL 4
REMARK VINA RESULT:      -7.5      1.950      2.635
REMARK  Name = 
REMARK  6 active torsions:
REMARK  status: ('A' for Active; 'I' for Inactive)
REMARK    1  A    between atoms: N_10  and  C_11
REMARK    2  A    between atoms: C_17  and  C_18
REMARK    3  A    between atoms: C_21  and  O_22
REMARK    4  A    between atoms: O_22  and  C_23
REMARK    5  A    between atoms: C_23  and  C_24
REMARK    6  A    between atoms: C_24  and  N_25
REMARK                            x       y       z     vdW  Elec       q    Type
REMARK                         _______ _______ _______ _____ _____    ______ ____
ROOT
ATOM      1  O   UNL     1      39.310   1.424   9.074  0.00  0.00    +0.000 OA
ATOM      2  C   UNL     1      38.773   0.889  10.242  0.00  0.00    +0.000 A 
ATOM      3  C   UNL     1      37.445   1.152  10.490  0.00  0.00    +0.000 A 
ATOM      4  C   UNL     1      36.882   0.627  11.653  0.00  0.00    +0.000 A 
ATOM      5  C   UNL     1      37.616  -0.131  12.538  0.00  0.00    +0.000 A 
ATOM      6  C   UNL     1      38.900  -0.373  12.277  0.00  0.00    +0.000 A 
ATOM      7  C   UNL     1      39.512   0.143  11.102  0.00  0.00    +0.000 A 
ATOM      8  C   UNL     1      39.789  -1.169  13.140  0.00  0.00    +0.000 C 
ATOM      9  C   UNL     1      39.281  -1.007  14.560  0.00  0.00    +0.000 C 
ATOM     10  N   UNL     1      37.959  -1.482  14.531  0.00  0.00    +0.000 N 
ATOM     11  C   UNL     1      36.843  -0.652  13.807  0.00  0.00    +0.000 C 
ENDROOT
BRANCH  10  12
ATOM     12  C   UNL     1      37.507  -2.681  15.112  0.00  0.00    +0.000 A 
ATOM     13  C   UNL     1      38.159  -3.208  16.205  0.00  0.00    +0.000 A 
ATOM     14  C   UNL     1      37.729  -4.384  16.787  0.00  0.00    +0.000 A 
ATOM     15  C   UNL     1      36.639  -5.061  16.292  0.00  0.00    +0.000 A 
ATOM     16  C   UNL     1      35.976  -4.548  15.202  0.00  0.00    +0.000 A 
ATOM     17  C   UNL     1      36.417  -3.373  14.630  0.00  0.00    +0.000 A 
ENDBRANCH  10  12
BRANCH  11  18
ATOM     18  C   UNL     1      37.001   0.678  14.701  0.00  0.00    +0.000 A 
ATOM     19  C   UNL     1      36.262   0.721  15.857  0.00  0.00    +0.000 A 
ATOM     20  C   UNL     1      36.353   1.851  16.681  0.00  0.00    +0.000 A 
ATOM     21  C   UNL     1      37.180   2.884  16.306  0.00  0.00    +0.000 A 
ATOM     22  C   UNL     1      37.892   2.781  15.142  0.00  0.00    +0.000 A 
ATOM     23  C   UNL     1      37.798   1.670  14.337  0.00  0.00    +0.000 A 
BRANCH  21  24
ATOM     24  O   UNL     1      37.272   4.022  17.135  0.00  0.00    +0.000 OA
BRANCH  24  25
ATOM     25  C   UNL     1      38.369   4.880  17.121  0.00  0.00    +0.000 C 
BRANCH  25  26
ATOM     26  C   UNL     1      39.002   5.078  18.469  0.00  0.00    +0.000 C 
BRANCH  26  27
ATOM     27  N   UNL     1      39.656   6.371  18.547  0.00  0.00    +0.000 NA
ATOM     28  C   UNL     1      39.804   6.737  19.937  0.00  0.00    +0.000 C 
ATOM     29  C   UNL     1      41.238   6.443  20.309  0.00  0.00    +0.000 C 
ATOM     30  C   UNL     1      41.977   6.584  19.011  0.00  0.00    +0.000 C 
ATOM     31  C   UNL     1      40.950   6.347  17.951  0.00  0.00    +0.000 C 
ENDBRANCH  26  27
ENDBRANCH  25  26
ENDBRANCH  24  25
ENDBRANCH  21  24
ENDBRANCH  11  18
TORSDOF 6
ENDMDL
MODEL 5
REMARK VINA RESULT:      -7.4      6.572     10.578
REMARK  Name = 
REMARK  6 active torsions:
REMARK  status: ('A' for Active; 'I' for Inactive)
REMARK    1  A    between atoms: N_10  and  C_11
REMARK    2  A    between atoms: C_17  and  C_18
REMARK    3  A    between atoms: C_21  and  O_22
REMARK    4  A    between atoms: O_22  and  C_23
REMARK    5  A    between atoms: C_23  and  C_24
REMARK    6  A    between atoms: C_24  and  N_25
REMARK                            x       y       z     vdW  Elec       q    Type
REMARK                         _______ _______ _______ _____ _____    ______ ____
ROOT
ATOM      1  O   UNL     1      38.155   4.785  15.237  0.00  0.00    +0.000 OA
ATOM      2  C   UNL     1      38.911   5.174  16.339  0.00  0.00    +0.000 A 
ATOM      3  C   UNL     1      38.351   4.968  17.579  0.00  0.00    +0.000 A 
ATOM      4  C   UNL     1      39.088   5.349  18.700  0.00  0.00    +0.000 A 
ATOM      5  C   UNL     1      40.337   5.917  18.590  0.00  0.00    +0.000 A 
ATOM      6  C   UNL     1      40.859   6.107  17.379  0.00  0.00    +0.000 A 
ATOM      7  C   UNL     1      40.141   5.733  16.211  0.00  0.00    +0.000 A 
ATOM      8  C   UNL     1      42.184   6.702  17.128  0.00  0.00    +0.000 C 
ATOM      9  C   UNL     1      42.460   7.655  18.275  0.00  0.00    +0.000 C 
ATOM     10  N   UNL     1      42.416   6.858  19.431  0.00  0.00    +0.000 N 
ATOM     11  C   UNL     1      41.045   6.296  19.944  0.00  0.00    +0.000 C 
ENDROOT
BRANCH  10  12
ATOM     12  C   UNL     1      43.524   6.494  20.217  0.00  0.00    +0.000 A 
ATOM     13  C   UNL     1      44.803   6.684  19.739  0.00  0.00    +0.000 A 
ATOM     14  C   UNL     1      45.901   6.331  20.497  0.00  0.00    +0.000 A 
ATOM     15  C   UNL     1      45.750   5.782  21.750  0.00  0.00    +0.000 A 
ATOM     16  C   UNL     1      44.482   5.587  22.241  0.00  0.00    +0.000 A 
ATOM     17  C   UNL     1      43.392   5.943  21.473  0.00  0.00    +0.000 A 
ENDBRANCH  10  12
BRANCH  11  18
ATOM     18  C   UNL     1      40.332   7.725  20.152  0.00  0.00    +0.000 A 
ATOM     19  C   UNL     1      38.979   7.698  20.383  0.00  0.00    +0.000 A 
ATOM     20  C   UNL     1      38.297   8.907  20.573  0.00  0.00    +0.000 A 
ATOM     21  C   UNL     1      39.004  10.086  20.521  0.00  0.00    +0.000 A 
ATOM     22  C   UNL     1      40.351  10.047  20.288  0.00  0.00    +0.000 A 
ATOM     23  C   UNL     1      41.016   8.858  20.102  0.00  0.00    +0.000 A 
BRANCH  21  24
ATOM     24  O   UNL     1      38.317  11.303  20.712  0.00  0.00    +0.000 OA
BRANCH  24  25
ATOM     25  C   UNL     1      38.634  12.196  21.733  0.00  0.00    +0.000 C 
BRANCH  25  26
ATOM     26  C   UNL     1      37.963  13.534  21.599  0.00  0.00    +0.000 C 
BRANCH  26  27
ATOM     27  N   UNL     1      38.333  14.410  22.695  0.00  0.00    +0.000 NA
ATOM     28  C   UNL     1      37.145  15.069  23.189  0.00  0.00    +0.000 C 
ATOM     29  C   UNL     1      36.740  14.337  24.446  0.00  0.00    +0.000 C 
ATOM     30  C   UNL     1      38.032  13.783  24.968  0.00  0.00    +0.000 C 
ATOM     31  C   UNL     1      38.925  13.689  23.772  0.00  0.00    +0.000 C 
ENDBRANCH  26  27
ENDBRANCH  25  26
ENDBRANCH  24  25
ENDBRANCH  21  24
ENDBRANCH  11  18
TORSDOF 6
ENDMDL
MODEL 6
REMARK VINA RESULT:      -7.3      3.046      6.927
REMARK  Name = 
REMARK  6 active torsions:
REMARK  status: ('A' for Active; 'I' for Inactive)
REMARK    1  A    between atoms: N_10  and  C_11
REMARK    2  A    between atoms: C_17  and  C_18
REMARK    3  A    between atoms: C_21  and  O_22
REMARK    4  A    between atoms: O_22  and  C_23
REMARK    5  A    between atoms: C_23  and  C_24
REMARK    6  A    between atoms: C_24  and  N_25
REMARK                            x       y       z     vdW  Elec       q    Type
REMARK                         _______ _______ _______ _____ _____    ______ ____
ROOT
ATOM      1  O   UNL     1      38.791   5.089  11.946  0.00  0.00    +0.000 OA
ATOM      2  C   UNL     1      38.597   3.932  12.694  0.00  0.00    +0.000 A 
ATOM      3  C   UNL     1      39.207   3.882  13.928  0.00  0.00    +0.000 A 
ATOM      4  C   UNL     1      39.029   2.733  14.698  0.00  0.00    +0.000 A 
ATOM      5  C   UNL     1      38.272   1.671  14.256  0.00  0.00    +0.000 A 
ATOM      6  C   UNL     1      37.691   1.742  13.059  0.00  0.00    +0.000 A 
ATOM      7  C   UNL     1      37.848   2.895  12.242  0.00  0.00    +0.000 A 
ATOM      8  C   UNL     1      36.858   0.677  12.474  0.00  0.00    +0.000 C 
ATOM      9  C   UNL     1      37.366  -0.636  13.038  0.00  0.00    +0.000 C 
ATOM     10  N   UNL     1      37.222  -0.515  14.431  0.00  0.00    +0.000 N 
ATOM     11  C   UNL     1      38.164   0.444  15.236  0.00  0.00    +0.000 C 
ENDROOT
BRANCH  10  12
ATOM     12  C   UNL     1      36.277  -1.198  15.219  0.00  0.00    +0.000 A 
ATOM     13  C   UNL     1      35.615  -0.538  16.231  0.00  0.00    +0.000 A 
ATOM     14  C   UNL     1      34.686  -1.193  17.014  0.00  0.00    +0.000 A 
ATOM     15  C   UNL     1      34.395  -2.521  16.805  0.00  0.00    +0.000 A 
ATOM     16  C   UNL     1      35.046  -3.194  15.799  0.00  0.00    +0.000 A 
ATOM     17  C   UNL     1      35.973  -2.527  15.024  0.00  0.00    +0.000 A 
ENDBRANCH  10  12
BRANCH  11  18
ATOM     18  C   UNL     1      39.546  -0.270  14.819  0.00  0.00    +0.000 A 
ATOM     19  C   UNL     1      39.686  -1.583  15.195  0.00  0.00    +0.000 A 
ATOM     20  C   UNL     1      40.865  -2.264  14.863  0.00  0.00    +0.000 A 
ATOM     21  C   UNL     1      41.848  -1.596  14.170  0.00  0.00    +0.000 A 
ATOM     22  C   UNL     1      41.648  -0.287  13.823  0.00  0.00    +0.000 A 
ATOM     23  C   UNL     1      40.490   0.376  14.152  0.00  0.00    +0.000 A 
BRANCH  21  24
ATOM     24  O   UNL     1      43.035  -2.281  13.836  0.00  0.00    +0.000 OA
BRANCH  24  25
ATOM     25  C   UNL     1      43.151  -3.079  12.700  0.00  0.00    +0.000 C 
BRANCH  25  26
ATOM     26  C   UNL     1      43.382  -2.303  11.435  0.00  0.00    +0.000 C 
BRANCH  26  27
ATOM     27  N   UNL     1      42.450  -2.713  10.400  0.00  0.00    +0.000 NA
ATOM     28  C   UNL     1      41.330  -3.385  11.019  0.00  0.00    +0.000 C 
ATOM     29  C   UNL     1      40.202  -2.382  11.069  0.00  0.00    +0.000 C 
ATOM     30  C   UNL     1      40.483  -1.473   9.911  0.00  0.00    +0.000 C 
ATOM     31  C   UNL     1      41.953  -1.600   9.664  0.00  0.00    +0.000 C 
ENDBRANCH  26  27
ENDBRANCH  25  26
ENDBRANCH  24  25
ENDBRANCH  21  24
ENDBRANCH  11  18
TORSDOF 6
ENDMDL
MODEL 7
REMARK VINA RESULT:      -7.2      5.538      9.406
REMARK  Name = 
REMARK  6 active torsions:
REMARK  status: ('A' for Active; 'I' for Inactive)
REMARK    1  A    between atoms: N_10  and  C_11
REMARK    2  A    between atoms: C_17  and  C_18
REMARK    3  A    between atoms: C_21  and  O_22
REMARK    4  A    between atoms: O_22  and  C_23
REMARK    5  A    between atoms: C_23  and  C_24
REMARK    6  A    between atoms: C_24  and  N_25
REMARK                            x       y       z     vdW  Elec       q    Type
REMARK                         _______ _______ _______ _____ _____    ______ ____
ROOT
ATOM      1  O   UNL     1      37.638   3.306  14.290  0.00  0.00    +0.000 OA
ATOM      2  C   UNL     1      38.245   3.993  15.337  0.00  0.00    +0.000 A 
ATOM      3  C   UNL     1      37.608   3.951  16.557  0.00  0.00    +0.000 A 
ATOM      4  C   UNL     1      38.195   4.631  17.624  0.00  0.00    +0.000 A 
ATOM      5  C   UNL     1      39.373   5.329  17.481  0.00  0.00    +0.000 A 
ATOM      6  C   UNL     1      39.971   5.357  16.290  0.00  0.00    +0.000 A 
ATOM      7  C   UNL     1      39.406   4.676  15.177  0.00  0.00    +0.000 A 
ATOM      8  C   UNL     1      41.232   6.065  16.008  0.00  0.00    +0.000 C 
ATOM      9  C   UNL     1      41.293   7.245  16.959  0.00  0.00    +0.000 C 
ATOM     10  N   UNL     1      41.244   6.682  18.245  0.00  0.00    +0.000 N 
ATOM     11  C   UNL     1      39.912   6.048  18.774  0.00  0.00    +0.000 C 
ENDROOT
BRANCH  10  12
ATOM     12  C   UNL     1      42.316   6.623  19.154  0.00  0.00    +0.000 A 
ATOM     13  C   UNL     1      42.086   6.298  20.474  0.00  0.00    +0.000 A 
ATOM     14  C   UNL     1      43.127   6.237  21.379  0.00  0.00    +0.000 A 
ATOM     15  C   UNL     1      44.420   6.499  20.990  0.00  0.00    +0.000 A 
ATOM     16  C   UNL     1      44.666   6.825  19.677  0.00  0.00    +0.000 A 
ATOM     17  C   UNL     1      43.617   6.882  18.783  0.00  0.00    +0.000 A 
ENDBRANCH  10  12
BRANCH  11  18
ATOM     18  C   UNL     1      39.018   7.383  18.651  0.00  0.00    +0.000 A 
ATOM     19  C   UNL     1      38.566   7.918  19.832  0.00  0.00    +0.000 A 
ATOM     20  C   UNL     1      37.783   9.079  19.796  0.00  0.00    +0.000 A 
ATOM     21  C   UNL     1      37.489   9.648  18.578  0.00  0.00    +0.000 A 
ATOM     22  C   UNL     1      37.970   9.066  17.437  0.00  0.00    +0.000 A 
ATOM     23  C   UNL     1      38.737   7.926  17.477  0.00  0.00    +0.000 A 
BRANCH  21  24
ATOM     24  O   UNL     1      36.701  10.817  18.542  0.00  0.00    +0.000 OA
BRANCH  24  25
ATOM     25  C   UNL     1      35.685  11.013  17.609  0.00  0.00    +0.000 C 
BRANCH  25  26
ATOM     26  C   UNL     1      34.700   9.881  17.538  0.00  0.00    +0.000 C 
BRANCH  26  27
ATOM     27  N   UNL     1      33.914   9.956  16.321  0.00  0.00    +0.000 NA
ATOM     28  C   UNL     1      34.800  10.201  15.206  0.00  0.00    +0.000 C 
ATOM     29  C   UNL     1      34.997   8.874  14.514  0.00  0.00    +0.000 C 
ATOM     30  C   UNL     1      33.735   8.123  14.819  0.00  0.00    +0.000 C 
ATOM     31  C   UNL     1      33.206   8.746  16.072  0.00  0.00    +0.000 C 
ENDBRANCH  26  27
ENDBRANCH  25  26
ENDBRANCH  24  25
ENDBRANCH  21  24
ENDBRANCH  11  18
TORSDOF 6
ENDMDL
MODEL 8
REMARK VINA RESULT:      -7.1      4.179      6.047
REMARK  Name = 
REMARK  6 active torsions:
REMARK  status: ('A' for Active; 'I' for Inactive)
REMARK    1  A    between atoms: N_10  and  C_11
REMARK    2  A    between atoms: C_17  and  C_18
REMARK    3  A    between atoms: C_21  and  O_22
REMARK    4  A    between atoms: O_22  and  C_23
REMARK    5  A    between atoms: C_23  and  C_24
REMARK    6  A    between atoms: C_24  and  N_25
REMARK                            x       y       z     vdW  Elec       q    Type
REMARK                         _______ _______ _______ _____ _____    ______ ____
ROOT
ATOM      1  O   UNL     1      45.252  -4.189  12.544  0.00  0.00    +0.000 OA
ATOM      2  C   UNL     1      44.146  -3.344  12.583  0.00  0.00    +0.000 A 
ATOM      3  C   UNL     1      44.218  -2.268  13.438  0.00  0.00    +0.000 A 
ATOM      4  C   UNL     1      43.124  -1.405  13.495  0.00  0.00    +0.000 A 
ATOM      5  C   UNL     1      41.998  -1.607  12.729  0.00  0.00    +0.000 A 
ATOM      6  C   UNL     1      41.950  -2.656  11.909  0.00  0.00    +0.000 A 
ATOM      7  C   UNL     1      43.045  -3.560  11.820  0.00  0.00    +0.000 A 
ATOM      8  C   UNL     1      40.806  -2.981  11.039  0.00  0.00    +0.000 C 
ATOM      9  C   UNL     1      39.565  -2.455  11.733  0.00  0.00    +0.000 C 
ATOM     10  N   UNL     1      39.784  -1.075  11.876  0.00  0.00    +0.000 N 
ATOM     11  C   UNL     1      40.844  -0.550  12.905  0.00  0.00    +0.000 C 
ENDROOT
BRANCH  10  12
ATOM     12  C   UNL     1      39.119  -0.062  11.160  0.00  0.00    +0.000 A 
ATOM     13  C   UNL     1      39.698   0.482  10.033  0.00  0.00    +0.000 A 
ATOM     14  C   UNL     1      39.060   1.476   9.320  0.00  0.00    +0.000 A 
ATOM     15  C   UNL     1      37.830   1.952   9.712  0.00  0.00    +0.000 A 
ATOM     16  C   UNL     1      37.239   1.419  10.833  0.00  0.00    +0.000 A 
ATOM     17  C   UNL     1      37.888   0.426  11.538  0.00  0.00    +0.000 A 
ENDBRANCH  10  12
BRANCH  11  18
ATOM     18  C   UNL     1      40.165  -1.205  14.210  0.00  0.00    +0.000 A 
ATOM     19  C   UNL     1      40.725  -2.376  14.660  0.00  0.00    +0.000 A 
ATOM     20  C   UNL     1      40.182  -2.998  15.791  0.00  0.00    +0.000 A 
ATOM     21  C   UNL     1      39.104  -2.418  16.419  0.00  0.00    +0.000 A 
ATOM     22  C   UNL     1      38.592  -1.251  15.922  0.00  0.00    +0.000 A 
ATOM     23  C   UNL     1      39.127  -0.644  14.810  0.00  0.00    +0.000 A 
BRANCH  21  24
ATOM     24  O   UNL     1      38.557  -3.045  17.558  0.00  0.00    +0.000 OA
BRANCH  24  25
ATOM     25  C   UNL     1      37.267  -2.785  18.016  0.00  0.00    +0.000 C 
BRANCH  25  26
ATOM     26  C   UNL     1      37.191  -1.662  19.010  0.00  0.00    +0.000 C 
BRANCH  26  27
ATOM     27  N   UNL     1      35.907  -0.990  18.933  0.00  0.00    +0.000 NA
ATOM     28  C   UNL     1      36.125   0.439  18.950  0.00  0.00    +0.000 C 
ATOM     29  C   UNL     1      36.000   0.909  17.520  0.00  0.00    +0.000 C 
ATOM     30  C   UNL     1      35.074  -0.092  16.896  0.00  0.00    +0.000 C 
ATOM     31  C   UNL     1      35.207  -1.322  17.738  0.00  0.00    +0.000 C 
ENDBRANCH  26  27
ENDBRANCH  25  26
ENDBRANCH  24  25
ENDBRANCH  21  24
ENDBRANCH  11  18
TORSDOF 6
ENDMDL
MODEL 9
REMARK VINA RESULT:      -7.0      3.235      5.347
REMARK  Name = 
REMARK  6 active torsions:
REMARK  status: ('A' for Active; 'I' for Inactive)
REMARK    1  A    between atoms: N_10  and  C_11
REMARK    2  A    between atoms: C_17  and  C_18
REMARK    3  A    between atoms: C_21  and  O_22
REMARK    4  A    between atoms: O_22  and  C_23
REMARK    5  A    between atoms: C_23  and  C_24
REMARK    6  A    between atoms: C_24  and  N_25
REMARK                            x       y       z     vdW  Elec       q    Type
REMARK                         _______ _______ _______ _____ _____    ______ ____
ROOT
ATOM      1  O   UNL     1      36.415   6.198  10.180  0.00  0.00    +0.000 OA
ATOM      2  C   UNL     1      36.376   5.452  11.353  0.00  0.00    +0.000 A 
ATOM      3  C   UNL     1      35.652   5.978  12.399  0.00  0.00    +0.000 A 
ATOM      4  C   UNL     1      35.596   5.250  13.587  0.00  0.00    +0.000 A 
ATOM      5  C   UNL     1      36.239   4.041  13.729  0.00  0.00    +0.000 A 
ATOM      6  C   UNL     1      36.934   3.551  12.704  0.00  0.00    +0.000 A 
ATOM      7  C   UNL     1      37.016   4.261  11.475  0.00  0.00    +0.000 A 
ATOM      8  C   UNL     1      37.664   2.270  12.729  0.00  0.00    +0.000 C 
ATOM      9  C   UNL     1      38.090   2.038  14.165  0.00  0.00    +0.000 C 
ATOM     10  N   UNL     1      36.894   2.014  14.902  0.00  0.00    +0.000 N 
ATOM     11  C   UNL     1      36.086   3.337  15.129  0.00  0.00    +0.000 C 
ENDROOT
BRANCH  10  12
ATOM     12  C   UNL     1      36.317   0.872  15.488  0.00  0.00    +0.000 A 
ATOM     13  C   UNL     1      35.336   1.009  16.447  0.00  0.00    +0.000 A 
ATOM     14  C   UNL     1      34.760  -0.101  17.032  0.00  0.00    +0.000 A 
ATOM     15  C   UNL     1      35.147  -1.372  16.675  0.00  0.00    +0.000 A 
ATOM     16  C   UNL     1      36.124  -1.525  15.719  0.00  0.00    +0.000 A 
ATOM     17  C   UNL     1      36.691  -0.408  15.142  0.00  0.00    +0.000 A 
ENDBRANCH  10  12
BRANCH  11  18
ATOM     18  C   UNL     1      37.261   4.137  15.888  0.00  0.00    +0.000 A 
ATOM     19  C   UNL     1      37.938   5.068  15.140  0.00  0.00    +0.000 A 
ATOM     20  C   UNL     1      38.972   5.799  15.739  0.00  0.00    +0.000 A 
ATOM     21  C   UNL     1      39.279   5.561  17.059  0.00  0.00    +0.000 A 
ATOM     22  C   UNL     1      38.567   4.619  17.750  0.00  0.00    +0.000 A 
ATOM     23  C   UNL     1      37.553   3.904  17.157  0.00  0.00    +0.000 A 
BRANCH  21  24
ATOM     24  O   UNL     1      40.321   6.296  17.662  0.00  0.00    +0.000 OA
BRANCH  24  25
ATOM     25  C   UNL     1      40.693   6.124  18.994  0.00  0.00    +0.000 C 
BRANCH  25  26
ATOM     26  C   UNL     1      39.826   6.869  19.968  0.00  0.00    +0.000 C 
BRANCH  26  27
ATOM     27  N   UNL     1      39.475   8.179  19.449  0.00  0.00    +0.000 NA
ATOM     28  C   UNL     1      38.047   8.227  19.230  0.00  0.00    +0.000 C 
ATOM     29  C   UNL     1      37.459   8.981  20.399  0.00  0.00    +0.000 C 
ATOM     30  C   UNL     1      38.573   9.884  20.837  0.00  0.00    +0.000 C 
ATOM     31  C   UNL     1      39.824   9.219  20.357  0.00  0.00    +0.000 C 
ENDBRANCH  26  27
ENDBRANCH  25  26
ENDBRANCH  24  25
ENDBRANCH  21  24
ENDBRANCH  11  18
TORSDOF 6
ENDMDL
MODEL 10
REMARK VINA RESULT:      -7.0      3.281     10.616
REMARK  Name = 
REMARK  6 active torsions:
REMARK  status: ('A' for Active; 'I' for Inactive)
REMARK    1  A    between atoms: N_10  and  C_11
REMARK    2  A    between atoms: C_17  and  C_18
REMARK    3  A    between atoms: C_21  and  O_22
REMARK    4  A    between atoms: O_22  and  C_23
REMARK    5  A    between atoms: C_23  and  C_24
REMARK    6  A    between atoms: C_24  and  N_25
REMARK                            x       y       z     vdW  Elec       q    Type
REMARK                         _______ _______ _______ _____ _____    ______ ____
ROOT
ATOM      1  O   UNL     1      36.577  11.599  16.952  0.00  0.00    +0.000 OA
ATOM      2  C   UNL     1      37.555  10.678  17.316  0.00  0.00    +0.000 A 
ATOM      3  C   UNL     1      38.409  10.257  16.321  0.00  0.00    +0.000 A 
ATOM      4  C   UNL     1      39.400   9.335  16.658  0.00  0.00    +0.000 A 
ATOM      5  C   UNL     1      39.535   8.849  17.939  0.00  0.00    +0.000 A 
ATOM      6  C   UNL     1      38.697   9.271  18.885  0.00  0.00    +0.000 A 
ATOM      7  C   UNL     1      37.673  10.210  18.584  0.00  0.00    +0.000 A 
ATOM      8  C   UNL     1      38.737   8.828  20.291  0.00  0.00    +0.000 C 
ATOM      9  C   UNL     1      39.294   7.418  20.290  0.00  0.00    +0.000 C 
ATOM     10  N   UNL     1      40.566   7.528  19.702  0.00  0.00    +0.000 N 
ATOM     11  C   UNL     1      40.698   7.812  18.166  0.00  0.00    +0.000 C 
ENDROOT
BRANCH  10  12
ATOM     12  C   UNL     1      41.794   7.403  20.377  0.00  0.00    +0.000 A 
ATOM     13  C   UNL     1      42.258   6.157  20.742  0.00  0.00    +0.000 A 
ATOM     14  C   UNL     1      43.460   6.017  21.405  0.00  0.00    +0.000 A 
ATOM     15  C   UNL     1      44.227   7.114  21.721  0.00  0.00    +0.000 A 
ATOM     16  C   UNL     1      43.778   8.363  21.365  0.00  0.00    +0.000 A 
ATOM     17  C   UNL     1      42.575   8.490  20.701  0.00  0.00    +0.000 A 
ENDBRANCH  10  12
BRANCH  11  18
ATOM     18  C   UNL     1      39.901   6.502  17.672  0.00  0.00    +0.000 A 
ATOM     19  C   UNL     1      39.999   6.203  16.336  0.00  0.00    +0.000 A 
ATOM     20  C   UNL     1      39.330   5.076  15.841  0.00  0.00    +0.000 A 
ATOM     21  C   UNL     1      38.594   4.303  16.708  0.00  0.00    +0.000 A 
ATOM     22  C   UNL     1      38.536   4.654  18.030  0.00  0.00    +0.000 A 
ATOM     23  C   UNL     1      39.194   5.761  18.511  0.00  0.00    +0.000 A 
BRANCH  21  24
ATOM     24  O   UNL     1      37.920   3.169  16.210  0.00  0.00    +0.000 OA
BRANCH  24  25
ATOM     25  C   UNL     1      36.699   2.732  16.719  0.00  0.00    +0.000 C 
BRANCH  25  26
ATOM     26  C   UNL     1      36.197   1.465  16.087  0.00  0.00    +0.000 C 
BRANCH  26  27
ATOM     27  N   UNL     1      36.658   0.302  16.824  0.00  0.00    +0.000 NA
ATOM     28  C   UNL     1      35.833   0.135  17.998  0.00  0.00    +0.000 C 
ATOM     29  C   UNL     1      34.848  -0.964  17.677  0.00  0.00    +0.000 C 
ATOM     30  C   UNL     1      35.570  -1.804  16.667  0.00  0.00    +0.000 C 
ATOM     31  C   UNL     1      36.574  -0.886  16.044  0.00  0.00    +0.000 C 
ENDBRANCH  26  27
ENDBRANCH  25  26
ENDBRANCH  24  25
ENDBRANCH  21  24
ENDBRANCH  11  18
TORSDOF 6
ENDMDL
