MODEL 1
REMARK VINA RESULT:      -6.3      0.000      0.000
REMARK  Name = 
REMARK  2 active torsions:
REMARK  status: ('A' for Active; 'I' for Inactive)
REMARK    1  A    between atoms: N_11  and  C_12
REMARK    2  A    between atoms: C_12  and  C_13
REMARK                            x       y       z     vdW  Elec       q    Type
REMARK                         _______ _______ _______ _____ _____    ______ ____
ROOT
ATOM      1  C   UNL     1      29.559  26.740  22.998  0.00  0.00    +0.000 C 
ATOM      2  C   UNL     1      28.475  25.912  23.907  0.00  0.00    +0.000 C 
ATOM      3  C   UNL     1      27.219  25.989  22.867  0.00  0.00    +0.000 C 
ATOM      4  C   UNL     1      27.638  26.165  21.501  0.00  0.00    +0.000 C 
ATOM      5  C   UNL     1      28.885  25.451  21.116  0.00  0.00    +0.000 C 
ATOM      6  C   UNL     1      29.372  24.434  22.037  0.00  0.00    +0.000 C 
ATOM      7  C   UNL     1      28.956  24.427  23.424  0.00  0.00    +0.000 C 
ATOM      8  N   UNL     1      30.015  24.172  24.382  0.00  0.00    +0.000 NA
ATOM      9  C   UNL     1      29.398  23.551  25.500  0.00  0.00    +0.000 C 
ATOM     10  O   UNL     1      29.870  23.355  26.654  0.00  0.00    +0.000 OA
ATOM     11  N   UNL     1      28.074  23.141  25.137  0.00  0.00    +0.000 N 
ATOM     12  C   UNL     1      27.869  23.511  23.783  0.00  0.00    +0.000 C 
ATOM     13  O   UNL     1      26.941  23.130  23.043  0.00  0.00    +0.000 OA
ENDROOT
BRANCH  11  14
ATOM     14  C   UNL     1      27.125  22.470  26.007  0.00  0.00    +0.000 C 
BRANCH  14  15
ATOM     15  C   UNL     1      26.415  23.406  26.893  0.00  0.00    +0.000 A 
ATOM     16  C   UNL     1      25.515  24.297  26.382  0.00  0.00    +0.000 A 
ATOM     17  C   UNL     1      24.825  25.198  27.194  0.00  0.00    +0.000 A 
ATOM     18  C   UNL     1      25.074  25.168  28.547  0.00  0.00    +0.000 A 
ATOM     19  C   UNL     1      25.977  24.276  29.068  0.00  0.00    +0.000 A 
ATOM     20  C   UNL     1      26.657  23.384  28.239  0.00  0.00    +0.000 A 
ATOM     21  F   UNL     1      27.553  22.493  28.744  0.00  0.00    +0.000 F 
ENDBRANCH  14  15
ENDBRANCH  11  14
TORSDOF 2
ENDMDL
MODEL 2
REMARK VINA RESULT:      -6.2      2.815      5.331
REMARK  Name = 
REMARK  2 active torsions:
REMARK  status: ('A' for Active; 'I' for Inactive)
REMARK    1  A    between atoms: N_11  and  C_12
REMARK    2  A    between atoms: C_12  and  C_13
REMARK                            x       y       z     vdW  Elec       q    Type
REMARK                         _______ _______ _______ _____ _____    ______ ____
ROOT
ATOM      1  C   UNL     1      29.467  23.840  28.195  0.00  0.00    +0.000 C 
ATOM      2  C   UNL     1      29.119  24.319  26.667  0.00  0.00    +0.000 C 
ATOM      3  C   UNL     1      30.644  24.657  26.194  0.00  0.00    +0.000 C 
ATOM      4  C   UNL     1      31.634  23.930  26.946  0.00  0.00    +0.000 C 
ATOM      5  C   UNL     1      31.259  22.541  27.322  0.00  0.00    +0.000 C 
ATOM      6  C   UNL     1      30.099  21.968  26.654  0.00  0.00    +0.000 C 
ATOM      7  C   UNL     1      29.112  22.817  26.022  0.00  0.00    +0.000 C 
ATOM      8  N   UNL     1      27.732  22.438  26.261  0.00  0.00    +0.000 NA
ATOM      9  C   UNL     1      26.998  22.873  25.126  0.00  0.00    +0.000 C 
ATOM     10  O   UNL     1      25.747  22.966  24.983  0.00  0.00    +0.000 OA
ATOM     11  N   UNL     1      27.914  23.219  24.081  0.00  0.00    +0.000 N 
ATOM     12  C   UNL     1      29.226  22.998  24.572  0.00  0.00    +0.000 C 
ATOM     13  O   UNL     1      30.274  22.964  23.898  0.00  0.00    +0.000 OA
ENDROOT
BRANCH  11  14
ATOM     14  C   UNL     1      27.552  23.708  22.762  0.00  0.00    +0.000 C 
BRANCH  14  15
ATOM     15  C   UNL     1      27.889  25.128  22.576  0.00  0.00    +0.000 A 
ATOM     16  C   UNL     1      27.199  26.097  23.246  0.00  0.00    +0.000 A 
ATOM     17  C   UNL     1      27.494  27.453  23.092  0.00  0.00    +0.000 A 
ATOM     18  C   UNL     1      28.514  27.799  22.236  0.00  0.00    +0.000 A 
ATOM     19  C   UNL     1      29.212  26.830  21.560  0.00  0.00    +0.000 A 
ATOM     20  C   UNL     1      28.902  25.480  21.727  0.00  0.00    +0.000 A 
ATOM     21  F   UNL     1      29.587  24.511  21.063  0.00  0.00    +0.000 F 
ENDBRANCH  14  15
ENDBRANCH  11  14
TORSDOF 2
ENDMDL
MODEL 3
REMARK VINA RESULT:      -6.1      1.851      3.546
REMARK  Name = 
REMARK  2 active torsions:
REMARK  status: ('A' for Active; 'I' for Inactive)
REMARK    1  A    between atoms: N_11  and  C_12
REMARK    2  A    between atoms: C_12  and  C_13
REMARK                            x       y       z     vdW  Elec       q    Type
REMARK                         _______ _______ _______ _____ _____    ______ ____
ROOT
ATOM      1  C   UNL     1      32.314  23.386  24.481  0.00  0.00    +0.000 C 
ATOM      2  C   UNL     1      30.861  22.885  25.051  0.00  0.00    +0.000 C 
ATOM      3  C   UNL     1      31.158  23.123  26.638  0.00  0.00    +0.000 C 
ATOM      4  C   UNL     1      32.174  24.116  26.871  0.00  0.00    +0.000 C 
ATOM      5  C   UNL     1      32.171  25.268  25.930  0.00  0.00    +0.000 C 
ATOM      6  C   UNL     1      30.994  25.428  25.088  0.00  0.00    +0.000 C 
ATOM      7  C   UNL     1      30.100  24.316  24.843  0.00  0.00    +0.000 C 
ATOM      8  N   UNL     1      29.655  24.177  23.469  0.00  0.00    +0.000 NA
ATOM      9  C   UNL     1      28.376  23.565  23.526  0.00  0.00    +0.000 C 
ATOM     10  O   UNL     1      27.707  23.046  22.589  0.00  0.00    +0.000 OA
ATOM     11  N   UNL     1      27.895  23.608  24.874  0.00  0.00    +0.000 N 
ATOM     12  C   UNL     1      28.885  24.253  25.660  0.00  0.00    +0.000 C 
ATOM     13  O   UNL     1      28.746  24.681  26.822  0.00  0.00    +0.000 OA
ENDROOT
BRANCH  11  14
ATOM     14  C   UNL     1      26.624  23.083  25.340  0.00  0.00    +0.000 C 
BRANCH  14  15
ATOM     15  C   UNL     1      25.691  24.146  25.745  0.00  0.00    +0.000 A 
ATOM     16  C   UNL     1      25.185  25.015  24.820  0.00  0.00    +0.000 A 
ATOM     17  C   UNL     1      24.298  26.034  25.172  0.00  0.00    +0.000 A 
ATOM     18  C   UNL     1      23.936  26.147  26.494  0.00  0.00    +0.000 A 
ATOM     19  C   UNL     1      24.440  25.278  27.429  0.00  0.00    +0.000 A 
ATOM     20  C   UNL     1      25.326  24.266  27.058  0.00  0.00    +0.000 A 
ATOM     21  F   UNL     1      25.831  23.398  27.975  0.00  0.00    +0.000 F 
ENDBRANCH  14  15
ENDBRANCH  11  14
TORSDOF 2
ENDMDL
MODEL 4
REMARK VINA RESULT:      -6.1      2.292      4.593
REMARK  Name = 
REMARK  2 active torsions:
REMARK  status: ('A' for Active; 'I' for Inactive)
REMARK    1  A    between atoms: N_11  and  C_12
REMARK    2  A    between atoms: C_12  and  C_13
REMARK                            x       y       z     vdW  Elec       q    Type
REMARK                         _______ _______ _______ _____ _____    ______ ____
ROOT
ATOM      1  C   UNL     1      26.398  26.833  24.193  0.00  0.00    +0.000 C 
ATOM      2  C   UNL     1      27.644  25.840  24.575  0.00  0.00    +0.000 C 
ATOM      3  C   UNL     1      27.242  25.582  26.136  0.00  0.00    +0.000 C 
ATOM      4  C   UNL     1      25.837  25.769  26.387  0.00  0.00    +0.000 C 
ATOM      5  C   UNL     1      24.928  25.324  25.298  0.00  0.00    +0.000 C 
ATOM      6  C   UNL     1      25.507  24.492  24.254  0.00  0.00    +0.000 C 
ATOM      7  C   UNL     1      26.937  24.471  24.030  0.00  0.00    +0.000 C 
ATOM      8  N   UNL     1      27.341  24.508  22.636  0.00  0.00    +0.000 NA
ATOM      9  C   UNL     1      28.587  23.830  22.566  0.00  0.00    +0.000 C 
ATOM     10  O   UNL     1      29.420  23.807  21.618  0.00  0.00    +0.000 OA
ATOM     11  N   UNL     1      28.805  23.121  23.791  0.00  0.00    +0.000 N 
ATOM     12  C   UNL     1      27.685  23.361  24.628  0.00  0.00    +0.000 C 
ATOM     13  O   UNL     1      27.395  22.746  25.673  0.00  0.00    +0.000 OA
ENDROOT
BRANCH  11  14
ATOM     14  C   UNL     1      29.966  22.309  24.107  0.00  0.00    +0.000 C 
BRANCH  14  15
ATOM     15  C   UNL     1      30.916  23.004  24.989  0.00  0.00    +0.000 A 
ATOM     16  C   UNL     1      31.776  23.937  24.484  0.00  0.00    +0.000 A 
ATOM     17  C   UNL     1      32.690  24.614  25.294  0.00  0.00    +0.000 A 
ATOM     18  C   UNL     1      32.705  24.317  26.637  0.00  0.00    +0.000 A 
ATOM     19  C   UNL     1      31.843  23.381  27.152  0.00  0.00    +0.000 A 
ATOM     20  C   UNL     1      30.938  22.715  26.326  0.00  0.00    +0.000 A 
ATOM     21  F   UNL     1      30.079  21.786  26.825  0.00  0.00    +0.000 F 
ENDBRANCH  14  15
ENDBRANCH  11  14
TORSDOF 2
ENDMDL
MODEL 5
REMARK VINA RESULT:      -5.9      2.155      4.887
REMARK  Name = 
REMARK  2 active torsions:
REMARK  status: ('A' for Active; 'I' for Inactive)
REMARK    1  A    between atoms: N_11  and  C_12
REMARK    2  A    between atoms: C_12  and  C_13
REMARK                            x       y       z     vdW  Elec       q    Type
REMARK                         _______ _______ _______ _____ _____    ______ ____
ROOT
ATOM      1  C   UNL     1      25.656  27.394  26.816  0.00  0.00    +0.000 C 
ATOM      2  C   UNL     1      26.513  26.077  26.351  0.00  0.00    +0.000 C 
ATOM      3  C   UNL     1      25.714  24.972  27.249  0.00  0.00    +0.000 C 
ATOM      4  C   UNL     1      24.373  25.383  27.573  0.00  0.00    +0.000 C 
ATOM      5  C   UNL     1      23.660  26.138  26.508  0.00  0.00    +0.000 C 
ATOM      6  C   UNL     1      24.252  26.120  25.178  0.00  0.00    +0.000 C 
ATOM      7  C   UNL     1      25.650  25.791  24.993  0.00  0.00    +0.000 C 
ATOM      8  N   UNL     1      26.360  26.636  24.051  0.00  0.00    +0.000 NA
ATOM      9  C   UNL     1      27.394  25.835  23.500  0.00  0.00    +0.000 C 
ATOM     10  O   UNL     1      28.394  26.195  22.818  0.00  0.00    +0.000 OA
ATOM     11  N   UNL     1      27.152  24.463  23.833  0.00  0.00    +0.000 N 
ATOM     12  C   UNL     1      25.958  24.414  24.598  0.00  0.00    +0.000 C 
ATOM     13  O   UNL     1      25.300  23.393  24.879  0.00  0.00    +0.000 OA
ENDROOT
BRANCH  11  14
ATOM     14  C   UNL     1      27.986  23.337  23.453  0.00  0.00    +0.000 C 
BRANCH  14  15
ATOM     15  C   UNL     1      29.156  23.181  24.331  0.00  0.00    +0.000 A 
ATOM     16  C   UNL     1      30.385  23.624  23.934  0.00  0.00    +0.000 A 
ATOM     17  C   UNL     1      31.515  23.491  24.743  0.00  0.00    +0.000 A 
ATOM     18  C   UNL     1      31.361  22.895  25.973  0.00  0.00    +0.000 A 
ATOM     19  C   UNL     1      30.129  22.447  26.379  0.00  0.00    +0.000 A 
ATOM     20  C   UNL     1      29.012  22.589  25.556  0.00  0.00    +0.000 A 
ATOM     21  F   UNL     1      27.786  22.151  25.948  0.00  0.00    +0.000 F 
ENDBRANCH  14  15
ENDBRANCH  11  14
TORSDOF 2
ENDMDL
MODEL 6
REMARK VINA RESULT:      -5.9     21.786     23.273
REMARK  Name = 
REMARK  2 active torsions:
REMARK  status: ('A' for Active; 'I' for Inactive)
REMARK    1  A    between atoms: N_11  and  C_12
REMARK    2  A    between atoms: C_12  and  C_13
REMARK                            x       y       z     vdW  Elec       q    Type
REMARK                         _______ _______ _______ _____ _____    ______ ____
ROOT
ATOM      1  C   UNL     1      25.665   7.026  17.490  0.00  0.00    +0.000 C 
ATOM      2  C   UNL     1      25.677   5.622  16.644  0.00  0.00    +0.000 C 
ATOM      3  C   UNL     1      26.879   6.005  15.608  0.00  0.00    +0.000 C 
ATOM      4  C   UNL     1      27.768   7.008  16.134  0.00  0.00    +0.000 C 
ATOM      5  C   UNL     1      28.040   6.922  17.593  0.00  0.00    +0.000 C 
ATOM      6  C   UNL     1      27.640   5.694  18.266  0.00  0.00    +0.000 C 
ATOM      7  C   UNL     1      26.650   4.815  17.681  0.00  0.00    +0.000 C 
ATOM      8  N   UNL     1      25.664   4.295  18.610  0.00  0.00    +0.000 NA
ATOM      9  C   UNL     1      25.257   3.036  18.093  0.00  0.00    +0.000 C 
ATOM     10  O   UNL     1      24.269   2.327  18.430  0.00  0.00    +0.000 OA
ATOM     11  N   UNL     1      26.170   2.634  17.066  0.00  0.00    +0.000 N 
ATOM     12  C   UNL     1      27.151   3.651  16.944  0.00  0.00    +0.000 C 
ATOM     13  O   UNL     1      28.232   3.569  16.327  0.00  0.00    +0.000 OA
ENDROOT
BRANCH  11  14
ATOM     14  C   UNL     1      26.094   1.405  16.295  0.00  0.00    +0.000 C 
BRANCH  14  15
ATOM     15  C   UNL     1      26.871   0.313  16.901  0.00  0.00    +0.000 A 
ATOM     16  C   UNL     1      28.228   0.267  16.762  0.00  0.00    +0.000 A 
ATOM     17  C   UNL     1      28.995  -0.755  17.323  0.00  0.00    +0.000 A 
ATOM     18  C   UNL     1      28.341  -1.735  18.035  0.00  0.00    +0.000 A 
ATOM     19  C   UNL     1      26.977  -1.696  18.179  0.00  0.00    +0.000 A 
ATOM     20  C   UNL     1      26.229  -0.666  17.610  0.00  0.00    +0.000 A 
ATOM     21  F   UNL     1      24.877  -0.616  17.747  0.00  0.00    +0.000 F 
ENDBRANCH  14  15
ENDBRANCH  11  14
TORSDOF 2
ENDMDL
MODEL 7
REMARK VINA RESULT:      -5.8      2.409      5.954
REMARK  Name = 
REMARK  2 active torsions:
REMARK  status: ('A' for Active; 'I' for Inactive)
REMARK    1  A    between atoms: N_11  and  C_12
REMARK    2  A    between atoms: C_12  and  C_13
REMARK                            x       y       z     vdW  Elec       q    Type
REMARK                         _______ _______ _______ _____ _____    ______ ____
ROOT
ATOM      1  C   UNL     1      26.628  25.518  29.612  0.00  0.00    +0.000 C 
ATOM      2  C   UNL     1      27.413  25.070  28.245  0.00  0.00    +0.000 C 
ATOM      3  C   UNL     1      28.668  24.307  28.956  0.00  0.00    +0.000 C 
ATOM      4  C   UNL     1      28.353  23.831  30.278  0.00  0.00    +0.000 C 
ATOM      5  C   UNL     1      26.967  23.322  30.461  0.00  0.00    +0.000 C 
ATOM      6  C   UNL     1      26.190  23.077  29.254  0.00  0.00    +0.000 C 
ATOM      7  C   UNL     1      26.550  23.704  28.000  0.00  0.00    +0.000 C 
ATOM      8  N   UNL     1      25.436  24.233  27.237  0.00  0.00    +0.000 NA
ATOM      9  C   UNL     1      25.824  24.170  25.872  0.00  0.00    +0.000 C 
ATOM     10  O   UNL     1      25.284  24.719  24.872  0.00  0.00    +0.000 OA
ATOM     11  N   UNL     1      26.990  23.347  25.754  0.00  0.00    +0.000 N 
ATOM     12  C   UNL     1      27.328  22.896  27.056  0.00  0.00    +0.000 C 
ATOM     13  O   UNL     1      28.132  21.987  27.340  0.00  0.00    +0.000 OA
ENDROOT
BRANCH  11  14
ATOM     14  C   UNL     1      27.690  23.038  24.520  0.00  0.00    +0.000 C 
BRANCH  14  15
ATOM     15  C   UNL     1      29.093  23.480  24.544  0.00  0.00    +0.000 A 
ATOM     16  C   UNL     1      30.107  22.567  24.577  0.00  0.00    +0.000 A 
ATOM     17  C   UNL     1      31.449  22.953  24.601  0.00  0.00    +0.000 A 
ATOM     18  C   UNL     1      31.733  24.299  24.587  0.00  0.00    +0.000 A 
ATOM     19  C   UNL     1      30.719  25.223  24.553  0.00  0.00    +0.000 A 
ATOM     20  C   UNL     1      29.385  24.817  24.531  0.00  0.00    +0.000 A 
ATOM     21  F   UNL     1      28.371  25.723  24.496  0.00  0.00    +0.000 F 
ENDBRANCH  14  15
ENDBRANCH  11  14
TORSDOF 2
ENDMDL
MODEL 8
REMARK VINA RESULT:      -5.8      2.531      3.506
REMARK  Name = 
REMARK  2 active torsions:
REMARK  status: ('A' for Active; 'I' for Inactive)
REMARK    1  A    between atoms: N_11  and  C_12
REMARK    2  A    between atoms: C_12  and  C_13
REMARK                            x       y       z     vdW  Elec       q    Type
REMARK                         _______ _______ _______ _____ _____    ______ ____
ROOT
ATOM      1  C   UNL     1      31.088  24.749  26.108  0.00  0.00    +0.000 C 
ATOM      2  C   UNL     1      29.605  24.553  26.777  0.00  0.00    +0.000 C 
ATOM      3  C   UNL     1      28.748  24.503  25.389  0.00  0.00    +0.000 C 
ATOM      4  C   UNL     1      29.537  24.078  24.262  0.00  0.00    +0.000 C 
ATOM      5  C   UNL     1      30.553  23.032  24.551  0.00  0.00    +0.000 C 
ATOM      6  C   UNL     1      30.445  22.343  25.829  0.00  0.00    +0.000 C 
ATOM      7  C   UNL     1      29.706  22.928  26.927  0.00  0.00    +0.000 C 
ATOM      8  N   UNL     1      30.349  22.827  28.224  0.00  0.00    +0.000 NA
ATOM      9  C   UNL     1      29.304  22.799  29.184  0.00  0.00    +0.000 C 
ATOM     10  O   UNL     1      29.378  22.943  30.437  0.00  0.00    +0.000 OA
ATOM     11  N   UNL     1      28.059  22.568  28.515  0.00  0.00    +0.000 N 
ATOM     12  C   UNL     1      28.334  22.453  27.129  0.00  0.00    +0.000 C 
ATOM     13  O   UNL     1      27.557  22.029  26.251  0.00  0.00    +0.000 OA
ENDROOT
BRANCH  11  14
ATOM     14  C   UNL     1      26.757  22.473  29.153  0.00  0.00    +0.000 C 
BRANCH  14  15
ATOM     15  C   UNL     1      26.153  23.791  29.398  0.00  0.00    +0.000 A 
ATOM     16  C   UNL     1      26.220  24.366  30.635  0.00  0.00    +0.000 A 
ATOM     17  C   UNL     1      25.657  25.615  30.901  0.00  0.00    +0.000 A 
ATOM     18  C   UNL     1      25.022  26.269  29.869  0.00  0.00    +0.000 A 
ATOM     19  C   UNL     1      24.952  25.699  28.624  0.00  0.00    +0.000 A 
ATOM     20  C   UNL     1      25.520  24.449  28.379  0.00  0.00    +0.000 A 
ATOM     21  F   UNL     1      25.458  23.874  27.148  0.00  0.00    +0.000 F 
ENDBRANCH  14  15
ENDBRANCH  11  14
TORSDOF 2
ENDMDL
MODEL 9
REMARK VINA RESULT:      -5.7      1.998      3.120
REMARK  Name = 
REMARK  2 active torsions:
REMARK  status: ('A' for Active; 'I' for Inactive)
REMARK    1  A    between atoms: N_11  and  C_12
REMARK    2  A    between atoms: C_12  and  C_13
REMARK                            x       y       z     vdW  Elec       q    Type
REMARK                         _______ _______ _______ _____ _____    ______ ____
ROOT
ATOM      1  C   UNL     1      27.115  25.775  21.685  0.00  0.00    +0.000 C 
ATOM      2  C   UNL     1      27.305  24.411  22.574  0.00  0.00    +0.000 C 
ATOM      3  C   UNL     1      28.669  23.874  21.855  0.00  0.00    +0.000 C 
ATOM      4  C   UNL     1      29.430  24.933  21.245  0.00  0.00    +0.000 C 
ATOM      5  C   UNL     1      29.432  26.226  21.979  0.00  0.00    +0.000 C 
ATOM      6  C   UNL     1      28.937  26.206  23.349  0.00  0.00    +0.000 C 
ATOM      7  C   UNL     1      28.086  25.132  23.815  0.00  0.00    +0.000 C 
ATOM      8  N   UNL     1      26.957  25.551  24.624  0.00  0.00    +0.000 NA
ATOM      9  C   UNL     1      26.673  24.470  25.499  0.00  0.00    +0.000 C 
ATOM     10  O   UNL     1      25.651  24.283  26.218  0.00  0.00    +0.000 OA
ATOM     11  N   UNL     1      27.765  23.544  25.470  0.00  0.00    +0.000 N 
ATOM     12  C   UNL     1      28.734  24.055  24.569  0.00  0.00    +0.000 C 
ATOM     13  O   UNL     1      29.910  23.660  24.443  0.00  0.00    +0.000 OA
ENDROOT
BRANCH  11  14
ATOM     14  C   UNL     1      27.851  22.309  26.229  0.00  0.00    +0.000 C 
BRANCH  14  15
ATOM     15  C   UNL     1      28.583  22.476  27.494  0.00  0.00    +0.000 A 
ATOM     16  C   UNL     1      29.948  22.432  27.517  0.00  0.00    +0.000 A 
ATOM     17  C   UNL     1      30.672  22.587  28.700  0.00  0.00    +0.000 A 
ATOM     18  C   UNL     1      29.969  22.791  29.865  0.00  0.00    +0.000 A 
ATOM     19  C   UNL     1      28.598  22.837  29.850  0.00  0.00    +0.000 A 
ATOM     20  C   UNL     1      27.892  22.679  28.657  0.00  0.00    +0.000 A 
ATOM     21  F   UNL     1      26.533  22.724  28.629  0.00  0.00    +0.000 F 
ENDBRANCH  14  15
ENDBRANCH  11  14
TORSDOF 2
ENDMDL
MODEL 10
REMARK VINA RESULT:      -5.6      2.863      5.873
REMARK  Name = 
REMARK  2 active torsions:
REMARK  status: ('A' for Active; 'I' for Inactive)
REMARK    1  A    between atoms: N_11  and  C_12
REMARK    2  A    between atoms: C_12  and  C_13
REMARK                            x       y       z     vdW  Elec       q    Type
REMARK                         _______ _______ _______ _____ _____    ______ ____
ROOT
ATOM      1  C   UNL     1      26.688  27.475  28.818  0.00  0.00    +0.000 C 
ATOM      2  C   UNL     1      27.235  26.114  28.087  0.00  0.00    +0.000 C 
ATOM      3  C   UNL     1      27.736  25.335  29.431  0.00  0.00    +0.000 C 
ATOM      4  C   UNL     1      27.049  25.775  30.618  0.00  0.00    +0.000 C 
ATOM      5  C   UNL     1      25.611  26.107  30.439  0.00  0.00    +0.000 C 
ATOM      6  C   UNL     1      24.985  25.677  29.196  0.00  0.00    +0.000 C 
ATOM      7  C   UNL     1      25.785  25.363  28.032  0.00  0.00    +0.000 C 
ATOM      8  N   UNL     1      25.273  25.879  26.777  0.00  0.00    +0.000 NA
ATOM      9  C   UNL     1      25.717  24.983  25.768  0.00  0.00    +0.000 C 
ATOM     10  O   UNL     1      25.711  25.140  24.515  0.00  0.00    +0.000 OA
ATOM     11  N   UNL     1      26.210  23.789  26.386  0.00  0.00    +0.000 N 
ATOM     12  C   UNL     1      26.071  23.946  27.789  0.00  0.00    +0.000 C 
ATOM     13  O   UNL     1      26.174  23.049  28.649  0.00  0.00    +0.000 OA
ENDROOT
BRANCH  11  14
ATOM     14  C   UNL     1      26.752  22.635  25.691  0.00  0.00    +0.000 C 
BRANCH  14  15
ATOM     15  C   UNL     1      28.216  22.696  25.556  0.00  0.00    +0.000 A 
ATOM     16  C   UNL     1      29.023  22.422  26.623  0.00  0.00    +0.000 A 
ATOM     17  C   UNL     1      30.415  22.471  26.530  0.00  0.00    +0.000 A 
ATOM     18  C   UNL     1      30.967  22.807  25.315  0.00  0.00    +0.000 A 
ATOM     19  C   UNL     1      30.164  23.083  24.238  0.00  0.00    +0.000 A 
ATOM     20  C   UNL     1      28.775  23.029  24.353  0.00  0.00    +0.000 A 
ATOM     21  F   UNL     1      27.967  23.300  23.292  0.00  0.00    +0.000 F 
ENDBRANCH  14  15
ENDBRANCH  11  14
TORSDOF 2
ENDMDL
