MODEL 1
REMARK VINA RESULT:      -6.3      0.000      0.000
REMARK  Name = 
REMARK  3 active torsions:
REMARK  status: ('A' for Active; 'I' for Inactive)
REMARK    1  A    between atoms: N_4  and  C_5
REMARK    2  A    between atoms: C_8  and  N_9
REMARK    3  A    between atoms: C_10  and  C_11
REMARK                            x       y       z     vdW  Elec       q    Type
REMARK                         _______ _______ _______ _____ _____    ______ ____
ROOT
ATOM      1  C   UNL     1      22.468  10.526  37.334  0.00  0.00    +0.000 A 
ATOM      2  C   UNL     1      21.856  11.445  38.165  0.00  0.00    +0.000 A 
ATOM      3  C   UNL     1      20.478  11.558  38.236  0.00  0.00    +0.000 A 
ATOM      4  C   UNL     1      19.695  10.726  37.453  0.00  0.00    +0.000 A 
ATOM      5  C   UNL     1      20.272   9.810  36.624  0.00  0.00    +0.000 A 
ATOM      6  C   UNL     1      21.660   9.724  36.578  0.00  0.00    +0.000 A 
ENDROOT
BRANCH   1  10
ATOM      7  C   UNL     1      26.142   9.458  37.981  0.00  0.00    +0.000 C 
ATOM      8  C   UNL     1      24.652   9.512  37.996  0.00  0.00    +0.000 C 
ATOM      9  O   UNL     1      24.058   8.625  38.664  0.00  0.00    +0.000 OA
ATOM     10  N   UNL     1      23.888  10.474  37.320  0.00  0.00    +0.000 NA
ENDBRANCH   1  10
BRANCH   4  11
ATOM     11  N   UNL     1      18.280  10.894  37.575  0.00  0.00    +0.000 NA
ATOM     12  C   UNL     1      17.510  11.212  36.620  0.00  0.00    +0.000 C 
BRANCH  12  13
ATOM     13  C   UNL     1      16.066  11.382  36.750  0.00  0.00    +0.000 A 
ATOM     14  C   UNL     1      15.455  11.009  37.929  0.00  0.00    +0.000 A 
ATOM     15  C   UNL     1      14.085  11.161  38.078  0.00  0.00    +0.000 A 
ATOM     16  C   UNL     1      13.279  11.678  37.084  0.00  0.00    +0.000 A 
ATOM     17  C   UNL     1      11.810  11.838  37.251  0.00  0.00    +0.000 C 
ATOM     18  C   UNL     1      13.911  12.045  35.911  0.00  0.00    +0.000 A 
ATOM     19  C   UNL     1      15.272  11.901  35.749  0.00  0.00    +0.000 A 
ENDBRANCH  12  13
ENDBRANCH   4  11
TORSDOF 3
ENDMDL
MODEL 2
REMARK VINA RESULT:      -6.2     16.934     19.775
REMARK  Name = 
REMARK  3 active torsions:
REMARK  status: ('A' for Active; 'I' for Inactive)
REMARK    1  A    between atoms: N_4  and  C_5
REMARK    2  A    between atoms: C_8  and  N_9
REMARK    3  A    between atoms: C_10  and  C_11
REMARK                            x       y       z     vdW  Elec       q    Type
REMARK                         _______ _______ _______ _____ _____    ______ ____
ROOT
ATOM      1  C   UNL     1      32.797  -4.775  33.930  0.00  0.00    +0.000 A 
ATOM      2  C   UNL     1      33.531  -3.883  33.170  0.00  0.00    +0.000 A 
ATOM      3  C   UNL     1      33.539  -2.526  33.445  0.00  0.00    +0.000 A 
ATOM      4  C   UNL     1      32.792  -2.053  34.511  0.00  0.00    +0.000 A 
ATOM      5  C   UNL     1      32.060  -2.909  35.279  0.00  0.00    +0.000 A 
ATOM      6  C   UNL     1      32.075  -4.267  34.973  0.00  0.00    +0.000 A 
ENDROOT
BRANCH   1  10
ATOM      7  C   UNL     1      31.879  -8.270  32.518  0.00  0.00    +0.000 C 
ATOM      8  C   UNL     1      31.830  -6.826  32.885  0.00  0.00    +0.000 C 
ATOM      9  O   UNL     1      30.802  -6.185  32.537  0.00  0.00    +0.000 OA
ATOM     10  N   UNL     1      32.843  -6.151  33.581  0.00  0.00    +0.000 NA
ENDBRANCH   1  10
BRANCH   4  11
ATOM     11  N   UNL     1      32.846  -0.643  34.740  0.00  0.00    +0.000 NA
ATOM     12  C   UNL     1      33.618   0.155  34.128  0.00  0.00    +0.000 C 
BRANCH  12  13
ATOM     13  C   UNL     1      33.668   1.594  34.366  0.00  0.00    +0.000 A 
ATOM     14  C   UNL     1      33.449   2.452  33.308  0.00  0.00    +0.000 A 
ATOM     15  C   UNL     1      33.492   3.824  33.508  0.00  0.00    +0.000 A 
ATOM     16  C   UNL     1      33.749   4.391  34.739  0.00  0.00    +0.000 A 
ATOM     17  C   UNL     1      33.793   5.863  34.945  0.00  0.00    +0.000 C 
ATOM     18  C   UNL     1      33.966   3.514  35.785  0.00  0.00    +0.000 A 
ATOM     19  C   UNL     1      33.926   2.148  35.602  0.00  0.00    +0.000 A 
ENDBRANCH  12  13
ENDBRANCH   4  11
TORSDOF 3
ENDMDL
MODEL 3
REMARK VINA RESULT:      -6.2      2.826      8.677
REMARK  Name = 
REMARK  3 active torsions:
REMARK  status: ('A' for Active; 'I' for Inactive)
REMARK    1  A    between atoms: N_4  and  C_5
REMARK    2  A    between atoms: C_8  and  N_9
REMARK    3  A    between atoms: C_10  and  C_11
REMARK                            x       y       z     vdW  Elec       q    Type
REMARK                         _______ _______ _______ _____ _____    ______ ____
ROOT
ATOM      1  C   UNL     1      15.779  11.571  36.840  0.00  0.00    +0.000 A 
ATOM      2  C   UNL     1      16.331  10.310  36.965  0.00  0.00    +0.000 A 
ATOM      3  C   UNL     1      17.677  10.128  37.234  0.00  0.00    +0.000 A 
ATOM      4  C   UNL     1      18.488  11.241  37.383  0.00  0.00    +0.000 A 
ATOM      5  C   UNL     1      17.971  12.496  37.266  0.00  0.00    +0.000 A 
ATOM      6  C   UNL     1      16.613  12.642  36.995  0.00  0.00    +0.000 A 
ENDROOT
BRANCH   1  10
ATOM      7  C   UNL     1      11.917  11.550  37.214  0.00  0.00    +0.000 C 
ATOM      8  C   UNL     1      13.375  11.445  37.506  0.00  0.00    +0.000 C 
ATOM      9  O   UNL     1      13.699  11.132  38.682  0.00  0.00    +0.000 OA
ATOM     10  N   UNL     1      14.388  11.671  36.563  0.00  0.00    +0.000 NA
ENDBRANCH   1  10
BRANCH   4  11
ATOM     11  N   UNL     1      19.867  10.982  37.661  0.00  0.00    +0.000 NA
ATOM     12  C   UNL     1      20.575  10.130  37.045  0.00  0.00    +0.000 C 
BRANCH  12  13
ATOM     13  C   UNL     1      21.982   9.869  37.332  0.00  0.00    +0.000 A 
ATOM     14  C   UNL     1      22.918  10.104  36.346  0.00  0.00    +0.000 A 
ATOM     15  C   UNL     1      24.261   9.865  36.594  0.00  0.00    +0.000 A 
ATOM     16  C   UNL     1      24.724   9.391  37.805  0.00  0.00    +0.000 A 
ATOM     17  C   UNL     1      26.166   9.137  38.063  0.00  0.00    +0.000 C 
ATOM     18  C   UNL     1      23.770   9.162  38.778  0.00  0.00    +0.000 A 
ATOM     19  C   UNL     1      22.431   9.396  38.547  0.00  0.00    +0.000 A 
ENDBRANCH  12  13
ENDBRANCH   4  11
TORSDOF 3
ENDMDL
MODEL 4
REMARK VINA RESULT:      -5.9      4.376      5.969
REMARK  Name = 
REMARK  3 active torsions:
REMARK  status: ('A' for Active; 'I' for Inactive)
REMARK    1  A    between atoms: N_4  and  C_5
REMARK    2  A    between atoms: C_8  and  N_9
REMARK    3  A    between atoms: C_10  and  C_11
REMARK                            x       y       z     vdW  Elec       q    Type
REMARK                         _______ _______ _______ _____ _____    ______ ____
ROOT
ATOM      1  C   UNL     1      17.589   9.390  42.170  0.00  0.00    +0.000 A 
ATOM      2  C   UNL     1      16.388   9.485  41.491  0.00  0.00    +0.000 A 
ATOM      3  C   UNL     1      16.340   9.669  40.119  0.00  0.00    +0.000 A 
ATOM      4  C   UNL     1      17.528   9.759  39.412  0.00  0.00    +0.000 A 
ATOM      5  C   UNL     1      18.726   9.668  40.056  0.00  0.00    +0.000 A 
ATOM      6  C   UNL     1      18.737   9.483  41.435  0.00  0.00    +0.000 A 
ENDROOT
BRANCH   1  10
ATOM      7  C   UNL     1      17.475   7.751  45.685  0.00  0.00    +0.000 C 
ATOM      8  C   UNL     1      17.515   7.948  44.208  0.00  0.00    +0.000 C 
ATOM      9  O   UNL     1      17.518   6.910  43.495  0.00  0.00    +0.000 OA
ATOM     10  N   UNL     1      17.550   9.201  43.578  0.00  0.00    +0.000 NA
ENDBRANCH   1  10
BRANCH   4  11
ATOM     11  N   UNL     1      17.407   9.948  38.000  0.00  0.00    +0.000 NA
ATOM     12  C   UNL     1      16.517  10.661  37.445  0.00  0.00    +0.000 C 
BRANCH  12  13
ATOM     13  C   UNL     1      16.398  10.851  36.003  0.00  0.00    +0.000 A 
ATOM     14  C   UNL     1      17.237  10.144  35.166  0.00  0.00    +0.000 A 
ATOM     15  C   UNL     1      17.144  10.306  33.792  0.00  0.00    +0.000 A 
ATOM     16  C   UNL     1      16.234  11.160  33.202  0.00  0.00    +0.000 A 
ATOM     17  C   UNL     1      16.140  11.329  31.727  0.00  0.00    +0.000 C 
ATOM     18  C   UNL     1      15.404  11.859  34.058  0.00  0.00    +0.000 A 
ATOM     19  C   UNL     1      15.485  11.707  35.425  0.00  0.00    +0.000 A 
ENDBRANCH  12  13
ENDBRANCH   4  11
TORSDOF 3
ENDMDL
MODEL 5
REMARK VINA RESULT:      -5.9     17.500     19.264
REMARK  Name = 
REMARK  3 active torsions:
REMARK  status: ('A' for Active; 'I' for Inactive)
REMARK    1  A    between atoms: N_4  and  C_5
REMARK    2  A    between atoms: C_8  and  N_9
REMARK    3  A    between atoms: C_10  and  C_11
REMARK                            x       y       z     vdW  Elec       q    Type
REMARK                         _______ _______ _______ _____ _____    ______ ____
ROOT
ATOM      1  C   UNL     1      34.134   3.731  34.738  0.00  0.00    +0.000 A 
ATOM      2  C   UNL     1      33.769   3.169  33.529  0.00  0.00    +0.000 A 
ATOM      3  C   UNL     1      33.373   1.845  33.433  0.00  0.00    +0.000 A 
ATOM      4  C   UNL     1      33.342   1.068  34.579  0.00  0.00    +0.000 A 
ATOM      5  C   UNL     1      33.696   1.597  35.784  0.00  0.00    +0.000 A 
ATOM      6  C   UNL     1      34.089   2.932  35.845  0.00  0.00    +0.000 A 
ENDROOT
BRANCH   1  10
ATOM      7  C   UNL     1      36.149   6.999  35.297  0.00  0.00    +0.000 C 
ATOM      8  C   UNL     1      35.737   5.567  35.284  0.00  0.00    +0.000 C 
ATOM      9  O   UNL     1      36.540   4.739  35.789  0.00  0.00    +0.000 OA
ATOM     10  N   UNL     1      34.527   5.097  34.751  0.00  0.00    +0.000 NA
ENDBRANCH   1  10
BRANCH   4  11
ATOM     11  N   UNL     1      32.923  -0.288  34.409  0.00  0.00    +0.000 NA
ATOM     12  C   UNL     1      33.703  -1.252  34.144  0.00  0.00    +0.000 C 
BRANCH  12  13
ATOM     13  C   UNL     1      33.271  -2.635  33.971  0.00  0.00    +0.000 A 
ATOM     14  C   UNL     1      32.368  -3.168  34.868  0.00  0.00    +0.000 A 
ATOM     15  C   UNL     1      31.941  -4.480  34.725  0.00  0.00    +0.000 A 
ATOM     16  C   UNL     1      32.384  -5.302  33.710  0.00  0.00    +0.000 A 
ATOM     17  C   UNL     1      31.921  -6.708  33.563  0.00  0.00    +0.000 C 
ATOM     18  C   UNL     1      33.288  -4.749  32.823  0.00  0.00    +0.000 A 
ATOM     19  C   UNL     1      33.721  -3.447  32.952  0.00  0.00    +0.000 A 
ENDBRANCH  12  13
ENDBRANCH   4  11
TORSDOF 3
ENDMDL
MODEL 6
REMARK VINA RESULT:      -5.8     18.360     20.723
REMARK  Name = 
REMARK  3 active torsions:
REMARK  status: ('A' for Active; 'I' for Inactive)
REMARK    1  A    between atoms: N_4  and  C_5
REMARK    2  A    between atoms: C_8  and  N_9
REMARK    3  A    between atoms: C_10  and  C_11
REMARK                            x       y       z     vdW  Elec       q    Type
REMARK                         _______ _______ _______ _____ _____    ______ ____
ROOT
ATOM      1  C   UNL     1      29.785  23.598  23.651  0.00  0.00    +0.000 A 
ATOM      2  C   UNL     1      28.661  23.323  24.406  0.00  0.00    +0.000 A 
ATOM      3  C   UNL     1      28.753  22.921  25.729  0.00  0.00    +0.000 A 
ATOM      4  C   UNL     1      30.005  22.794  26.306  0.00  0.00    +0.000 A 
ATOM      5  C   UNL     1      31.131  23.059  25.585  0.00  0.00    +0.000 A 
ATOM      6  C   UNL     1      31.001  23.461  24.258  0.00  0.00    +0.000 A 
ENDROOT
BRANCH   1  10
ATOM      7  C   UNL     1      29.363  25.767  20.462  0.00  0.00    +0.000 C 
ATOM      8  C   UNL     1      29.553  25.341  21.877  0.00  0.00    +0.000 C 
ATOM      9  O   UNL     1      29.674  26.255  22.735  0.00  0.00    +0.000 OA
ATOM     10  N   UNL     1      29.604  24.005  22.301  0.00  0.00    +0.000 NA
ENDBRANCH   1  10
BRANCH   4  11
ATOM     11  N   UNL     1      30.028  22.376  27.673  0.00  0.00    +0.000 NA
ATOM     12  C   UNL     1      30.880  22.765  28.528  0.00  0.00    +0.000 C 
BRANCH  12  13
ATOM     13  C   UNL     1      30.899  22.335  29.923  0.00  0.00    +0.000 A 
ATOM     14  C   UNL     1      29.795  22.584  30.711  0.00  0.00    +0.000 A 
ATOM     15  C   UNL     1      29.788  22.186  32.040  0.00  0.00    +0.000 A 
ATOM     16  C   UNL     1      30.853  21.538  32.631  0.00  0.00    +0.000 A 
ATOM     17  C   UNL     1      30.838  21.114  34.055  0.00  0.00    +0.000 C 
ATOM     18  C   UNL     1      31.949  21.299  31.823  0.00  0.00    +0.000 A 
ATOM     19  C   UNL     1      31.970  21.688  30.501  0.00  0.00    +0.000 A 
ENDBRANCH  12  13
ENDBRANCH   4  11
TORSDOF 3
ENDMDL
MODEL 7
REMARK VINA RESULT:      -5.7     18.085     21.455
REMARK  Name = 
REMARK  3 active torsions:
REMARK  status: ('A' for Active; 'I' for Inactive)
REMARK    1  A    between atoms: N_4  and  C_5
REMARK    2  A    between atoms: C_8  and  N_9
REMARK    3  A    between atoms: C_10  and  C_11
REMARK                            x       y       z     vdW  Elec       q    Type
REMARK                         _______ _______ _______ _____ _____    ______ ____
ROOT
ATOM      1  C   UNL     1      32.991  -0.812  36.539  0.00  0.00    +0.000 A 
ATOM      2  C   UNL     1      33.352  -2.146  36.555  0.00  0.00    +0.000 A 
ATOM      3  C   UNL     1      33.570  -2.856  35.386  0.00  0.00    +0.000 A 
ATOM      4  C   UNL     1      33.423  -2.208  34.170  0.00  0.00    +0.000 A 
ATOM      5  C   UNL     1      33.068  -0.892  34.124  0.00  0.00    +0.000 A 
ATOM      6  C   UNL     1      32.857  -0.210  35.320  0.00  0.00    +0.000 A 
ENDROOT
BRANCH   1  10
ATOM      7  C   UNL     1      33.516   1.355  39.714  0.00  0.00    +0.000 C 
ATOM      8  C   UNL     1      33.732   0.668  38.409  0.00  0.00    +0.000 C 
ATOM      9  O   UNL     1      34.843   0.853  37.845  0.00  0.00    +0.000 OA
ATOM     10  N   UNL     1      32.786  -0.157  37.783  0.00  0.00    +0.000 NA
ENDBRANCH   1  10
BRANCH   4  11
ATOM     11  N   UNL     1      33.663  -2.998  33.003  0.00  0.00    +0.000 NA
ATOM     12  C   UNL     1      33.578  -4.262  32.962  0.00  0.00    +0.000 C 
BRANCH  12  13
ATOM     13  C   UNL     1      33.824  -5.064  31.768  0.00  0.00    +0.000 A 
ATOM     14  C   UNL     1      34.906  -5.920  31.752  0.00  0.00    +0.000 A 
ATOM     15  C   UNL     1      35.162  -6.693  30.629  0.00  0.00    +0.000 A 
ATOM     16  C   UNL     1      34.373  -6.649  29.497  0.00  0.00    +0.000 A 
ATOM     17  C   UNL     1      34.654  -7.481  28.297  0.00  0.00    +0.000 C 
ATOM     18  C   UNL     1      33.296  -5.785  29.534  0.00  0.00    +0.000 A 
ATOM     19  C   UNL     1      33.028  -5.011  30.643  0.00  0.00    +0.000 A 
ENDBRANCH  12  13
ENDBRANCH   4  11
TORSDOF 3
ENDMDL
MODEL 8
REMARK VINA RESULT:      -5.7     22.411     23.836
REMARK  Name = 
REMARK  3 active torsions:
REMARK  status: ('A' for Active; 'I' for Inactive)
REMARK    1  A    between atoms: N_4  and  C_5
REMARK    2  A    between atoms: C_8  and  N_9
REMARK    3  A    between atoms: C_10  and  C_11
REMARK                            x       y       z     vdW  Elec       q    Type
REMARK                         _______ _______ _______ _____ _____    ______ ____
ROOT
ATOM      1  C   UNL     1      27.349  -9.212  22.645  0.00  0.00    +0.000 A 
ATOM      2  C   UNL     1      27.020  -7.869  22.620  0.00  0.00    +0.000 A 
ATOM      3  C   UNL     1      25.842  -7.398  23.176  0.00  0.00    +0.000 A 
ATOM      4  C   UNL     1      24.975  -8.298  23.774  0.00  0.00    +0.000 A 
ATOM      5  C   UNL     1      25.275  -9.628  23.813  0.00  0.00    +0.000 A 
ATOM      6  C   UNL     1      26.467 -10.066  23.244  0.00  0.00    +0.000 A 
ENDROOT
BRANCH   1  10
ATOM      7  C   UNL     1      31.077 -10.151  22.122  0.00  0.00    +0.000 C 
ATOM      8  C   UNL     1      29.790  -9.731  22.745  0.00  0.00    +0.000 C 
ATOM      9  O   UNL     1      29.813  -9.468  23.977  0.00  0.00    +0.000 OA
ATOM     10  N   UNL     1      28.577  -9.613  22.051  0.00  0.00    +0.000 NA
ENDBRANCH   1  10
BRANCH   4  11
ATOM     11  N   UNL     1      23.779  -7.745  24.328  0.00  0.00    +0.000 NA
ATOM     12  C   UNL     1      22.807  -8.432  24.766  0.00  0.00    +0.000 C 
BRANCH  12  13
ATOM     13  C   UNL     1      21.588  -7.862  25.331  0.00  0.00    +0.000 A 
ATOM     14  C   UNL     1      20.742  -8.681  26.051  0.00  0.00    +0.000 A 
ATOM     15  C   UNL     1      19.577  -8.164  26.598  0.00  0.00    +0.000 A 
ATOM     16  C   UNL     1      19.209  -6.841  26.458  0.00  0.00    +0.000 A 
ATOM     17  C   UNL     1      17.959  -6.294  27.048  0.00  0.00    +0.000 C 
ATOM     18  C   UNL     1      20.071  -6.039  25.734  0.00  0.00    +0.000 A 
ATOM     19  C   UNL     1      21.232  -6.539  25.184  0.00  0.00    +0.000 A 
ENDBRANCH  12  13
ENDBRANCH   4  11
TORSDOF 3
ENDMDL
MODEL 9
REMARK VINA RESULT:      -5.5     30.357     31.604
REMARK  Name = 
REMARK  3 active torsions:
REMARK  status: ('A' for Active; 'I' for Inactive)
REMARK    1  A    between atoms: N_4  and  C_5
REMARK    2  A    between atoms: C_8  and  N_9
REMARK    3  A    between atoms: C_10  and  C_11
REMARK                            x       y       z     vdW  Elec       q    Type
REMARK                         _______ _______ _______ _____ _____    ______ ____
ROOT
ATOM      1  C   UNL     1      36.122  20.702  10.308  0.00  0.00    +0.000 A 
ATOM      2  C   UNL     1      35.503  21.628   9.488  0.00  0.00    +0.000 A 
ATOM      3  C   UNL     1      34.235  22.112   9.764  0.00  0.00    +0.000 A 
ATOM      4  C   UNL     1      33.573  21.656  10.892  0.00  0.00    +0.000 A 
ATOM      5  C   UNL     1      34.160  20.744  11.719  0.00  0.00    +0.000 A 
ATOM      6  C   UNL     1      35.435  20.279  11.411  0.00  0.00    +0.000 A 
ENDROOT
BRANCH   1  10
ATOM      7  C   UNL     1      39.055  18.621   8.854  0.00  0.00    +0.000 C 
ATOM      8  C   UNL     1      37.690  19.088   9.226  0.00  0.00    +0.000 C 
ATOM      9  O   UNL     1      36.722  18.373   8.851  0.00  0.00    +0.000 OA
ATOM     10  N   UNL     1      37.424  20.256   9.954  0.00  0.00    +0.000 NA
ENDBRANCH   1  10
BRANCH   4  11
ATOM     11  N   UNL     1      32.269  22.197  11.118  0.00  0.00    +0.000 NA
ATOM     12  C   UNL     1      31.429  21.725  11.942  0.00  0.00    +0.000 C 
BRANCH  12  13
ATOM     13  C   UNL     1      30.099  22.281  12.169  0.00  0.00    +0.000 A 
ATOM     14  C   UNL     1      29.117  22.063  11.225  0.00  0.00    +0.000 A 
ATOM     15  C   UNL     1      27.844  22.581  11.417  0.00  0.00    +0.000 A 
ATOM     16  C   UNL     1      27.500  23.322  12.529  0.00  0.00    +0.000 A 
ATOM     17  C   UNL     1      26.133  23.873  12.728  0.00  0.00    +0.000 C 
ATOM     18  C   UNL     1      28.498  23.527  13.462  0.00  0.00    +0.000 A 
ATOM     19  C   UNL     1      29.767  23.018  13.285  0.00  0.00    +0.000 A 
ENDBRANCH  12  13
ENDBRANCH   4  11
TORSDOF 3
ENDMDL
MODEL 10
REMARK VINA RESULT:      -5.5     15.578     17.085
REMARK  Name = 
REMARK  3 active torsions:
REMARK  status: ('A' for Active; 'I' for Inactive)
REMARK    1  A    between atoms: N_4  and  C_5
REMARK    2  A    between atoms: C_8  and  N_9
REMARK    3  A    between atoms: C_10  and  C_11
REMARK                            x       y       z     vdW  Elec       q    Type
REMARK                         _______ _______ _______ _____ _____    ______ ____
ROOT
ATOM      1  C   UNL     1      34.386   4.342  35.197  0.00  0.00    +0.000 A 
ATOM      2  C   UNL     1      33.401   5.293  35.385  0.00  0.00    +0.000 A 
ATOM      3  C   UNL     1      33.709   6.625  35.606  0.00  0.00    +0.000 A 
ATOM      4  C   UNL     1      35.039   7.011  35.637  0.00  0.00    +0.000 A 
ATOM      5  C   UNL     1      36.031   6.094  35.454  0.00  0.00    +0.000 A 
ATOM      6  C   UNL     1      35.685   4.763  35.235  0.00  0.00    +0.000 A 
ENDROOT
BRANCH   1  10
ATOM      7  C   UNL     1      33.242   1.051  33.489  0.00  0.00    +0.000 C 
ATOM      8  C   UNL     1      33.662   2.462  33.720  0.00  0.00    +0.000 C 
ATOM      9  O   UNL     1      33.724   3.210  32.709  0.00  0.00    +0.000 OA
ATOM     10  N   UNL     1      33.986   2.996  34.976  0.00  0.00    +0.000 NA
ENDBRANCH   1  10
BRANCH   4  11
ATOM     11  N   UNL     1      35.286   8.400  35.869  0.00  0.00    +0.000 NA
ATOM     12  C   UNL     1      34.412   9.228  36.265  0.00  0.00    +0.000 C 
BRANCH  12  13
ATOM     13  C   UNL     1      34.670  10.645  36.500  0.00  0.00    +0.000 A 
ATOM     14  C   UNL     1      33.619  11.536  36.418  0.00  0.00    +0.000 A 
ATOM     15  C   UNL     1      33.838  12.888  36.637  0.00  0.00    +0.000 A 
ATOM     16  C   UNL     1      35.082  13.403  36.939  0.00  0.00    +0.000 A 
ATOM     17  C   UNL     1      35.309  14.854  37.172  0.00  0.00    +0.000 C 
ATOM     18  C   UNL     1      36.120  12.494  37.016  0.00  0.00    +0.000 A 
ATOM     19  C   UNL     1      35.918  11.148  36.801  0.00  0.00    +0.000 A 
ENDBRANCH  12  13
ENDBRANCH   4  11
TORSDOF 3
ENDMDL
