MODEL 1
REMARK VINA RESULT:      -6.5      0.000      0.000
REMARK  Name = 
REMARK  6 active torsions:
REMARK  status: ('A' for Active; 'I' for Inactive)
REMARK    1  A    between atoms: C_2  and  C_3
REMARK    2  A    between atoms: C_2  and  N_13
REMARK    3  A    between atoms: C_3  and  C_4
REMARK    4  A    between atoms: C_14  and  O_16
REMARK    5  A    between atoms: O_16  and  C_17
REMARK    6  A    between atoms: C_17  and  C_18
REMARK                            x       y       z     vdW  Elec       q    Type
REMARK                         _______ _______ _______ _____ _____    ______ ____
ROOT
ATOM      1  C   UNL     1      15.350  12.350  35.570  0.00  0.00    +0.000 C 
ENDROOT
BRANCH   1   2
ATOM      2  C   UNL     1      15.468  11.896  34.184  0.00  0.00    +0.000 A 
ATOM      3  C   UNL     1      16.177  10.752  33.780  0.00  0.00    +0.000 A 
ATOM      4  N   UNL     1      16.039  10.630  32.461  0.00  0.00    +0.000 NA
ATOM      5  C   UNL     1      15.283  11.630  32.001  0.00  0.00    +0.000 A 
ATOM      6  C   UNL     1      14.837  12.005  30.747  0.00  0.00    +0.000 A 
ATOM      7  C   UNL     1      14.069  13.102  30.498  0.00  0.00    +0.000 A 
ATOM      8  C   UNL     1      13.703  13.906  31.563  0.00  0.00    +0.000 A 
ATOM      9  C   UNL     1      14.117  13.575  32.808  0.00  0.00    +0.000 A 
ATOM     10  C   UNL     1      14.899  12.456  33.064  0.00  0.00    +0.000 A 
ENDBRANCH   1   2
BRANCH   1  12
ATOM     11  C   UNL     1      14.884  11.419  37.755  0.00  0.00    +0.000 C 
ATOM     12  C   UNL     1      15.812  11.054  36.452  0.00  0.00    +0.000 C 
BRANCH  12  13
ATOM     13  N   UNL     1      17.101  11.749  37.038  0.00  0.00    +0.000 NA
ATOM     14  C   UNL     1      18.144  10.819  37.299  0.00  0.00    +0.000 C 
ATOM     15  O   UNL     1      17.955   9.612  37.051  0.00  0.00    +0.000 OA
BRANCH  14  16
ATOM     16  O   UNL     1      19.355  11.230  37.818  0.00  0.00    +0.000 OA
BRANCH  16  17
ATOM     17  C   UNL     1      20.474  10.538  38.141  0.00  0.00    +0.000 C 
BRANCH  17  18
ATOM     18  C   UNL     1      21.784  10.939  37.624  0.00  0.00    +0.000 C 
ATOM     19 CL   UNL     1      22.315  10.066  36.194  0.00  0.00    +0.000 Cl
ENDBRANCH  17  18
ENDBRANCH  16  17
ENDBRANCH  14  16
ENDBRANCH  12  13
ENDBRANCH   1  12
TORSDOF 6
ENDMDL
MODEL 2
REMARK VINA RESULT:      -6.0      2.041      2.617
REMARK  Name = 
REMARK  6 active torsions:
REMARK  status: ('A' for Active; 'I' for Inactive)
REMARK    1  A    between atoms: C_2  and  C_3
REMARK    2  A    between atoms: C_2  and  N_13
REMARK    3  A    between atoms: C_3  and  C_4
REMARK    4  A    between atoms: C_14  and  O_16
REMARK    5  A    between atoms: O_16  and  C_17
REMARK    6  A    between atoms: C_17  and  C_18
REMARK                            x       y       z     vdW  Elec       q    Type
REMARK                         _______ _______ _______ _____ _____    ______ ____
ROOT
ATOM      1  C   UNL     1      14.982  13.036  35.803  0.00  0.00    +0.000 C 
ENDROOT
BRANCH   1   2
ATOM      2  C   UNL     1      14.399  13.421  34.518  0.00  0.00    +0.000 A 
ATOM      3  C   UNL     1      13.477  14.467  34.346  0.00  0.00    +0.000 A 
ATOM      4  N   UNL     1      13.193  14.553  33.047  0.00  0.00    +0.000 NA
ATOM      5  C   UNL     1      13.881  13.622  32.381  0.00  0.00    +0.000 A 
ATOM      6  C   UNL     1      13.964  13.249  31.053  0.00  0.00    +0.000 A 
ATOM      7  C   UNL     1      14.739  12.230  30.585  0.00  0.00    +0.000 A 
ATOM      8  C   UNL     1      15.499  11.511  31.490  0.00  0.00    +0.000 A 
ATOM      9  C   UNL     1      15.449  11.843  32.800  0.00  0.00    +0.000 A 
ATOM     10  C   UNL     1      14.660  12.882  33.280  0.00  0.00    +0.000 A 
ENDBRANCH   1   2
BRANCH   1  12
ATOM     11  C   UNL     1      13.012  12.111  36.861  0.00  0.00    +0.000 C 
ATOM     12  C   UNL     1      14.353  11.556  36.096  0.00  0.00    +0.000 C 
BRANCH  12  13
ATOM     13  N   UNL     1      15.159  11.335  37.434  0.00  0.00    +0.000 NA
ATOM     14  C   UNL     1      16.377  10.634  37.220  0.00  0.00    +0.000 C 
ATOM     15  O   UNL     1      16.679  10.284  36.063  0.00  0.00    +0.000 OA
BRANCH  14  16
ATOM     16  O   UNL     1      17.225  10.340  38.269  0.00  0.00    +0.000 OA
BRANCH  16  17
ATOM     17  C   UNL     1      18.113   9.332  38.448  0.00  0.00    +0.000 C 
BRANCH  17  18
ATOM     18  C   UNL     1      19.546   9.605  38.571  0.00  0.00    +0.000 C 
ATOM     19 CL   UNL     1      20.366   8.702  39.837  0.00  0.00    +0.000 Cl
ENDBRANCH  17  18
ENDBRANCH  16  17
ENDBRANCH  14  16
ENDBRANCH  12  13
ENDBRANCH   1  12
TORSDOF 6
ENDMDL
MODEL 3
REMARK VINA RESULT:      -5.7      3.051      7.688
REMARK  Name = 
REMARK  6 active torsions:
REMARK  status: ('A' for Active; 'I' for Inactive)
REMARK    1  A    between atoms: C_2  and  C_3
REMARK    2  A    between atoms: C_2  and  N_13
REMARK    3  A    between atoms: C_3  and  C_4
REMARK    4  A    between atoms: C_14  and  O_16
REMARK    5  A    between atoms: O_16  and  C_17
REMARK    6  A    between atoms: C_17  and  C_18
REMARK                            x       y       z     vdW  Elec       q    Type
REMARK                         _______ _______ _______ _____ _____    ______ ____
ROOT
ATOM      1  C   UNL     1      19.494   9.815  37.442  0.00  0.00    +0.000 C 
ENDROOT
BRANCH   1   2
ATOM      2  C   UNL     1      20.677  10.656  37.621  0.00  0.00    +0.000 A 
ATOM      3  C   UNL     1      20.691  11.867  38.334  0.00  0.00    +0.000 A 
ATOM      4  N   UNL     1      21.937  12.336  38.319  0.00  0.00    +0.000 NA
ATOM      5  C   UNL     1      22.719  11.495  37.638  0.00  0.00    +0.000 A 
ATOM      6  C   UNL     1      24.059  11.484  37.298  0.00  0.00    +0.000 A 
ATOM      7  C   UNL     1      24.660  10.508  36.561  0.00  0.00    +0.000 A 
ATOM      8  C   UNL     1      23.887   9.449  36.116  0.00  0.00    +0.000 A 
ATOM      9  C   UNL     1      22.571   9.420  36.427  0.00  0.00    +0.000 A 
ATOM     10  C   UNL     1      21.957  10.414  37.178  0.00  0.00    +0.000 A 
ENDBRANCH   1   2
BRANCH   1  12
ATOM     11  C   UNL     1      17.654   9.671  39.008  0.00  0.00    +0.000 C 
ATOM     12  C   UNL     1      18.257  10.759  37.939  0.00  0.00    +0.000 C 
BRANCH  12  13
ATOM     13  N   UNL     1      17.285  10.322  36.776  0.00  0.00    +0.000 NA
ATOM     14  C   UNL     1      16.864  11.422  35.982  0.00  0.00    +0.000 C 
ATOM     15  O   UNL     1      17.281  12.563  36.259  0.00  0.00    +0.000 OA
BRANCH  14  16
ATOM     16  O   UNL     1      16.007  11.246  34.914  0.00  0.00    +0.000 OA
BRANCH  16  17
ATOM     17  C   UNL     1      16.172  11.461  33.586  0.00  0.00    +0.000 C 
BRANCH  17  18
ATOM     18  C   UNL     1      15.106  11.148  32.634  0.00  0.00    +0.000 C 
ATOM     19 CL   UNL     1      14.464  12.532  31.759  0.00  0.00    +0.000 Cl
ENDBRANCH  17  18
ENDBRANCH  16  17
ENDBRANCH  14  16
ENDBRANCH  12  13
ENDBRANCH   1  12
TORSDOF 6
ENDMDL
MODEL 4
REMARK VINA RESULT:      -5.6      3.557      7.096
REMARK  Name = 
REMARK  6 active torsions:
REMARK  status: ('A' for Active; 'I' for Inactive)
REMARK    1  A    between atoms: C_2  and  C_3
REMARK    2  A    between atoms: C_2  and  N_13
REMARK    3  A    between atoms: C_3  and  C_4
REMARK    4  A    between atoms: C_14  and  O_16
REMARK    5  A    between atoms: O_16  and  C_17
REMARK    6  A    between atoms: C_17  and  C_18
REMARK                            x       y       z     vdW  Elec       q    Type
REMARK                         _______ _______ _______ _____ _____    ______ ____
ROOT
ATOM      1  C   UNL     1      17.559  11.561  36.338  0.00  0.00    +0.000 C 
ENDROOT
BRANCH   1   2
ATOM      2  C   UNL     1      17.547  10.800  37.587  0.00  0.00    +0.000 A 
ATOM      3  C   UNL     1      18.680  10.199  38.162  0.00  0.00    +0.000 A 
ATOM      4  N   UNL     1      18.304   9.627  39.304  0.00  0.00    +0.000 NA
ATOM      5  C   UNL     1      16.997   9.828  39.491  0.00  0.00    +0.000 A 
ATOM      6  C   UNL     1      16.093   9.457  40.469  0.00  0.00    +0.000 A 
ATOM      7  C   UNL     1      14.766   9.764  40.449  0.00  0.00    +0.000 A 
ATOM      8  C   UNL     1      14.275  10.497  39.383  0.00  0.00    +0.000 A 
ATOM      9  C   UNL     1      15.125  10.882  38.404  0.00  0.00    +0.000 A 
ATOM     10  C   UNL     1      16.479  10.570  38.422  0.00  0.00    +0.000 A 
ENDBRANCH   1   2
BRANCH   1  12
ATOM     11  C   UNL     1      18.037   9.635  34.952  0.00  0.00    +0.000 C 
ATOM     12  C   UNL     1      16.756  10.606  35.283  0.00  0.00    +0.000 C 
BRANCH  12  13
ATOM     13  N   UNL     1      17.005  11.544  34.041  0.00  0.00    +0.000 NA
ATOM     14  C   UNL     1      15.968  11.446  33.074  0.00  0.00    +0.000 C 
ATOM     15  O   UNL     1      15.013  10.675  33.287  0.00  0.00    +0.000 OA
BRANCH  14  16
ATOM     16  O   UNL     1      16.004  12.189  31.911  0.00  0.00    +0.000 OA
BRANCH  16  17
ATOM     17  C   UNL     1      15.079  12.377  30.938  0.00  0.00    +0.000 C 
BRANCH  17  18
ATOM     18  C   UNL     1      13.852  13.130  31.202  0.00  0.00    +0.000 C 
ATOM     19 CL   UNL     1      14.089  14.840  31.537  0.00  0.00    +0.000 Cl
ENDBRANCH  17  18
ENDBRANCH  16  17
ENDBRANCH  14  16
ENDBRANCH  12  13
ENDBRANCH   1  12
TORSDOF 6
ENDMDL
MODEL 5
REMARK VINA RESULT:      -5.6      3.197      4.268
REMARK  Name = 
REMARK  6 active torsions:
REMARK  status: ('A' for Active; 'I' for Inactive)
REMARK    1  A    between atoms: C_2  and  C_3
REMARK    2  A    between atoms: C_2  and  N_13
REMARK    3  A    between atoms: C_3  and  C_4
REMARK    4  A    between atoms: C_14  and  O_16
REMARK    5  A    between atoms: O_16  and  C_17
REMARK    6  A    between atoms: C_17  and  C_18
REMARK                            x       y       z     vdW  Elec       q    Type
REMARK                         _______ _______ _______ _____ _____    ______ ____
ROOT
ATOM      1  C   UNL     1      17.984   9.427  35.789  0.00  0.00    +0.000 C 
ENDROOT
BRANCH   1   2
ATOM      2  C   UNL     1      16.936  10.382  35.429  0.00  0.00    +0.000 A 
ATOM      3  C   UNL     1      16.203  11.144  36.355  0.00  0.00    +0.000 A 
ATOM      4  N   UNL     1      15.368  11.924  35.672  0.00  0.00    +0.000 NA
ATOM      5  C   UNL     1      15.524  11.704  34.364  0.00  0.00    +0.000 A 
ATOM      6  C   UNL     1      14.928  12.205  33.222  0.00  0.00    +0.000 A 
ATOM      7  C   UNL     1      15.239  11.814  31.955  0.00  0.00    +0.000 A 
ATOM      8  C   UNL     1      16.217  10.850  31.784  0.00  0.00    +0.000 A 
ATOM      9  C   UNL     1      16.827  10.333  32.874  0.00  0.00    +0.000 A 
ATOM     10  C   UNL     1      16.513  10.731  34.168  0.00  0.00    +0.000 A 
ENDBRANCH   1   2
BRANCH   1  12
ATOM     11  C   UNL     1      20.241   9.767  36.594  0.00  0.00    +0.000 C 
ATOM     12  C   UNL     1      18.713  10.107  37.084  0.00  0.00    +0.000 C 
BRANCH  12  13
ATOM     13  N   UNL     1      18.598   8.820  37.989  0.00  0.00    +0.000 NA
ATOM     14  C   UNL     1      18.016   9.101  39.255  0.00  0.00    +0.000 C 
ATOM     15  O   UNL     1      17.668  10.268  39.516  0.00  0.00    +0.000 OA
BRANCH  14  16
ATOM     16  O   UNL     1      17.832   8.105  40.192  0.00  0.00    +0.000 OA
BRANCH  16  17
ATOM     17  C   UNL     1      16.779   7.811  40.994  0.00  0.00    +0.000 C 
BRANCH  17  18
ATOM     18  C   UNL     1      16.799   8.153  42.417  0.00  0.00    +0.000 C 
ATOM     19 CL   UNL     1      16.444   9.836  42.780  0.00  0.00    +0.000 Cl
ENDBRANCH  17  18
ENDBRANCH  16  17
ENDBRANCH  14  16
ENDBRANCH  12  13
ENDBRANCH   1  12
TORSDOF 6
ENDMDL
MODEL 6
REMARK VINA RESULT:      -5.6     28.539     30.379
REMARK  Name = 
REMARK  6 active torsions:
REMARK  status: ('A' for Active; 'I' for Inactive)
REMARK    1  A    between atoms: C_2  and  C_3
REMARK    2  A    between atoms: C_2  and  N_13
REMARK    3  A    between atoms: C_3  and  C_4
REMARK    4  A    between atoms: C_14  and  O_16
REMARK    5  A    between atoms: O_16  and  C_17
REMARK    6  A    between atoms: C_17  and  C_18
REMARK                            x       y       z     vdW  Elec       q    Type
REMARK                         _______ _______ _______ _____ _____    ______ ____
ROOT
ATOM      1  C   UNL     1      31.679  21.946  12.306  0.00  0.00    +0.000 C 
ENDROOT
BRANCH   1   2
ATOM      2  C   UNL     1      30.277  22.081  11.910  0.00  0.00    +0.000 A 
ATOM      3  C   UNL     1      29.705  21.459  10.788  0.00  0.00    +0.000 A 
ATOM      4  N   UNL     1      28.412  21.776  10.759  0.00  0.00    +0.000 NA
ATOM      5  C   UNL     1      28.126  22.565  11.799  0.00  0.00    +0.000 A 
ATOM      6  C   UNL     1      26.979  23.191  12.248  0.00  0.00    +0.000 A 
ATOM      7  C   UNL     1      26.917  23.986  13.354  0.00  0.00    +0.000 A 
ATOM      8  C   UNL     1      28.074  24.188  14.085  0.00  0.00    +0.000 A 
ATOM      9  C   UNL     1      29.219  23.593  13.681  0.00  0.00    +0.000 A 
ATOM     10  C   UNL     1      29.284  22.782  12.555  0.00  0.00    +0.000 A 
ENDBRANCH   1   2
BRANCH   1  12
ATOM     11  C   UNL     1      33.598  20.514  11.950  0.00  0.00    +0.000 C 
ATOM     12  C   UNL     1      32.366  21.137  11.064  0.00  0.00    +0.000 C 
BRANCH  12  13
ATOM     13  N   UNL     1      33.208  22.370  10.556  0.00  0.00    +0.000 NA
ATOM     14  C   UNL     1      33.076  22.574   9.155  0.00  0.00    +0.000 C 
ATOM     15  O   UNL     1      32.346  21.807   8.498  0.00  0.00    +0.000 OA
BRANCH  14  16
ATOM     16  O   UNL     1      33.739  23.603   8.518  0.00  0.00    +0.000 OA
BRANCH  16  17
ATOM     17  C   UNL     1      35.000  23.692   8.031  0.00  0.00    +0.000 C 
BRANCH  17  18
ATOM     18  C   UNL     1      36.132  23.966   8.917  0.00  0.00    +0.000 C 
ATOM     19 CL   UNL     1      35.806  25.122  10.200  0.00  0.00    +0.000 Cl
ENDBRANCH  17  18
ENDBRANCH  16  17
ENDBRANCH  14  16
ENDBRANCH  12  13
ENDBRANCH   1  12
TORSDOF 6
ENDMDL
MODEL 7
REMARK VINA RESULT:      -5.6     17.897     18.929
REMARK  Name = 
REMARK  6 active torsions:
REMARK  status: ('A' for Active; 'I' for Inactive)
REMARK    1  A    between atoms: C_2  and  C_3
REMARK    2  A    between atoms: C_2  and  N_13
REMARK    3  A    between atoms: C_3  and  C_4
REMARK    4  A    between atoms: C_14  and  O_16
REMARK    5  A    between atoms: O_16  and  C_17
REMARK    6  A    between atoms: C_17  and  C_18
REMARK                            x       y       z     vdW  Elec       q    Type
REMARK                         _______ _______ _______ _____ _____    ______ ____
ROOT
ATOM      1  C   UNL     1      30.375  21.913  27.017  0.00  0.00    +0.000 C 
ENDROOT
BRANCH   1   2
ATOM      2  C   UNL     1      29.930  22.455  25.733  0.00  0.00    +0.000 A 
ATOM      3  C   UNL     1      30.788  22.788  24.671  0.00  0.00    +0.000 A 
ATOM      4  N   UNL     1      30.037  23.216  23.658  0.00  0.00    +0.000 NA
ATOM      5  C   UNL     1      28.750  23.176  24.012  0.00  0.00    +0.000 A 
ATOM      6  C   UNL     1      27.564  23.508  23.384  0.00  0.00    +0.000 A 
ATOM      7  C   UNL     1      26.332  23.400  23.955  0.00  0.00    +0.000 A 
ATOM      8  C   UNL     1      26.246  22.927  25.253  0.00  0.00    +0.000 A 
ATOM      9  C   UNL     1      27.382  22.589  25.905  0.00  0.00    +0.000 A 
ATOM     10  C   UNL     1      28.640  22.697  25.324  0.00  0.00    +0.000 A 
ENDBRANCH   1   2
BRANCH   1  12
ATOM     11  C   UNL     1      31.919  22.330  28.834  0.00  0.00    +0.000 C 
ATOM     12  C   UNL     1      30.991  23.206  27.803  0.00  0.00    +0.000 C 
BRANCH  12  13
ATOM     13  N   UNL     1      29.788  23.329  28.814  0.00  0.00    +0.000 NA
ATOM     14  C   UNL     1      29.069  24.544  28.653  0.00  0.00    +0.000 C 
ATOM     15  O   UNL     1      29.433  25.351  27.776  0.00  0.00    +0.000 OA
BRANCH  14  16
ATOM     16  O   UNL     1      27.980  24.841  29.448  0.00  0.00    +0.000 OA
BRANCH  16  17
ATOM     17  C   UNL     1      27.417  24.172  30.483  0.00  0.00    +0.000 C 
BRANCH  17  18
ATOM     18  C   UNL     1      26.311  23.239  30.264  0.00  0.00    +0.000 C 
ATOM     19 CL   UNL     1      26.777  21.546  30.167  0.00  0.00    +0.000 Cl
ENDBRANCH  17  18
ENDBRANCH  16  17
ENDBRANCH  14  16
ENDBRANCH  12  13
ENDBRANCH   1  12
TORSDOF 6
ENDMDL
MODEL 8
REMARK VINA RESULT:      -5.5     18.579     19.491
REMARK  Name = 
REMARK  6 active torsions:
REMARK  status: ('A' for Active; 'I' for Inactive)
REMARK    1  A    between atoms: C_2  and  C_3
REMARK    2  A    between atoms: C_2  and  N_13
REMARK    3  A    between atoms: C_3  and  C_4
REMARK    4  A    between atoms: C_14  and  O_16
REMARK    5  A    between atoms: O_16  and  C_17
REMARK    6  A    between atoms: C_17  and  C_18
REMARK                            x       y       z     vdW  Elec       q    Type
REMARK                         _______ _______ _______ _____ _____    ______ ____
ROOT
ATOM      1  C   UNL     1      25.766  25.068  25.729  0.00  0.00    +0.000 C 
ENDROOT
BRANCH   1   2
ATOM      2  C   UNL     1      26.202  24.407  24.499  0.00  0.00    +0.000 A 
ATOM      3  C   UNL     1      25.494  23.377  23.856  0.00  0.00    +0.000 A 
ATOM      4  N   UNL     1      26.165  23.045  22.755  0.00  0.00    +0.000 NA
ATOM      5  C   UNL     1      27.260  23.804  22.657  0.00  0.00    +0.000 A 
ATOM      6  C   UNL     1      28.302  23.882  21.753  0.00  0.00    +0.000 A 
ATOM      7  C   UNL     1      29.354  24.742  21.861  0.00  0.00    +0.000 A 
ATOM      8  C   UNL     1      29.394  25.601  22.946  0.00  0.00    +0.000 A 
ATOM      9  C   UNL     1      28.393  25.558  23.855  0.00  0.00    +0.000 A 
ATOM     10  C   UNL     1      27.319  24.683  23.746  0.00  0.00    +0.000 A 
ENDBRANCH   1   2
BRANCH   1  12
ATOM     11  C   UNL     1      25.206  24.785  28.067  0.00  0.00    +0.000 C 
ATOM     12  C   UNL     1      25.927  23.915  26.876  0.00  0.00    +0.000 C 
BRANCH  12  13
ATOM     13  N   UNL     1      27.385  24.347  27.292  0.00  0.00    +0.000 NA
ATOM     14  C   UNL     1      28.300  23.260  27.260  0.00  0.00    +0.000 C 
ATOM     15  O   UNL     1      27.888  22.133  26.923  0.00  0.00    +0.000 OA
BRANCH  14  16
ATOM     16  O   UNL     1      29.628  23.433  27.594  0.00  0.00    +0.000 OA
BRANCH  16  17
ATOM     17  C   UNL     1      30.757  22.868  27.103  0.00  0.00    +0.000 C 
BRANCH  17  18
ATOM     18  C   UNL     1      31.240  23.192  25.760  0.00  0.00    +0.000 C 
ATOM     19 CL   UNL     1      30.378  22.396  24.451  0.00  0.00    +0.000 Cl
ENDBRANCH  17  18
ENDBRANCH  16  17
ENDBRANCH  14  16
ENDBRANCH  12  13
ENDBRANCH   1  12
TORSDOF 6
ENDMDL
MODEL 9
REMARK VINA RESULT:      -5.5      3.633      7.088
REMARK  Name = 
REMARK  6 active torsions:
REMARK  status: ('A' for Active; 'I' for Inactive)
REMARK    1  A    between atoms: C_2  and  C_3
REMARK    2  A    between atoms: C_2  and  N_13
REMARK    3  A    between atoms: C_3  and  C_4
REMARK    4  A    between atoms: C_14  and  O_16
REMARK    5  A    between atoms: O_16  and  C_17
REMARK    6  A    between atoms: C_17  and  C_18
REMARK                            x       y       z     vdW  Elec       q    Type
REMARK                         _______ _______ _______ _____ _____    ______ ____
ROOT
ATOM      1  C   UNL     1      17.366  10.762  34.137  0.00  0.00    +0.000 C 
ENDROOT
BRANCH   1   2
ATOM      2  C   UNL     1      16.773  10.874  35.470  0.00  0.00    +0.000 A 
ATOM      3  C   UNL     1      15.592  11.579  35.757  0.00  0.00    +0.000 A 
ATOM      4  N   UNL     1      15.336  11.437  37.056  0.00  0.00    +0.000 NA
ATOM      5  C   UNL     1      16.286  10.681  37.615  0.00  0.00    +0.000 A 
ATOM      6  C   UNL     1      16.532  10.233  38.899  0.00  0.00    +0.000 A 
ATOM      7  C   UNL     1      17.601   9.467  39.256  0.00  0.00    +0.000 A 
ATOM      8  C   UNL     1      18.510   9.106  38.277  0.00  0.00    +0.000 A 
ATOM      9  C   UNL     1      18.307   9.523  37.007  0.00  0.00    +0.000 A 
ATOM     10  C   UNL     1      17.217  10.303  36.640  0.00  0.00    +0.000 A 
ENDBRANCH   1   2
BRANCH   1  12
ATOM     11  C   UNL     1      16.958   9.821  31.945  0.00  0.00    +0.000 C 
ATOM     12  C   UNL     1      16.086  10.508  33.153  0.00  0.00    +0.000 C 
BRANCH  12  13
ATOM     13  N   UNL     1      16.126  11.948  32.513  0.00  0.00    +0.000 NA
ATOM     14  C   UNL     1      14.986  12.212  31.707  0.00  0.00    +0.000 C 
ATOM     15  O   UNL     1      14.110  11.333  31.590  0.00  0.00    +0.000 OA
BRANCH  14  16
ATOM     16  O   UNL     1      14.835  13.420  31.056  0.00  0.00    +0.000 OA
BRANCH  16  17
ATOM     17  C   UNL     1      14.307  14.600  31.465  0.00  0.00    +0.000 C 
BRANCH  17  18
ATOM     18  C   UNL     1      13.269  14.643  32.495  0.00  0.00    +0.000 C 
ATOM     19 CL   UNL     1      13.794  14.148  34.098  0.00  0.00    +0.000 Cl
ENDBRANCH  17  18
ENDBRANCH  16  17
ENDBRANCH  14  16
ENDBRANCH  12  13
ENDBRANCH   1  12
TORSDOF 6
ENDMDL
MODEL 10
REMARK VINA RESULT:      -5.5     19.239     20.603
REMARK  Name = 
REMARK  6 active torsions:
REMARK  status: ('A' for Active; 'I' for Inactive)
REMARK    1  A    between atoms: C_2  and  C_3
REMARK    2  A    between atoms: C_2  and  N_13
REMARK    3  A    between atoms: C_3  and  C_4
REMARK    4  A    between atoms: C_14  and  O_16
REMARK    5  A    between atoms: O_16  and  C_17
REMARK    6  A    between atoms: C_17  and  C_18
REMARK                            x       y       z     vdW  Elec       q    Type
REMARK                         _______ _______ _______ _____ _____    ______ ____
ROOT
ATOM      1  C   UNL     1      29.113  24.296  25.370  0.00  0.00    +0.000 C 
ENDROOT
BRANCH   1   2
ATOM      2  C   UNL     1      27.986  24.009  26.258  0.00  0.00    +0.000 A 
ATOM      3  C   UNL     1      26.635  24.127  25.891  0.00  0.00    +0.000 A 
ATOM      4  N   UNL     1      25.894  23.753  26.931  0.00  0.00    +0.000 NA
ATOM      5  C   UNL     1      26.694  23.402  27.942  0.00  0.00    +0.000 A 
ATOM      6  C   UNL     1      26.480  22.960  29.234  0.00  0.00    +0.000 A 
ATOM      7  C   UNL     1      27.471  22.670  30.124  0.00  0.00    +0.000 A 
ATOM      8  C   UNL     1      28.785  22.825  29.720  0.00  0.00    +0.000 A 
ATOM      9  C   UNL     1      29.040  23.255  28.463  0.00  0.00    +0.000 A 
ATOM     10  C   UNL     1      28.032  23.550  27.554  0.00  0.00    +0.000 A 
ENDBRANCH   1   2
BRANCH   1  12
ATOM     11  C   UNL     1      30.533  22.378  24.962  0.00  0.00    +0.000 C 
ATOM     12  C   UNL     1      29.151  23.019  24.351  0.00  0.00    +0.000 C 
BRANCH  12  13
ATOM     13  N   UNL     1      29.891  23.796  23.196  0.00  0.00    +0.000 NA
ATOM     14  C   UNL     1      29.094  23.910  22.025  0.00  0.00    +0.000 C 
ATOM     15  O   UNL     1      27.949  23.417  22.022  0.00  0.00    +0.000 OA
BRANCH  14  16
ATOM     16  O   UNL     1      29.566  24.555  20.900  0.00  0.00    +0.000 OA
BRANCH  16  17
ATOM     17  C   UNL     1      29.458  25.844  20.493  0.00  0.00    +0.000 C 
BRANCH  17  18
ATOM     18  C   UNL     1      28.593  26.787  21.202  0.00  0.00    +0.000 C 
ATOM     19 CL   UNL     1      29.221  27.355  22.743  0.00  0.00    +0.000 Cl
ENDBRANCH  17  18
ENDBRANCH  16  17
ENDBRANCH  14  16
ENDBRANCH  12  13
ENDBRANCH   1  12
TORSDOF 6
ENDMDL
