MODEL 1
REMARK VINA RESULT:      -6.9      0.000      0.000
REMARK  Name = 
REMARK  3 active torsions:
REMARK  status: ('A' for Active; 'I' for Inactive)
REMARK    1  A    between atoms: C_7  and  N_8
REMARK    2  A    between atoms: N_8  and  N_9
REMARK    3  A    between atoms: C_10  and  C_12
REMARK                            x       y       z     vdW  Elec       q    Type
REMARK                         _______ _______ _______ _____ _____    ______ ____
ROOT
ATOM      1  N   UNL     1      15.527  11.579  35.143  0.00  0.00    +0.000 NA
ATOM      2  C   UNL     1      16.323  11.998  36.243  0.00  0.00    +0.000 C 
ATOM      3  O   UNL     1      16.403  13.231  36.441  0.00  0.00    +0.000 OA
ENDROOT
BRANCH   2   4
ATOM      4  C   UNL     1      17.002  11.018  37.086  0.00  0.00    +0.000 A 
ATOM      5  C   UNL     1      16.491  10.705  38.337  0.00  0.00    +0.000 A 
ATOM      6  C   UNL     1      17.128   9.775  39.151  0.00  0.00    +0.000 A 
ATOM      7  C   UNL     1      18.282   9.127  38.760  0.00  0.00    +0.000 A 
ATOM      8 BR   UNL     1      19.127   7.854  39.917  0.00  0.00    +0.000 Br
ATOM      9  C   UNL     1      18.788   9.438  37.522  0.00  0.00    +0.000 A 
ATOM     10  C   UNL     1      18.151  10.370  36.705  0.00  0.00    +0.000 A 
ENDBRANCH   2   4
BRANCH   1  11
ATOM     11  N   UNL     1      14.867  12.450  34.318  0.00  0.00    +0.000 NA
BRANCH  11  18
ATOM     12  C   UNL     1      16.438  12.807  31.128  0.00  0.00    +0.000 C 
ATOM     13  C   UNL     1      15.992  11.631  32.157  0.00  0.00    +0.000 C 
ATOM     14  C   UNL     1      14.933  10.911  31.165  0.00  0.00    +0.000 C 
ATOM     15  C   UNL     1      14.250  11.859  30.308  0.00  0.00    +0.000 C 
ATOM     16  C   UNL     1      14.108  13.262  30.788  0.00  0.00    +0.000 C 
ATOM     17  C   UNL     1      14.070  13.216  32.272  0.00  0.00    +0.000 C 
ATOM     18  C   UNL     1      14.901  12.494  32.926  0.00  0.00    +0.000 C 
ENDBRANCH  11  18
ENDBRANCH   1  11
TORSDOF 3
ENDMDL
MODEL 2
REMARK VINA RESULT:      -6.7     18.943     20.445
REMARK  Name = 
REMARK  3 active torsions:
REMARK  status: ('A' for Active; 'I' for Inactive)
REMARK    1  A    between atoms: C_7  and  N_8
REMARK    2  A    between atoms: N_8  and  N_9
REMARK    3  A    between atoms: C_10  and  C_12
REMARK                            x       y       z     vdW  Elec       q    Type
REMARK                         _______ _______ _______ _____ _____    ______ ____
ROOT
ATOM      1  N   UNL     1      33.634   3.017  34.296  0.00  0.00    +0.000 NA
ATOM      2  C   UNL     1      33.709   2.001  33.306  0.00  0.00    +0.000 C 
ATOM      3  O   UNL     1      34.012   2.366  32.148  0.00  0.00    +0.000 OA
ENDROOT
BRANCH   2   4
ATOM      4  C   UNL     1      33.442   0.607  33.649  0.00  0.00    +0.000 A 
ATOM      5  C   UNL     1      32.476   0.297  34.595  0.00  0.00    +0.000 A 
ATOM      6  C   UNL     1      32.212  -1.026  34.933  0.00  0.00    +0.000 A 
ATOM      7  C   UNL     1      32.888  -2.080  34.351  0.00  0.00    +0.000 A 
ATOM      8 BR   UNL     1      32.492  -3.888  34.849  0.00  0.00    +0.000 Br
ATOM      9  C   UNL     1      33.844  -1.773  33.414  0.00  0.00    +0.000 A 
ATOM     10  C   UNL     1      34.109  -0.448  33.075  0.00  0.00    +0.000 A 
ENDBRANCH   2   4
BRANCH   1  11
ATOM     11  N   UNL     1      33.873   4.340  34.036  0.00  0.00    +0.000 NA
BRANCH  11  18
ATOM     12  C   UNL     1      35.573   5.454  36.976  0.00  0.00    +0.000 C 
ATOM     13  C   UNL     1      35.898   5.109  35.420  0.00  0.00    +0.000 C 
ATOM     14  C   UNL     1      36.382   6.596  34.999  0.00  0.00    +0.000 C 
ATOM     15  C   UNL     1      35.657   7.631  35.707  0.00  0.00    +0.000 C 
ATOM     16  C   UNL     1      34.284   7.319  36.192  0.00  0.00    +0.000 C 
ATOM     17  C   UNL     1      33.714   6.304  35.271  0.00  0.00    +0.000 C 
ATOM     18  C   UNL     1      34.407   5.293  34.899  0.00  0.00    +0.000 C 
ENDBRANCH  11  18
ENDBRANCH   1  11
TORSDOF 3
ENDMDL
MODEL 3
REMARK VINA RESULT:      -6.3     18.757     20.400
REMARK  Name = 
REMARK  3 active torsions:
REMARK  status: ('A' for Active; 'I' for Inactive)
REMARK    1  A    between atoms: C_7  and  N_8
REMARK    2  A    between atoms: N_8  and  N_9
REMARK    3  A    between atoms: C_10  and  C_12
REMARK                            x       y       z     vdW  Elec       q    Type
REMARK                         _______ _______ _______ _____ _____    ______ ____
ROOT
ATOM      1  N   UNL     1      34.011   3.085  34.415  0.00  0.00    +0.000 NA
ATOM      2  C   UNL     1      33.621   4.440  34.245  0.00  0.00    +0.000 C 
ATOM      3  O   UNL     1      32.616   4.650  33.528  0.00  0.00    +0.000 OA
ENDROOT
BRANCH   2   4
ATOM      4  C   UNL     1      34.371   5.517  34.886  0.00  0.00    +0.000 A 
ATOM      5  C   UNL     1      33.701   6.611  35.415  0.00  0.00    +0.000 A 
ATOM      6  C   UNL     1      34.402   7.644  36.026  0.00  0.00    +0.000 A 
ATOM      7  C   UNL     1      35.777   7.632  36.137  0.00  0.00    +0.000 A 
ATOM      8 BR   UNL     1      36.702   9.080  36.987  0.00  0.00    +0.000 Br
ATOM      9  C   UNL     1      36.440   6.549  35.614  0.00  0.00    +0.000 A 
ATOM     10  C   UNL     1      35.739   5.513  35.000  0.00  0.00    +0.000 A 
ENDBRANCH   2   4
BRANCH   1  11
ATOM     11  N   UNL     1      33.348   2.034  33.840  0.00  0.00    +0.000 NA
BRANCH  11  18
ATOM     12  C   UNL     1      34.636  -0.774  35.639  0.00  0.00    +0.000 C 
ATOM     13  C   UNL     1      33.346   0.216  35.658  0.00  0.00    +0.000 C 
ATOM     14  C   UNL     1      32.235  -0.924  35.365  0.00  0.00    +0.000 C 
ATOM     15  C   UNL     1      32.734  -1.967  34.492  0.00  0.00    +0.000 C 
ATOM     16  C   UNL     1      33.831  -1.623  33.545  0.00  0.00    +0.000 C 
ATOM     17  C   UNL     1      33.695  -0.181  33.220  0.00  0.00    +0.000 C 
ATOM     18  C   UNL     1      33.476   0.680  34.143  0.00  0.00    +0.000 C 
ENDBRANCH  11  18
ENDBRANCH   1  11
TORSDOF 3
ENDMDL
MODEL 4
REMARK VINA RESULT:      -6.2     21.039     23.268
REMARK  Name = 
REMARK  3 active torsions:
REMARK  status: ('A' for Active; 'I' for Inactive)
REMARK    1  A    between atoms: C_7  and  N_8
REMARK    2  A    between atoms: N_8  and  N_9
REMARK    3  A    between atoms: C_10  and  C_12
REMARK                            x       y       z     vdW  Elec       q    Type
REMARK                         _______ _______ _______ _____ _____    ______ ____
ROOT
ATOM      1  N   UNL     1      33.806  -3.464  32.689  0.00  0.00    +0.000 NA
ATOM      2  C   UNL     1      33.357  -2.664  33.775  0.00  0.00    +0.000 C 
ATOM      3  O   UNL     1      32.918  -3.273  34.776  0.00  0.00    +0.000 OA
ENDROOT
BRANCH   2   4
ATOM      4  C   UNL     1      33.417  -1.208  33.701  0.00  0.00    +0.000 A 
ATOM      5  C   UNL     1      32.707  -0.436  34.610  0.00  0.00    +0.000 A 
ATOM      6  C   UNL     1      32.754   0.952  34.551  0.00  0.00    +0.000 A 
ATOM      7  C   UNL     1      33.498   1.621  33.601  0.00  0.00    +0.000 A 
ATOM      8 BR   UNL     1      33.531   3.537  33.556  0.00  0.00    +0.000 Br
ATOM      9  C   UNL     1      34.200   0.858  32.701  0.00  0.00    +0.000 A 
ATOM     10  C   UNL     1      34.154  -0.534  32.759  0.00  0.00    +0.000 A 
ENDBRANCH   2   4
BRANCH   1  11
ATOM     11  N   UNL     1      33.775  -4.832  32.700  0.00  0.00    +0.000 NA
BRANCH  11  18
ATOM     12  C   UNL     1      32.307  -6.913  30.192  0.00  0.00    +0.000 C 
ATOM     13  C   UNL     1      32.836  -5.387  30.372  0.00  0.00    +0.000 C 
ATOM     14  C   UNL     1      34.007  -5.465  29.256  0.00  0.00    +0.000 C 
ATOM     15  C   UNL     1      34.617  -6.777  29.190  0.00  0.00    +0.000 C 
ATOM     16  C   UNL     1      34.586  -7.627  30.413  0.00  0.00    +0.000 C 
ATOM     17  C   UNL     1      34.568  -6.712  31.582  0.00  0.00    +0.000 C 
ATOM     18  C   UNL     1      33.794  -5.692  31.604  0.00  0.00    +0.000 C 
ENDBRANCH  11  18
ENDBRANCH   1  11
TORSDOF 3
ENDMDL
MODEL 5
REMARK VINA RESULT:      -6.1     21.601     22.795
REMARK  Name = 
REMARK  3 active torsions:
REMARK  status: ('A' for Active; 'I' for Inactive)
REMARK    1  A    between atoms: C_7  and  N_8
REMARK    2  A    between atoms: N_8  and  N_9
REMARK    3  A    between atoms: C_10  and  C_12
REMARK                            x       y       z     vdW  Elec       q    Type
REMARK                         _______ _______ _______ _____ _____    ______ ____
ROOT
ATOM      1  N   UNL     1      21.969  -7.013  25.313  0.00  0.00    +0.000 NA
ATOM      2  C   UNL     1      22.789  -6.652  24.210  0.00  0.00    +0.000 C 
ATOM      3  O   UNL     1      22.386  -5.705  23.498  0.00  0.00    +0.000 OA
ENDROOT
BRANCH   2   4
ATOM      4  C   UNL     1      24.034  -7.365  23.943  0.00  0.00    +0.000 A 
ATOM      5  C   UNL     1      24.136  -8.718  24.234  0.00  0.00    +0.000 A 
ATOM      6  C   UNL     1      25.317  -9.410  23.986  0.00  0.00    +0.000 A 
ATOM      7  C   UNL     1      26.428  -8.794  23.447  0.00  0.00    +0.000 A 
ATOM      8 BR   UNL     1      28.036  -9.787  23.126  0.00  0.00    +0.000 Br
ATOM      9  C   UNL     1      26.327  -7.455  23.160  0.00  0.00    +0.000 A 
ATOM     10  C   UNL     1      25.145  -6.760  23.408  0.00  0.00    +0.000 A 
ENDBRANCH   2   4
BRANCH   1  11
ATOM     11  N   UNL     1      20.792  -6.382  25.614  0.00  0.00    +0.000 NA
BRANCH  11  18
ATOM     12  C   UNL     1      18.015  -8.621  25.394  0.00  0.00    +0.000 C 
ATOM     13  C   UNL     1      19.488  -8.549  26.076  0.00  0.00    +0.000 C 
ATOM     14  C   UNL     1      18.983  -8.629  27.613  0.00  0.00    +0.000 C 
ATOM     15  C   UNL     1      17.711  -7.964  27.808  0.00  0.00    +0.000 C 
ATOM     16  C   UNL     1      17.347  -6.860  26.878  0.00  0.00    +0.000 C 
ATOM     17  C   UNL     1      18.614  -6.238  26.417  0.00  0.00    +0.000 C 
ATOM     18  C   UNL     1      19.602  -6.964  26.047  0.00  0.00    +0.000 C 
ENDBRANCH  11  18
ENDBRANCH   1  11
TORSDOF 3
ENDMDL
MODEL 6
REMARK VINA RESULT:      -5.9     22.390     25.024
REMARK  Name = 
REMARK  3 active torsions:
REMARK  status: ('A' for Active; 'I' for Inactive)
REMARK    1  A    between atoms: C_7  and  N_8
REMARK    2  A    between atoms: N_8  and  N_9
REMARK    3  A    between atoms: C_10  and  C_12
REMARK                            x       y       z     vdW  Elec       q    Type
REMARK                         _______ _______ _______ _____ _____    ______ ____
ROOT
ATOM      1  N   UNL     1      29.680  24.923  20.805  0.00  0.00    +0.000 NA
ATOM      2  C   UNL     1      29.068  26.196  20.652  0.00  0.00    +0.000 C 
ATOM      3  O   UNL     1      27.954  26.353  21.200  0.00  0.00    +0.000 OA
ENDROOT
BRANCH   2   4
ATOM      4  C   UNL     1      29.728  27.252  19.889  0.00  0.00    +0.000 A 
ATOM      5  C   UNL     1      30.425  26.941  18.731  0.00  0.00    +0.000 A 
ATOM      6  C   UNL     1      31.059  27.935  17.996  0.00  0.00    +0.000 A 
ATOM      7  C   UNL     1      31.026  29.262  18.375  0.00  0.00    +0.000 A 
ATOM      8 BR   UNL     1      31.918  30.599  17.331  0.00  0.00    +0.000 Br
ATOM      9  C   UNL     1      30.336  29.570  19.521  0.00  0.00    +0.000 A 
ATOM     10  C   UNL     1      29.700  28.574  20.260  0.00  0.00    +0.000 A 
ENDBRANCH   2   4
BRANCH   1  11
ATOM     11  N   UNL     1      29.112  23.895  21.508  0.00  0.00    +0.000 NA
BRANCH  11  18
ATOM     12  C   UNL     1      30.360  22.659  24.621  0.00  0.00    +0.000 C 
ATOM     13  C   UNL     1      30.428  24.006  23.713  0.00  0.00    +0.000 C 
ATOM     14  C   UNL     1      29.717  24.988  24.788  0.00  0.00    +0.000 C 
ATOM     15  C   UNL     1      28.703  24.307  25.567  0.00  0.00    +0.000 C 
ATOM     16  C   UNL     1      28.031  23.123  24.963  0.00  0.00    +0.000 C 
ATOM     17  C   UNL     1      28.041  23.317  23.491  0.00  0.00    +0.000 C 
ATOM     18  C   UNL     1      29.100  23.713  22.889  0.00  0.00    +0.000 C 
ENDBRANCH  11  18
ENDBRANCH   1  11
TORSDOF 3
ENDMDL
MODEL 7
REMARK VINA RESULT:      -5.9     19.080     20.510
REMARK  Name = 
REMARK  3 active torsions:
REMARK  status: ('A' for Active; 'I' for Inactive)
REMARK    1  A    between atoms: C_7  and  N_8
REMARK    2  A    between atoms: N_8  and  N_9
REMARK    3  A    between atoms: C_10  and  C_12
REMARK                            x       y       z     vdW  Elec       q    Type
REMARK                         _______ _______ _______ _____ _____    ______ ____
ROOT
ATOM      1  N   UNL     1      33.709   3.650  34.828  0.00  0.00    +0.000 NA
ATOM      2  C   UNL     1      33.571   2.866  33.652  0.00  0.00    +0.000 C 
ATOM      3  O   UNL     1      33.515   3.486  32.566  0.00  0.00    +0.000 OA
ENDROOT
BRANCH   2   4
ATOM      4  C   UNL     1      33.501   1.409  33.733  0.00  0.00    +0.000 A 
ATOM      5  C   UNL     1      34.163   0.629  32.795  0.00  0.00    +0.000 A 
ATOM      6  C   UNL     1      34.104  -0.758  32.859  0.00  0.00    +0.000 A 
ATOM      7  C   UNL     1      33.396  -1.418  33.843  0.00  0.00    +0.000 A 
ATOM      8 BR   UNL     1      33.340  -3.333  33.890  0.00  0.00    +0.000 Br
ATOM      9  C   UNL     1      32.741  -0.646  34.770  0.00  0.00    +0.000 A 
ATOM     10  C   UNL     1      32.798   0.745  34.708  0.00  0.00    +0.000 A 
ENDBRANCH   2   4
BRANCH   1  11
ATOM     11  N   UNL     1      33.780   5.018  34.816  0.00  0.00    +0.000 NA
BRANCH  11  18
ATOM     12  C   UNL     1      35.342   8.117  35.669  0.00  0.00    +0.000 C 
ATOM     13  C   UNL     1      34.160   7.142  36.212  0.00  0.00    +0.000 C 
ATOM     14  C   UNL     1      34.842   6.805  37.642  0.00  0.00    +0.000 C 
ATOM     15  C   UNL     1      36.287   6.744  37.561  0.00  0.00    +0.000 C 
ATOM     16  C   UNL     1      36.902   6.390  36.252  0.00  0.00    +0.000 C 
ATOM     17  C   UNL     1      35.934   5.525  35.533  0.00  0.00    +0.000 C 
ATOM     18  C   UNL     1      34.690   5.828  35.491  0.00  0.00    +0.000 C 
ENDBRANCH  11  18
ENDBRANCH   1  11
TORSDOF 3
ENDMDL
MODEL 8
REMARK VINA RESULT:      -5.8     21.449     24.068
REMARK  Name = 
REMARK  3 active torsions:
REMARK  status: ('A' for Active; 'I' for Inactive)
REMARK    1  A    between atoms: C_7  and  N_8
REMARK    2  A    between atoms: N_8  and  N_9
REMARK    3  A    between atoms: C_10  and  C_12
REMARK                            x       y       z     vdW  Elec       q    Type
REMARK                         _______ _______ _______ _____ _____    ______ ____
ROOT
ATOM      1  N   UNL     1      27.783  25.520  21.462  0.00  0.00    +0.000 NA
ATOM      2  C   UNL     1      29.059  25.583  20.840  0.00  0.00    +0.000 C 
ATOM      3  O   UNL     1      29.739  24.533  20.846  0.00  0.00    +0.000 OA
ENDROOT
BRANCH   2   4
ATOM      4  C   UNL     1      29.528  26.824  20.231  0.00  0.00    +0.000 A 
ATOM      5  C   UNL     1      29.282  28.040  20.853  0.00  0.00    +0.000 A 
ATOM      6  C   UNL     1      29.722  29.230  20.285  0.00  0.00    +0.000 A 
ATOM      7  C   UNL     1      30.416  29.260  19.092  0.00  0.00    +0.000 A 
ATOM      8 BR   UNL     1      31.001  30.925  18.343  0.00  0.00    +0.000 Br
ATOM      9  C   UNL     1      30.659  28.057  18.476  0.00  0.00    +0.000 A 
ATOM     10  C   UNL     1      30.218  26.864  19.045  0.00  0.00    +0.000 A 
ENDBRANCH   2   4
BRANCH   1  11
ATOM     11  N   UNL     1      27.288  24.386  22.049  0.00  0.00    +0.000 NA
BRANCH  11  18
ATOM     12  C   UNL     1      27.077  25.055  25.554  0.00  0.00    +0.000 C 
ATOM     13  C   UNL     1      26.124  24.556  24.335  0.00  0.00    +0.000 C 
ATOM     14  C   UNL     1      25.790  23.095  24.948  0.00  0.00    +0.000 C 
ATOM     15  C   UNL     1      26.904  22.543  25.691  0.00  0.00    +0.000 C 
ATOM     16  C   UNL     1      28.278  22.991  25.331  0.00  0.00    +0.000 C 
ATOM     17  C   UNL     1      28.259  23.347  23.890  0.00  0.00    +0.000 C 
ATOM     18  C   UNL     1      27.307  24.051  23.401  0.00  0.00    +0.000 C 
ENDBRANCH  11  18
ENDBRANCH   1  11
TORSDOF 3
ENDMDL
MODEL 9
REMARK VINA RESULT:      -5.8     20.761     22.737
REMARK  Name = 
REMARK  3 active torsions:
REMARK  status: ('A' for Active; 'I' for Inactive)
REMARK    1  A    between atoms: C_7  and  N_8
REMARK    2  A    between atoms: N_8  and  N_9
REMARK    3  A    between atoms: C_10  and  C_12
REMARK                            x       y       z     vdW  Elec       q    Type
REMARK                         _______ _______ _______ _____ _____    ______ ____
ROOT
ATOM      1  N   UNL     1      29.935  24.534  22.202  0.00  0.00    +0.000 NA
ATOM      2  C   UNL     1      29.225  23.611  23.015  0.00  0.00    +0.000 C 
ATOM      3  O   UNL     1      28.156  23.157  22.547  0.00  0.00    +0.000 OA
ENDROOT
BRANCH   2   4
ATOM      4  C   UNL     1      29.738  23.225  24.326  0.00  0.00    +0.000 A 
ATOM      5  C   UNL     1      31.081  23.402  24.627  0.00  0.00    +0.000 A 
ATOM      6  C   UNL     1      31.584  23.039  25.871  0.00  0.00    +0.000 A 
ATOM      7  C   UNL     1      30.784  22.492  26.854  0.00  0.00    +0.000 A 
ATOM      8 BR   UNL     1      31.521  22.003  28.554  0.00  0.00    +0.000 Br
ATOM      9  C   UNL     1      29.455  22.317  26.556  0.00  0.00    +0.000 A 
ATOM     10  C   UNL     1      28.949  22.680  25.310  0.00  0.00    +0.000 A 
ENDBRANCH   2   4
BRANCH   1  11
ATOM     11  N   UNL     1      29.505  24.934  20.965  0.00  0.00    +0.000 NA
BRANCH  11  18
ATOM     12  C   UNL     1      27.462  27.726  20.068  0.00  0.00    +0.000 C 
ATOM     13  C   UNL     1      28.274  27.156  21.356  0.00  0.00    +0.000 C 
ATOM     14  C   UNL     1      29.304  28.398  21.489  0.00  0.00    +0.000 C 
ATOM     15  C   UNL     1      29.658  28.958  20.201  0.00  0.00    +0.000 C 
ATOM     16  C   UNL     1      29.585  28.072  19.006  0.00  0.00    +0.000 C 
ATOM     17  C   UNL     1      29.839  26.686  19.473  0.00  0.00    +0.000 C 
ATOM     18  C   UNL     1      29.268  26.234  20.526  0.00  0.00    +0.000 C 
ENDBRANCH  11  18
ENDBRANCH   1  11
TORSDOF 3
ENDMDL
MODEL 10
REMARK VINA RESULT:      -5.8     27.867     29.568
REMARK  Name = 
REMARK  3 active torsions:
REMARK  status: ('A' for Active; 'I' for Inactive)
REMARK    1  A    between atoms: C_7  and  N_8
REMARK    2  A    between atoms: N_8  and  N_9
REMARK    3  A    between atoms: C_10  and  C_12
REMARK                            x       y       z     vdW  Elec       q    Type
REMARK                         _______ _______ _______ _____ _____    ______ ____
ROOT
ATOM      1  N   UNL     1      35.836  18.583  13.113  0.00  0.00    +0.000 NA
ATOM      2  C   UNL     1      36.351  18.598  14.437  0.00  0.00    +0.000 C 
ATOM      3  O   UNL     1      36.844  19.677  14.835  0.00  0.00    +0.000 OA
ENDROOT
BRANCH   2   4
ATOM      4  C   UNL     1      36.295  17.401  15.271  0.00  0.00    +0.000 A 
ATOM      5  C   UNL     1      37.165  17.259  16.343  0.00  0.00    +0.000 A 
ATOM      6  C   UNL     1      37.124  16.124  17.144  0.00  0.00    +0.000 A 
ATOM      7  C   UNL     1      36.229  15.098  16.918  0.00  0.00    +0.000 A 
ATOM      8 BR   UNL     1      36.210  13.550  18.048  0.00  0.00    +0.000 Br
ATOM      9  C   UNL     1      35.368  15.238  15.857  0.00  0.00    +0.000 A 
ATOM     10  C   UNL     1      35.408  16.375  15.052  0.00  0.00    +0.000 A 
ENDBRANCH   2   4
BRANCH   1  11
ATOM     11  N   UNL     1      35.860  19.673  12.284  0.00  0.00    +0.000 NA
BRANCH  11  18
ATOM     12  C   UNL     1      34.229  22.301  10.493  0.00  0.00    +0.000 C 
ATOM     13  C   UNL     1      34.957  20.877  10.200  0.00  0.00    +0.000 C 
ATOM     14  C   UNL     1      33.657  20.128   9.591  0.00  0.00    +0.000 C 
ATOM     15  C   UNL     1      32.428  20.558  10.224  0.00  0.00    +0.000 C 
ATOM     16  C   UNL     1      32.501  21.076  11.619  0.00  0.00    +0.000 C 
ATOM     17  C   UNL     1      33.654  20.409  12.274  0.00  0.00    +0.000 C 
ATOM     18  C   UNL     1      34.778  20.298  11.670  0.00  0.00    +0.000 C 
ENDBRANCH  11  18
ENDBRANCH   1  11
TORSDOF 3
ENDMDL
