MODEL 1
REMARK VINA RESULT:      -7.7      0.000      0.000
REMARK  Name = 
REMARK  8 active torsions:
REMARK  status: ('A' for Active; 'I' for Inactive)
REMARK    1  A    between atoms: C_4  and  C_5
REMARK    2  A    between atoms: C_5  and  C_6
REMARK    3  A    between atoms: C_5  and  C_26
REMARK    4  A    between atoms: C_6  and  C_7
REMARK    5  A    between atoms: C_7  and  N_8
REMARK    6  A    between atoms: N_8  and  C_9
REMARK    7  A    between atoms: C_9  and  C_10
REMARK    8  A    between atoms: C_10  and  C_11
REMARK                            x       y       z     vdW  Elec       q    Type
REMARK                         _______ _______ _______ _____ _____    ______ ____
ROOT
ATOM      1  C   UNL     1      36.223   0.851  17.174  0.00  0.00    +0.000 C 
ENDROOT
BRANCH   1   2
ATOM      2  C   UNL     1      36.224  -0.603  16.817  0.00  0.00    +0.000 C 
ATOM      3  C   UNL     1      36.773  -1.382  18.005  0.00  0.00    +0.000 C 
ATOM      4  C   UNL     1      36.751  -2.863  17.748  0.00  0.00    +0.000 C 
ATOM      5  O   UNL     1      35.747  -3.286  16.905  0.00  0.00    +0.000 OA
ATOM      6  C   UNL     1      34.623  -2.505  16.932  0.00  0.00    +0.000 C 
ATOM      7  C   UNL     1      34.869  -1.087  16.418  0.00  0.00    +0.000 C 
BRANCH   2   8
ATOM      8  C   UNL     1      37.155  -0.837  15.647  0.00  0.00    +0.000 A 
ATOM      9  C   UNL     1      36.727  -0.768  14.329  0.00  0.00    +0.000 A 
ATOM     10  C   UNL     1      37.616  -1.019  13.304  0.00  0.00    +0.000 A 
ATOM     11  C   UNL     1      38.932  -1.343  13.492  0.00  0.00    +0.000 A 
ATOM     12  C   UNL     1      39.369  -1.414  14.828  0.00  0.00    +0.000 A 
ATOM     13  C   UNL     1      38.475  -1.162  15.846  0.00  0.00    +0.000 A 
ATOM     14  O   UNL     1      40.690  -1.735  15.038  0.00  0.00    +0.000 OA
ATOM     15  C   UNL     1      41.709  -1.710  14.086  0.00  0.00    +0.000 C 
ATOM     16  C   UNL     1      41.233  -1.735  12.669  0.00  0.00    +0.000 C 
ATOM     17  O   UNL     1      39.850  -1.597  12.521  0.00  0.00    +0.000 OA
ENDBRANCH   2   8
ENDBRANCH   1   2
BRANCH   1  18
ATOM     18  N   UNL     1      34.935   1.409  16.688  0.00  0.00    +0.000 NA
BRANCH  18  19
ATOM     19  C   UNL     1      35.362   2.752  16.194  0.00  0.00    +0.000 C 
BRANCH  19  20
ATOM     20  C   UNL     1      36.713   2.975  16.815  0.00  0.00    +0.000 C 
BRANCH  20  21
ATOM     21  C   UNL     1      37.621   3.798  16.034  0.00  0.00    +0.000 C 
BRANCH  21  25
ATOM     22  C   UNL     1      39.126   2.260  12.405  0.00  0.00    +0.000 A 
ATOM     23  C   UNL     1      37.995   3.045  12.385  0.00  0.00    +0.000 A 
ATOM     24  C   UNL     1      37.493   3.546  13.558  0.00  0.00    +0.000 A 
ATOM     25  C   UNL     1      38.113   3.271  14.763  0.00  0.00    +0.000 A 
ATOM     26  C   UNL     1      39.248   2.484  14.778  0.00  0.00    +0.000 A 
ATOM     27  C   UNL     1      39.760   1.975  13.610  0.00  0.00    +0.000 A 
ENDBRANCH  21  25
BRANCH  21  28
ATOM     28  C   UNL     1      38.584   4.647  16.700  0.00  0.00    +0.000 A 
ATOM     29  C   UNL     1      38.588   4.683  18.090  0.00  0.00    +0.000 A 
ATOM     30  C   UNL     1      39.455   5.463  18.798  0.00  0.00    +0.000 A 
ATOM     31  C   UNL     1      40.371   6.259  18.145  0.00  0.00    +0.000 A 
ATOM     32  C   UNL     1      40.384   6.236  16.755  0.00  0.00    +0.000 A 
ATOM     33  C   UNL     1      39.510   5.448  16.061  0.00  0.00    +0.000 A 
ENDBRANCH  21  28
ENDBRANCH  20  21
ENDBRANCH  19  20
ENDBRANCH  18  19
ENDBRANCH   1  18
TORSDOF 8
ENDMDL
MODEL 2
REMARK VINA RESULT:      -7.5      2.456      6.544
REMARK  Name = 
REMARK  8 active torsions:
REMARK  status: ('A' for Active; 'I' for Inactive)
REMARK    1  A    between atoms: C_4  and  C_5
REMARK    2  A    between atoms: C_5  and  C_6
REMARK    3  A    between atoms: C_5  and  C_26
REMARK    4  A    between atoms: C_6  and  C_7
REMARK    5  A    between atoms: C_7  and  N_8
REMARK    6  A    between atoms: N_8  and  C_9
REMARK    7  A    between atoms: C_9  and  C_10
REMARK    8  A    between atoms: C_10  and  C_11
REMARK                            x       y       z     vdW  Elec       q    Type
REMARK                         _______ _______ _______ _____ _____    ______ ____
ROOT
ATOM      1  C   UNL     1      35.278   0.636  16.324  0.00  0.00    +0.000 C 
ENDROOT
BRANCH   1   2
ATOM      2  C   UNL     1      35.943   1.825  15.703  0.00  0.00    +0.000 C 
ATOM      3  C   UNL     1      34.860   2.723  15.120  0.00  0.00    +0.000 C 
ATOM      4  C   UNL     1      35.446   3.975  14.528  0.00  0.00    +0.000 C 
ATOM      5  O   UNL     1      36.610   4.405  15.125  0.00  0.00    +0.000 OA
ATOM      6  C   UNL     1      36.722   4.067  16.448  0.00  0.00    +0.000 C 
ATOM      7  C   UNL     1      36.807   2.559  16.675  0.00  0.00    +0.000 C 
BRANCH   2   8
ATOM      8  C   UNL     1      36.826   1.372  14.560  0.00  0.00    +0.000 A 
ATOM      9  C   UNL     1      36.310   0.888  13.366  0.00  0.00    +0.000 A 
ATOM     10  C   UNL     1      37.166   0.463  12.370  0.00  0.00    +0.000 A 
ATOM     11  C   UNL     1      38.530   0.481  12.473  0.00  0.00    +0.000 A 
ATOM     12  C   UNL     1      39.056   0.972  13.682  0.00  0.00    +0.000 A 
ATOM     13  C   UNL     1      38.195   1.394  14.672  0.00  0.00    +0.000 A 
ATOM     14  O   UNL     1      40.426   1.001  13.803  0.00  0.00    +0.000 OA
ATOM     15  C   UNL     1      41.351   0.880  12.766  0.00  0.00    +0.000 C 
ATOM     16  C   UNL     1      40.804   0.265  11.518  0.00  0.00    +0.000 C 
ATOM     17  O   UNL     1      39.418   0.078  11.524  0.00  0.00    +0.000 OA
ENDBRANCH   2   8
ENDBRANCH   1   2
BRANCH   1  18
ATOM     18  N   UNL     1      35.859   0.482  17.683  0.00  0.00    +0.000 NA
BRANCH  18  19
ATOM     19  C   UNL     1      36.030  -0.999  17.765  0.00  0.00    +0.000 C 
BRANCH  19  20
ATOM     20  C   UNL     1      35.733  -1.495  16.377  0.00  0.00    +0.000 C 
BRANCH  20  21
ATOM     21  C   UNL     1      36.360  -2.759  16.028  0.00  0.00    +0.000 C 
BRANCH  21  25
ATOM     22  C   UNL     1      39.934  -2.612  13.789  0.00  0.00    +0.000 A 
ATOM     23  C   UNL     1      38.758  -2.952  13.157  0.00  0.00    +0.000 A 
ATOM     24  C   UNL     1      37.591  -3.008  13.875  0.00  0.00    +0.000 A 
ATOM     25  C   UNL     1      37.584  -2.727  15.229  0.00  0.00    +0.000 A 
ATOM     26  C   UNL     1      38.765  -2.387  15.858  0.00  0.00    +0.000 A 
ATOM     27  C   UNL     1      39.941  -2.327  15.151  0.00  0.00    +0.000 A 
ENDBRANCH  21  25
BRANCH  21  28
ATOM     28  C   UNL     1      35.545  -3.923  15.760  0.00  0.00    +0.000 A 
ATOM     29  C   UNL     1      34.328  -3.746  15.111  0.00  0.00    +0.000 A 
ATOM     30  C   UNL     1      33.492  -4.786  14.828  0.00  0.00    +0.000 A 
ATOM     31  C   UNL     1      33.834  -6.073  15.186  0.00  0.00    +0.000 A 
ATOM     32  C   UNL     1      35.046  -6.272  15.835  0.00  0.00    +0.000 A 
ATOM     33  C   UNL     1      35.873  -5.219  16.109  0.00  0.00    +0.000 A 
ENDBRANCH  21  28
ENDBRANCH  20  21
ENDBRANCH  19  20
ENDBRANCH  18  19
ENDBRANCH   1  18
TORSDOF 8
ENDMDL
MODEL 3
REMARK VINA RESULT:      -7.4      2.585      7.118
REMARK  Name = 
REMARK  8 active torsions:
REMARK  status: ('A' for Active; 'I' for Inactive)
REMARK    1  A    between atoms: C_4  and  C_5
REMARK    2  A    between atoms: C_5  and  C_6
REMARK    3  A    between atoms: C_5  and  C_26
REMARK    4  A    between atoms: C_6  and  C_7
REMARK    5  A    between atoms: C_7  and  N_8
REMARK    6  A    between atoms: N_8  and  C_9
REMARK    7  A    between atoms: C_9  and  C_10
REMARK    8  A    between atoms: C_10  and  C_11
REMARK                            x       y       z     vdW  Elec       q    Type
REMARK                         _______ _______ _______ _____ _____    ______ ____
ROOT
ATOM      1  C   UNL     1      39.866  -1.848  15.420  0.00  0.00    +0.000 C 
ENDROOT
BRANCH   1   2
ATOM      2  C   UNL     1      39.699  -1.435  13.991  0.00  0.00    +0.000 C 
ATOM      3  C   UNL     1      41.045  -0.940  13.480  0.00  0.00    +0.000 C 
ATOM      4  C   UNL     1      40.975  -0.561  12.027  0.00  0.00    +0.000 C 
ATOM      5  O   UNL     1      40.047  -1.265  11.292  0.00  0.00    +0.000 OA
ATOM      6  C   UNL     1      39.802  -2.528  11.759  0.00  0.00    +0.000 C 
ATOM      7  C   UNL     1      39.159  -2.540  13.144  0.00  0.00    +0.000 C 
BRANCH   2   8
ATOM      8  C   UNL     1      38.725  -0.279  13.909  0.00  0.00    +0.000 A 
ATOM      9  C   UNL     1      37.561  -0.338  13.157  0.00  0.00    +0.000 A 
ATOM     10  C   UNL     1      36.725   0.758  13.097  0.00  0.00    +0.000 A 
ATOM     11  C   UNL     1      36.964   1.940  13.743  0.00  0.00    +0.000 A 
ATOM     12  C   UNL     1      38.144   2.004  14.507  0.00  0.00    +0.000 A 
ATOM     13  C   UNL     1      38.974   0.904  14.562  0.00  0.00    +0.000 A 
ATOM     14  O   UNL     1      38.401   3.183  15.167  0.00  0.00    +0.000 OA
ATOM     15  C   UNL     1      37.490   4.212  15.405  0.00  0.00    +0.000 C 
ATOM     16  C   UNL     1      36.287   4.191  14.519  0.00  0.00    +0.000 C 
ATOM     17  O   UNL     1      36.176   3.049  13.721  0.00  0.00    +0.000 OA
ENDBRANCH   2   8
ENDBRANCH   1   2
BRANCH   1  18
ATOM     18  N   UNL     1      39.180  -3.158  15.570  0.00  0.00    +0.000 NA
BRANCH  18  19
ATOM     19  C   UNL     1      39.098  -3.280  17.056  0.00  0.00    +0.000 C 
BRANCH  19  20
ATOM     20  C   UNL     1      37.657  -3.611  17.332  0.00  0.00    +0.000 C 
BRANCH  20  21
ATOM     21  C   UNL     1      36.691  -2.797  16.612  0.00  0.00    +0.000 C 
BRANCH  21  25
ATOM     22  C   UNL     1      35.652   0.927  18.301  0.00  0.00    +0.000 A 
ATOM     23  C   UNL     1      35.582   0.765  16.935  0.00  0.00    +0.000 A 
ATOM     24  C   UNL     1      35.922  -0.438  16.374  0.00  0.00    +0.000 A 
ATOM     25  C   UNL     1      36.335  -1.493  17.167  0.00  0.00    +0.000 A 
ATOM     26  C   UNL     1      36.403  -1.326  18.537  0.00  0.00    +0.000 A 
ATOM     27  C   UNL     1      36.066  -0.125  19.112  0.00  0.00    +0.000 A 
ENDBRANCH  21  25
BRANCH  21  28
ATOM     28  C   UNL     1      35.596  -3.426  15.909  0.00  0.00    +0.000 A 
ATOM     29  C   UNL     1      35.879  -4.176  14.773  0.00  0.00    +0.000 A 
ATOM     30  C   UNL     1      34.906  -4.795  14.044  0.00  0.00    +0.000 A 
ATOM     31  C   UNL     1      33.582  -4.691  14.416  0.00  0.00    +0.000 A 
ATOM     32  C   UNL     1      33.278  -3.946  15.549  0.00  0.00    +0.000 A 
ATOM     33  C   UNL     1      34.265  -3.334  16.270  0.00  0.00    +0.000 A 
ENDBRANCH  21  28
ENDBRANCH  20  21
ENDBRANCH  19  20
ENDBRANCH  18  19
ENDBRANCH   1  18
TORSDOF 8
ENDMDL
MODEL 4
REMARK VINA RESULT:      -7.3      2.657      5.998
REMARK  Name = 
REMARK  8 active torsions:
REMARK  status: ('A' for Active; 'I' for Inactive)
REMARK    1  A    between atoms: C_4  and  C_5
REMARK    2  A    between atoms: C_5  and  C_6
REMARK    3  A    between atoms: C_5  and  C_26
REMARK    4  A    between atoms: C_6  and  C_7
REMARK    5  A    between atoms: C_7  and  N_8
REMARK    6  A    between atoms: N_8  and  C_9
REMARK    7  A    between atoms: C_9  and  C_10
REMARK    8  A    between atoms: C_10  and  C_11
REMARK                            x       y       z     vdW  Elec       q    Type
REMARK                         _______ _______ _______ _____ _____    ______ ____
ROOT
ATOM      1  C   UNL     1      37.980   3.958  16.730  0.00  0.00    +0.000 C 
ENDROOT
BRANCH   1   2
ATOM      2  C   UNL     1      37.507   3.281  15.481  0.00  0.00    +0.000 C 
ATOM      3  C   UNL     1      36.611   4.252  14.725  0.00  0.00    +0.000 C 
ATOM      4  C   UNL     1      36.142   3.665  13.423  0.00  0.00    +0.000 C 
ATOM      5  O   UNL     1      37.013   2.764  12.850  0.00  0.00    +0.000 OA
ATOM      6  C   UNL     1      38.330   2.985  13.151  0.00  0.00    +0.000 C 
ATOM      7  C   UNL     1      38.642   2.802  14.636  0.00  0.00    +0.000 C 
BRANCH   2   8
ATOM      8  C   UNL     1      36.670   2.073  15.845  0.00  0.00    +0.000 A 
ATOM      9  C   UNL     1      35.467   2.179  16.527  0.00  0.00    +0.000 A 
ATOM     10  C   UNL     1      34.761   1.040  16.856  0.00  0.00    +0.000 A 
ATOM     11  C   UNL     1      35.170  -0.230  16.552  0.00  0.00    +0.000 A 
ATOM     12  C   UNL     1      36.390  -0.341  15.860  0.00  0.00    +0.000 A 
ATOM     13  C   UNL     1      37.089   0.802  15.535  0.00  0.00    +0.000 A 
ATOM     14  O   UNL     1      36.817  -1.609  15.542  0.00  0.00    +0.000 OA
ATOM     15  C   UNL     1      36.046  -2.771  15.564  0.00  0.00    +0.000 C 
ATOM     16  C   UNL     1      34.801  -2.672  16.386  0.00  0.00    +0.000 C 
ATOM     17  O   UNL     1      34.515  -1.384  16.849  0.00  0.00    +0.000 OA
ENDBRANCH   2   8
ENDBRANCH   1   2
BRANCH   1  18
ATOM     18  N   UNL     1      38.451   5.310  16.332  0.00  0.00    +0.000 NA
BRANCH  18  19
ATOM     19  C   UNL     1      39.720   5.422  17.111  0.00  0.00    +0.000 C 
BRANCH  19  20
ATOM     20  C   UNL     1      39.307   5.221  18.543  0.00  0.00    +0.000 C 
BRANCH  20  21
ATOM     21  C   UNL     1      39.807   6.221  19.473  0.00  0.00    +0.000 C 
BRANCH  21  25
ATOM     22  C   UNL     1      37.596   9.759  20.098  0.00  0.00    +0.000 A 
ATOM     23  C   UNL     1      37.238   8.916  19.070  0.00  0.00    +0.000 A 
ATOM     24  C   UNL     1      37.952   7.766  18.853  0.00  0.00    +0.000 A 
ATOM     25  C   UNL     1      39.029   7.444  19.659  0.00  0.00    +0.000 A 
ATOM     26  C   UNL     1      39.383   8.293  20.689  0.00  0.00    +0.000 A 
ATOM     27  C   UNL     1      38.677   9.448  20.917  0.00  0.00    +0.000 A 
ENDBRANCH  21  25
BRANCH  21  28
ATOM     28  C   UNL     1      41.230   6.434  19.611  0.00  0.00    +0.000 A 
ATOM     29  C   UNL     1      41.857   6.002  20.774  0.00  0.00    +0.000 A 
ATOM     30  C   UNL     1      43.193   6.172  20.991  0.00  0.00    +0.000 A 
ATOM     31  C   UNL     1      43.980   6.793  20.045  0.00  0.00    +0.000 A 
ATOM     32  C   UNL     1      43.373   7.232  18.875  0.00  0.00    +0.000 A 
ATOM     33  C   UNL     1      42.033   7.052  18.672  0.00  0.00    +0.000 A 
ENDBRANCH  21  28
ENDBRANCH  20  21
ENDBRANCH  19  20
ENDBRANCH  18  19
ENDBRANCH   1  18
TORSDOF 8
ENDMDL
MODEL 5
REMARK VINA RESULT:      -7.3      1.805      5.414
REMARK  Name = 
REMARK  8 active torsions:
REMARK  status: ('A' for Active; 'I' for Inactive)
REMARK    1  A    between atoms: C_4  and  C_5
REMARK    2  A    between atoms: C_5  and  C_6
REMARK    3  A    between atoms: C_5  and  C_26
REMARK    4  A    between atoms: C_6  and  C_7
REMARK    5  A    between atoms: C_7  and  N_8
REMARK    6  A    between atoms: N_8  and  C_9
REMARK    7  A    between atoms: C_9  and  C_10
REMARK    8  A    between atoms: C_10  and  C_11
REMARK                            x       y       z     vdW  Elec       q    Type
REMARK                         _______ _______ _______ _____ _____    ______ ____
ROOT
ATOM      1  C   UNL     1      39.615   0.454  12.380  0.00  0.00    +0.000 C 
ENDROOT
BRANCH   1   2
ATOM      2  C   UNL     1      40.192  -0.808  12.940  0.00  0.00    +0.000 C 
ATOM      3  C   UNL     1      40.200  -1.857  11.836  0.00  0.00    +0.000 C 
ATOM      4  C   UNL     1      40.823  -3.142  12.303  0.00  0.00    +0.000 C 
ATOM      5  O   UNL     1      41.787  -2.994  13.276  0.00  0.00    +0.000 OA
ATOM      6  C   UNL     1      42.456  -1.800  13.229  0.00  0.00    +0.000 C 
ATOM      7  C   UNL     1      41.556  -0.599  13.513  0.00  0.00    +0.000 C 
BRANCH   2   8
ATOM      8  C   UNL     1      39.304  -1.322  14.053  0.00  0.00    +0.000 A 
ATOM      9  C   UNL     1      39.681  -1.279  15.387  0.00  0.00    +0.000 A 
ATOM     10  C   UNL     1      38.841  -1.788  16.356  0.00  0.00    +0.000 A 
ATOM     11  C   UNL     1      37.622  -2.353  16.093  0.00  0.00    +0.000 A 
ATOM     12  C   UNL     1      37.236  -2.398  14.741  0.00  0.00    +0.000 A 
ATOM     13  C   UNL     1      38.082  -1.887  13.779  0.00  0.00    +0.000 A 
ATOM     14  O   UNL     1      36.013  -2.959  14.456  0.00  0.00    +0.000 OA
ATOM     15  C   UNL     1      34.990  -3.218  15.368  0.00  0.00    +0.000 C 
ATOM     16  C   UNL     1      35.431  -3.267  16.796  0.00  0.00    +0.000 C 
ATOM     17  O   UNL     1      36.755  -2.867  17.006  0.00  0.00    +0.000 OA
ENDBRANCH   2   8
ENDBRANCH   1   2
BRANCH   1  18
ATOM     18  N   UNL     1      40.588   1.538  12.674  0.00  0.00    +0.000 NA
BRANCH  18  19
ATOM     19  C   UNL     1      39.680   2.649  13.086  0.00  0.00    +0.000 C 
BRANCH  19  20
ATOM     20  C   UNL     1      39.468   2.442  14.560  0.00  0.00    +0.000 C 
BRANCH  20  21
ATOM     21  C   UNL     1      38.466   3.304  15.164  0.00  0.00    +0.000 C 
BRANCH  21  25
ATOM     22  C   UNL     1      39.815   6.200  17.920  0.00  0.00    +0.000 A 
ATOM     23  C   UNL     1      38.928   5.235  18.340  0.00  0.00    +0.000 A 
ATOM     24  C   UNL     1      38.478   4.292  17.453  0.00  0.00    +0.000 A 
ATOM     25  C   UNL     1      38.907   4.300  16.139  0.00  0.00    +0.000 A 
ATOM     26  C   UNL     1      39.798   5.270  15.722  0.00  0.00    +0.000 A 
ATOM     27  C   UNL     1      40.255   6.221  16.600  0.00  0.00    +0.000 A 
ENDBRANCH  21  25
BRANCH  21  28
ATOM     28  C   UNL     1      37.144   2.792  15.445  0.00  0.00    +0.000 A 
ATOM     29  C   UNL     1      37.012   1.456  15.808  0.00  0.00    +0.000 A 
ATOM     30  C   UNL     1      35.802   0.887  16.080  0.00  0.00    +0.000 A 
ATOM     31  C   UNL     1      34.646   1.634  16.000  0.00  0.00    +0.000 A 
ATOM     32  C   UNL     1      34.756   2.972  15.639  0.00  0.00    +0.000 A 
ATOM     33  C   UNL     1      35.976   3.527  15.372  0.00  0.00    +0.000 A 
ENDBRANCH  21  28
ENDBRANCH  20  21
ENDBRANCH  19  20
ENDBRANCH  18  19
ENDBRANCH   1  18
TORSDOF 8
ENDMDL
MODEL 6
REMARK VINA RESULT:      -7.3      2.604      5.050
REMARK  Name = 
REMARK  8 active torsions:
REMARK  status: ('A' for Active; 'I' for Inactive)
REMARK    1  A    between atoms: C_4  and  C_5
REMARK    2  A    between atoms: C_5  and  C_6
REMARK    3  A    between atoms: C_5  and  C_26
REMARK    4  A    between atoms: C_6  and  C_7
REMARK    5  A    between atoms: C_7  and  N_8
REMARK    6  A    between atoms: N_8  and  C_9
REMARK    7  A    between atoms: C_9  and  C_10
REMARK    8  A    between atoms: C_10  and  C_11
REMARK                            x       y       z     vdW  Elec       q    Type
REMARK                         _______ _______ _______ _____ _____    ______ ____
ROOT
ATOM      1  C   UNL     1      38.294   3.939  15.398  0.00  0.00    +0.000 C 
ENDROOT
BRANCH   1   2
ATOM      2  C   UNL     1      37.037   3.132  15.293  0.00  0.00    +0.000 C 
ATOM      3  C   UNL     1      36.581   2.780  16.702  0.00  0.00    +0.000 C 
ATOM      4  C   UNL     1      35.285   2.018  16.686  0.00  0.00    +0.000 C 
ATOM      5  O   UNL     1      34.458   2.311  15.624  0.00  0.00    +0.000 OA
ATOM      6  C   UNL     1      34.595   3.584  15.139  0.00  0.00    +0.000 C 
ATOM      7  C   UNL     1      35.971   3.847  14.529  0.00  0.00    +0.000 C 
BRANCH   2   8
ATOM      8  C   UNL     1      37.326   1.835  14.568  0.00  0.00    +0.000 A 
ATOM      9  C   UNL     1      36.777   1.536  13.329  0.00  0.00    +0.000 A 
ATOM     10  C   UNL     1      37.055   0.325  12.729  0.00  0.00    +0.000 A 
ATOM     11  C   UNL     1      37.856  -0.638  13.281  0.00  0.00    +0.000 A 
ATOM     12  C   UNL     1      38.413  -0.338  14.537  0.00  0.00    +0.000 A 
ATOM     13  C   UNL     1      38.131   0.875  15.129  0.00  0.00    +0.000 A 
ATOM     14  O   UNL     1      39.224  -1.292  15.107  0.00  0.00    +0.000 OA
ATOM     15  C   UNL     1      39.791  -2.389  14.459  0.00  0.00    +0.000 C 
ATOM     16  C   UNL     1      39.125  -2.760  13.172  0.00  0.00    +0.000 C 
ATOM     17  O   UNL     1      38.164  -1.845  12.734  0.00  0.00    +0.000 OA
ENDBRANCH   2   8
ENDBRANCH   1   2
BRANCH   1  18
ATOM     18  N   UNL     1      38.007   5.059  16.330  0.00  0.00    +0.000 NA
BRANCH  18  19
ATOM     19  C   UNL     1      39.331   5.234  16.999  0.00  0.00    +0.000 C 
BRANCH  19  20
ATOM     20  C   UNL     1      39.037   5.098  18.467  0.00  0.00    +0.000 C 
BRANCH  20  21
ATOM     21  C   UNL     1      39.621   6.128  19.310  0.00  0.00    +0.000 C 
BRANCH  21  25
ATOM     22  C   UNL     1      37.473   9.695  19.992  0.00  0.00    +0.000 A 
ATOM     23  C   UNL     1      37.180   8.936  18.882  0.00  0.00    +0.000 A 
ATOM     24  C   UNL     1      37.875   7.778  18.646  0.00  0.00    +0.000 A 
ATOM     25  C   UNL     1      38.868   7.364  19.514  0.00  0.00    +0.000 A 
ATOM     26  C   UNL     1      39.158   8.129  20.627  0.00  0.00    +0.000 A 
ATOM     27  C   UNL     1      38.471   9.291  20.875  0.00  0.00    +0.000 A 
ENDBRANCH  21  25
BRANCH  21  28
ATOM     28  C   UNL     1      41.052   6.336  19.313  0.00  0.00    +0.000 A 
ATOM     29  C   UNL     1      41.743   6.175  20.509  0.00  0.00    +0.000 A 
ATOM     30  C   UNL     1      43.092   6.361  20.604  0.00  0.00    +0.000 A 
ATOM     31  C   UNL     1      43.826   6.725  19.495  0.00  0.00    +0.000 A 
ATOM     32  C   UNL     1      43.154   6.890  18.291  0.00  0.00    +0.000 A 
ATOM     33  C   UNL     1      41.803   6.698  18.211  0.00  0.00    +0.000 A 
ENDBRANCH  21  28
ENDBRANCH  20  21
ENDBRANCH  19  20
ENDBRANCH  18  19
ENDBRANCH   1  18
TORSDOF 8
ENDMDL
MODEL 7
REMARK VINA RESULT:      -7.1      2.630      5.059
REMARK  Name = 
REMARK  8 active torsions:
REMARK  status: ('A' for Active; 'I' for Inactive)
REMARK    1  A    between atoms: C_4  and  C_5
REMARK    2  A    between atoms: C_5  and  C_6
REMARK    3  A    between atoms: C_5  and  C_26
REMARK    4  A    between atoms: C_6  and  C_7
REMARK    5  A    between atoms: C_7  and  N_8
REMARK    6  A    between atoms: N_8  and  C_9
REMARK    7  A    between atoms: C_9  and  C_10
REMARK    8  A    between atoms: C_10  and  C_11
REMARK                            x       y       z     vdW  Elec       q    Type
REMARK                         _______ _______ _______ _____ _____    ______ ____
ROOT
ATOM      1  C   UNL     1      37.806   4.065  15.402  0.00  0.00    +0.000 C 
ENDROOT
BRANCH   1   2
ATOM      2  C   UNL     1      36.659   3.103  15.403  0.00  0.00    +0.000 C 
ATOM      3  C   UNL     1      36.380   2.700  16.845  0.00  0.00    +0.000 C 
ATOM      4  C   UNL     1      35.197   1.777  16.938  0.00  0.00    +0.000 C 
ATOM      5  O   UNL     1      34.247   1.958  15.957  0.00  0.00    +0.000 OA
ATOM      6  C   UNL     1      34.175   3.236  15.472  0.00  0.00    +0.000 C 
ATOM      7  C   UNL     1      35.445   3.672  14.743  0.00  0.00    +0.000 C 
BRANCH   2   8
ATOM      8  C   UNL     1      37.046   1.852  14.645  0.00  0.00    +0.000 A 
ATOM      9  C   UNL     1      36.623   1.607  13.347  0.00  0.00    +0.000 A 
ATOM     10  C   UNL     1      36.985   0.435  12.715  0.00  0.00    +0.000 A 
ATOM     11  C   UNL     1      37.754  -0.540  13.291  0.00  0.00    +0.000 A 
ATOM     12  C   UNL     1      38.185  -0.295  14.608  0.00  0.00    +0.000 A 
ATOM     13  C   UNL     1      37.819   0.879  15.231  0.00  0.00    +0.000 A 
ATOM     14  O   UNL     1      38.962  -1.261  15.204  0.00  0.00    +0.000 OA
ATOM     15  C   UNL     1      39.613  -2.311  14.558  0.00  0.00    +0.000 C 
ATOM     16  C   UNL     1      39.081  -2.628  13.198  0.00  0.00    +0.000 C 
ATOM     17  O   UNL     1      38.142  -1.710  12.716  0.00  0.00    +0.000 OA
ENDBRANCH   2   8
ENDBRANCH   1   2
BRANCH   1  18
ATOM     18  N   UNL     1      38.525   3.876  16.688  0.00  0.00    +0.000 NA
BRANCH  18  19
ATOM     19  C   UNL     1      39.241   5.179  16.822  0.00  0.00    +0.000 C 
BRANCH  19  20
ATOM     20  C   UNL     1      39.427   5.362  18.302  0.00  0.00    +0.000 C 
BRANCH  20  21
ATOM     21  C   UNL     1      40.059   6.612  18.693  0.00  0.00    +0.000 C 
BRANCH  21  25
ATOM     22  C   UNL     1      43.965   6.475  20.283  0.00  0.00    +0.000 A 
ATOM     23  C   UNL     1      43.784   6.866  18.975  0.00  0.00    +0.000 A 
ATOM     24  C   UNL     1      42.521   6.909  18.445  0.00  0.00    +0.000 A 
ATOM     25  C   UNL     1      41.424   6.564  19.213  0.00  0.00    +0.000 A 
ATOM     26  C   UNL     1      41.610   6.173  20.525  0.00  0.00    +0.000 A 
ATOM     27  C   UNL     1      42.870   6.124  21.067  0.00  0.00    +0.000 A 
ENDBRANCH  21  25
BRANCH  21  28
ATOM     28  C   UNL     1      39.269   7.668  19.286  0.00  0.00    +0.000 A 
ATOM     29  C   UNL     1      39.904   8.583  20.119  0.00  0.00    +0.000 A 
ATOM     30  C   UNL     1      39.234   9.605  20.727  0.00  0.00    +0.000 A 
ATOM     31  C   UNL     1      37.878   9.763  20.534  0.00  0.00    +0.000 A 
ATOM     32  C   UNL     1      37.225   8.858  19.705  0.00  0.00    +0.000 A 
ATOM     33  C   UNL     1      37.912   7.842  19.101  0.00  0.00    +0.000 A 
ENDBRANCH  21  28
ENDBRANCH  20  21
ENDBRANCH  19  20
ENDBRANCH  18  19
ENDBRANCH   1  18
TORSDOF 8
ENDMDL
MODEL 8
REMARK VINA RESULT:      -7.0      1.794      3.830
REMARK  Name = 
REMARK  8 active torsions:
REMARK  status: ('A' for Active; 'I' for Inactive)
REMARK    1  A    between atoms: C_4  and  C_5
REMARK    2  A    between atoms: C_5  and  C_6
REMARK    3  A    between atoms: C_5  and  C_26
REMARK    4  A    between atoms: C_6  and  C_7
REMARK    5  A    between atoms: C_7  and  N_8
REMARK    6  A    between atoms: N_8  and  C_9
REMARK    7  A    between atoms: C_9  and  C_10
REMARK    8  A    between atoms: C_10  and  C_11
REMARK                            x       y       z     vdW  Elec       q    Type
REMARK                         _______ _______ _______ _____ _____    ______ ____
ROOT
ATOM      1  C   UNL     1      36.968  -0.984  16.702  0.00  0.00    +0.000 C 
ENDROOT
BRANCH   1   2
ATOM      2  C   UNL     1      37.245  -2.406  16.322  0.00  0.00    +0.000 C 
ATOM      3  C   UNL     1      37.838  -3.113  17.533  0.00  0.00    +0.000 C 
ATOM      4  C   UNL     1      38.089  -4.568  17.251  0.00  0.00    +0.000 C 
ATOM      5  O   UNL     1      37.232  -5.132  16.332  0.00  0.00    +0.000 OA
ATOM      6  C   UNL     1      35.991  -4.555  16.291  0.00  0.00    +0.000 C 
ATOM      7  C   UNL     1      36.023  -3.103  15.819  0.00  0.00    +0.000 C 
BRANCH   2   8
ATOM      8  C   UNL     1      38.279  -2.444  15.218  0.00  0.00    +0.000 A 
ATOM      9  C   UNL     1      37.963  -2.794  13.913  0.00  0.00    +0.000 A 
ATOM     10  C   UNL     1      38.953  -2.838  12.954  0.00  0.00    +0.000 A 
ATOM     11  C   UNL     1      40.270  -2.555  13.199  0.00  0.00    +0.000 A 
ATOM     12  C   UNL     1      40.594  -2.199  14.521  0.00  0.00    +0.000 A 
ATOM     13  C   UNL     1      39.598  -2.157  15.473  0.00  0.00    +0.000 A 
ATOM     14  O   UNL     1      41.912  -1.908  14.786  0.00  0.00    +0.000 OA
ATOM     15  C   UNL     1      42.905  -1.638  13.845  0.00  0.00    +0.000 C 
ATOM     16  C   UNL     1      42.591  -2.110  12.461  0.00  0.00    +0.000 C 
ATOM     17  O   UNL     1      41.285  -2.580  12.293  0.00  0.00    +0.000 OA
ENDBRANCH   2   8
ENDBRANCH   1   2
BRANCH   1  18
ATOM     18  N   UNL     1      35.586  -0.681  16.248  0.00  0.00    +0.000 NA
BRANCH  18  19
ATOM     19  C   UNL     1      35.719   0.747  15.831  0.00  0.00    +0.000 C 
BRANCH  19  20
ATOM     20  C   UNL     1      36.347   0.690  14.466  0.00  0.00    +0.000 C 
BRANCH  20  21
ATOM     21  C   UNL     1      37.547   1.495  14.308  0.00  0.00    +0.000 C 
BRANCH  21  25
ATOM     22  C   UNL     1      37.264   5.645  15.014  0.00  0.00    +0.000 A 
ATOM     23  C   UNL     1      38.057   4.876  15.835  0.00  0.00    +0.000 A 
ATOM     24  C   UNL     1      38.153   3.525  15.620  0.00  0.00    +0.000 A 
ATOM     25  C   UNL     1      37.461   2.927  14.583  0.00  0.00    +0.000 A 
ATOM     26  C   UNL     1      36.666   3.703  13.761  0.00  0.00    +0.000 A 
ATOM     27  C   UNL     1      36.560   5.056  13.967  0.00  0.00    +0.000 A 
ENDBRANCH  21  25
BRANCH  21  28
ATOM     28  C   UNL     1      38.498   1.180  13.265  0.00  0.00    +0.000 A 
ATOM     29  C   UNL     1      38.020   0.662  12.066  0.00  0.00    +0.000 A 
ATOM     30  C   UNL     1      38.847   0.328  11.033  0.00  0.00    +0.000 A 
ATOM     31  C   UNL     1      40.211   0.495  11.149  0.00  0.00    +0.000 A 
ATOM     32  C   UNL     1      40.708   1.012  12.339  0.00  0.00    +0.000 A 
ATOM     33  C   UNL     1      39.866   1.344  13.363  0.00  0.00    +0.000 A 
ENDBRANCH  21  28
ENDBRANCH  20  21
ENDBRANCH  19  20
ENDBRANCH  18  19
ENDBRANCH   1  18
TORSDOF 8
ENDMDL
MODEL 9
REMARK VINA RESULT:      -7.0     28.423     31.149
REMARK  Name = 
REMARK  8 active torsions:
REMARK  status: ('A' for Active; 'I' for Inactive)
REMARK    1  A    between atoms: C_4  and  C_5
REMARK    2  A    between atoms: C_5  and  C_6
REMARK    3  A    between atoms: C_5  and  C_26
REMARK    4  A    between atoms: C_6  and  C_7
REMARK    5  A    between atoms: C_7  and  N_8
REMARK    6  A    between atoms: N_8  and  C_9
REMARK    7  A    between atoms: C_9  and  C_10
REMARK    8  A    between atoms: C_10  and  C_11
REMARK                            x       y       z     vdW  Elec       q    Type
REMARK                         _______ _______ _______ _____ _____    ______ ____
ROOT
ATOM      1  C   UNL     1       7.761   1.789  10.675  0.00  0.00    +0.000 C 
ENDROOT
BRANCH   1   2
ATOM      2  C   UNL     1       8.813   1.477   9.657  0.00  0.00    +0.000 C 
ATOM      3  C   UNL     1       9.880   0.621  10.325  0.00  0.00    +0.000 C 
ATOM      4  C   UNL     1      10.947   0.212   9.348  0.00  0.00    +0.000 C 
ATOM      5  O   UNL     1      10.519   0.089   8.045  0.00  0.00    +0.000 OA
ATOM      6  C   UNL     1       9.201  -0.259   7.917  0.00  0.00    +0.000 C 
ATOM      7  C   UNL     1       8.247   0.810   8.446  0.00  0.00    +0.000 C 
BRANCH   2   8
ATOM      8  C   UNL     1       9.475   2.760   9.202  0.00  0.00    +0.000 A 
ATOM      9  C   UNL     1      10.417   3.427   9.972  0.00  0.00    +0.000 A 
ATOM     10  C   UNL     1      10.966   4.608   9.517  0.00  0.00    +0.000 A 
ATOM     11  C   UNL     1      10.641   5.194   8.324  0.00  0.00    +0.000 A 
ATOM     12  C   UNL     1       9.687   4.521   7.540  0.00  0.00    +0.000 A 
ATOM     13  C   UNL     1       9.143   3.341   8.002  0.00  0.00    +0.000 A 
ATOM     14  O   UNL     1       9.349   5.092   6.335  0.00  0.00    +0.000 OA
ATOM     15  C   UNL     1      10.053   6.097   5.671  0.00  0.00    +0.000 C 
ATOM     16  C   UNL     1      10.992   6.872   6.538  0.00  0.00    +0.000 C 
ATOM     17  O   UNL     1      11.151   6.353   7.826  0.00  0.00    +0.000 OA
ENDBRANCH   2   8
ENDBRANCH   1   2
BRANCH   1  18
ATOM     18  N   UNL     1       8.445   1.851  11.992  0.00  0.00    +0.000 NA
BRANCH  18  19
ATOM     19  C   UNL     1       7.911   3.132  12.544  0.00  0.00    +0.000 C 
BRANCH  19  20
ATOM     20  C   UNL     1       6.794   3.512  11.611  0.00  0.00    +0.000 C 
BRANCH  20  21
ATOM     21  C   UNL     1       6.486   4.932  11.568  0.00  0.00    +0.000 C 
BRANCH  21  25
ATOM     22  C   UNL     1       3.020   6.199  13.614  0.00  0.00    +0.000 A 
ATOM     23  C   UNL     1       3.699   7.097  12.822  0.00  0.00    +0.000 A 
ATOM     24  C   UNL     1       4.830   6.700  12.157  0.00  0.00    +0.000 A 
ATOM     25  C   UNL     1       5.295   5.403  12.273  0.00  0.00    +0.000 A 
ATOM     26  C   UNL     1       4.609   4.504  13.067  0.00  0.00    +0.000 A 
ATOM     27  C   UNL     1       3.476   4.890  13.740  0.00  0.00    +0.000 A 
ENDBRANCH  21  25
BRANCH  21  28
ATOM     28  C   UNL     1       6.774   5.701  10.378  0.00  0.00    +0.000 A 
ATOM     29  C   UNL     1       7.818   6.618  10.417  0.00  0.00    +0.000 A 
ATOM     30  C   UNL     1       8.152   7.392   9.344  0.00  0.00    +0.000 A 
ATOM     31  C   UNL     1       7.448   7.288   8.163  0.00  0.00    +0.000 A 
ATOM     32  C   UNL     1       6.401   6.376   8.103  0.00  0.00    +0.000 A 
ATOM     33  C   UNL     1       6.081   5.607   9.186  0.00  0.00    +0.000 A 
ENDBRANCH  21  28
ENDBRANCH  20  21
ENDBRANCH  19  20
ENDBRANCH  18  19
ENDBRANCH   1  18
TORSDOF 8
ENDMDL
MODEL 10
REMARK VINA RESULT:      -6.9      1.812      4.828
REMARK  Name = 
REMARK  8 active torsions:
REMARK  status: ('A' for Active; 'I' for Inactive)
REMARK    1  A    between atoms: C_4  and  C_5
REMARK    2  A    between atoms: C_5  and  C_6
REMARK    3  A    between atoms: C_5  and  C_26
REMARK    4  A    between atoms: C_6  and  C_7
REMARK    5  A    between atoms: C_7  and  N_8
REMARK    6  A    between atoms: N_8  and  C_9
REMARK    7  A    between atoms: C_9  and  C_10
REMARK    8  A    between atoms: C_10  and  C_11
REMARK                            x       y       z     vdW  Elec       q    Type
REMARK                         _______ _______ _______ _____ _____    ______ ____
ROOT
ATOM      1  C   UNL     1      38.660   0.856  12.264  0.00  0.00    +0.000 C 
ENDROOT
BRANCH   1   2
ATOM      2  C   UNL     1      39.799  -0.031  12.660  0.00  0.00    +0.000 C 
ATOM      3  C   UNL     1      40.244  -0.810  11.430  0.00  0.00    +0.000 C 
ATOM      4  C   UNL     1      41.429  -1.684  11.732  0.00  0.00    +0.000 C 
ATOM      5  O   UNL     1      42.259  -1.207  12.723  0.00  0.00    +0.000 OA
ATOM      6  C   UNL     1      42.274   0.157  12.835  0.00  0.00    +0.000 C 
ATOM      7  C   UNL     1      40.928   0.737  13.266  0.00  0.00    +0.000 C 
BRANCH   2   8
ATOM      8  C   UNL     1      39.326  -1.034  13.690  0.00  0.00    +0.000 A 
ATOM      9  C   UNL     1      39.908  -1.145  14.944  0.00  0.00    +0.000 A 
ATOM     10  C   UNL     1      39.452  -2.097  15.833  0.00  0.00    +0.000 A 
ATOM     11  C   UNL     1      38.436  -2.973  15.561  0.00  0.00    +0.000 A 
ATOM     12  C   UNL     1      37.843  -2.864  14.290  0.00  0.00    +0.000 A 
ATOM     13  C   UNL     1      38.305  -1.909  13.409  0.00  0.00    +0.000 A 
ATOM     14  O   UNL     1      36.818  -3.733  14.000  0.00  0.00    +0.000 OA
ATOM     15  C   UNL     1      36.105  -4.506  14.916  0.00  0.00    +0.000 C 
ATOM     16  C   UNL     1      36.792  -4.699  16.230  0.00  0.00    +0.000 C 
ATOM     17  O   UNL     1      37.946  -3.928  16.398  0.00  0.00    +0.000 OA
ENDBRANCH   2   8
ENDBRANCH   1   2
BRANCH   1  18
ATOM     18  N   UNL     1      38.877   2.160  12.943  0.00  0.00    +0.000 NA
BRANCH  18  19
ATOM     19  C   UNL     1      37.715   2.952  12.439  0.00  0.00    +0.000 C 
BRANCH  19  20
ATOM     20  C   UNL     1      37.258   3.753  13.627  0.00  0.00    +0.000 C 
BRANCH  20  21
ATOM     21  C   UNL     1      37.636   3.207  14.920  0.00  0.00    +0.000 C 
BRANCH  21  25
ATOM     22  C   UNL     1      35.017   0.463  16.767  0.00  0.00    +0.000 A 
ATOM     23  C   UNL     1      36.240   0.024  16.314  0.00  0.00    +0.000 A 
ATOM     24  C   UNL     1      37.098   0.904  15.707  0.00  0.00    +0.000 A 
ATOM     25  C   UNL     1      36.746   2.231  15.546  0.00  0.00    +0.000 A 
ATOM     26  C   UNL     1      35.517   2.668  16.003  0.00  0.00    +0.000 A 
ATOM     27  C   UNL     1      34.649   1.796  16.612  0.00  0.00    +0.000 A 
ENDBRANCH  21  25
BRANCH  21  28
ATOM     28  C   UNL     1      38.326   4.036  15.882  0.00  0.00    +0.000 A 
ATOM     29  C   UNL     1      39.370   4.840  15.439  0.00  0.00    +0.000 A 
ATOM     30  C   UNL     1      40.081   5.645  16.280  0.00  0.00    +0.000 A 
ATOM     31  C   UNL     1      39.782   5.686  17.625  0.00  0.00    +0.000 A 
ATOM     32  C   UNL     1      38.741   4.890  18.089  0.00  0.00    +0.000 A 
ATOM     33  C   UNL     1      38.037   4.091  17.232  0.00  0.00    +0.000 A 
ENDBRANCH  21  28
ENDBRANCH  20  21
ENDBRANCH  19  20
ENDBRANCH  18  19
ENDBRANCH   1  18
TORSDOF 8
ENDMDL
