MODEL 1
REMARK VINA RESULT:      -6.1      0.000      0.000
REMARK  Name = 
REMARK  4 active torsions:
REMARK  status: ('A' for Active; 'I' for Inactive)
REMARK    1  A    between atoms: C_3  and  N_4
REMARK    2  A    between atoms: C_3  and  C_13
REMARK    3  A    between atoms: N_4  and  N_5
REMARK    4  A    between atoms: C_6  and  C_8
REMARK                            x       y       z     vdW  Elec       q    Type
REMARK                         _______ _______ _______ _____ _____    ______ ____
ROOT
ATOM      1  C   UNL     1      32.601  20.647  12.329  0.00  0.00    +0.000 C 
ATOM      2  C   UNL     1      31.331  21.283  12.773  0.00  0.00    +0.000 C 
ATOM      3  C   UNL     1      30.756  22.161  11.998  0.00  0.00    +0.000 C 
ENDROOT
BRANCH   3   4
ATOM      4  C   UNL     1      29.499  22.805  12.414  0.00  0.00    +0.000 A 
ATOM      5  C   UNL     1      29.265  23.416  13.627  0.00  0.00    +0.000 A 
ATOM      6  C   UNL     1      27.983  23.876  13.600  0.00  0.00    +0.000 A 
ATOM      7  C   UNL     1      27.461  23.534  12.369  0.00  0.00    +0.000 A 
ATOM      8  C   UNL     1      26.098  23.826  11.885  0.00  0.00    +0.000 C 
ATOM      9  O   UNL     1      28.407  22.905  11.720  0.00  0.00    +0.000 OA
ENDBRANCH   3   4
BRANCH   3  10
ATOM     10  N   UNL     1      31.359  22.485  10.755  0.00  0.00    +0.000 NA
BRANCH  10  11
ATOM     11  N   UNL     1      30.773  21.962   9.594  0.00  0.00    +0.000 NA
ATOM     12  C   UNL     1      31.620  21.524   8.553  0.00  0.00    +0.000 C 
ATOM     13  O   UNL     1      32.863  21.590   8.636  0.00  0.00    +0.000 OA
BRANCH  12  14
ATOM     14  C   UNL     1      31.014  20.980   7.345  0.00  0.00    +0.000 A 
ATOM     15  C   UNL     1      30.319  19.816   7.171  0.00  0.00    +0.000 A 
ATOM     16  C   UNL     1      29.862  19.535   5.959  0.00  0.00    +0.000 A 
ATOM     17  C   UNL     1      30.116  20.429   4.955  0.00  0.00    +0.000 A 
ATOM     18  S   UNL     1      31.001  21.647   5.773  0.00  0.00    +0.000 S 
ENDBRANCH  12  14
ENDBRANCH  10  11
ENDBRANCH   3  10
TORSDOF 4
ENDMDL
MODEL 2
REMARK VINA RESULT:      -5.4     32.892     34.500
REMARK  Name = 
REMARK  4 active torsions:
REMARK  status: ('A' for Active; 'I' for Inactive)
REMARK    1  A    between atoms: C_3  and  N_4
REMARK    2  A    between atoms: C_3  and  C_13
REMARK    3  A    between atoms: N_4  and  N_5
REMARK    4  A    between atoms: C_6  and  C_8
REMARK                            x       y       z     vdW  Elec       q    Type
REMARK                         _______ _______ _______ _____ _____    ______ ____
ROOT
ATOM      1  C   UNL     1      32.773  -5.473  35.874  0.00  0.00    +0.000 C 
ATOM      2  C   UNL     1      32.645  -4.026  35.549  0.00  0.00    +0.000 C 
ATOM      3  C   UNL     1      33.380  -3.521  34.597  0.00  0.00    +0.000 C 
ENDROOT
BRANCH   3   4
ATOM      4  C   UNL     1      33.273  -2.093  34.256  0.00  0.00    +0.000 A 
ATOM      5  C   UNL     1      32.416  -1.184  34.839  0.00  0.00    +0.000 A 
ATOM      6  C   UNL     1      32.638   0.017  34.234  0.00  0.00    +0.000 A 
ATOM      7  C   UNL     1      33.627  -0.186  33.294  0.00  0.00    +0.000 A 
ATOM      8  C   UNL     1      34.200   0.832  32.392  0.00  0.00    +0.000 C 
ATOM      9  O   UNL     1      33.956  -1.451  33.360  0.00  0.00    +0.000 OA
ENDBRANCH   3   4
BRANCH   3  10
ATOM     10  N   UNL     1      34.282  -4.367  33.898  0.00  0.00    +0.000 NA
BRANCH  10  11
ATOM     11  N   UNL     1      33.940  -4.739  32.591  0.00  0.00    +0.000 NA
ATOM     12  C   UNL     1      34.773  -5.657  31.915  0.00  0.00    +0.000 C 
ATOM     13  O   UNL     1      35.796  -6.139  32.443  0.00  0.00    +0.000 OA
BRANCH  12  14
ATOM     14  C   UNL     1      34.422  -6.047  30.556  0.00  0.00    +0.000 A 
ATOM     15  C   UNL     1      33.730  -5.352  29.605  0.00  0.00    +0.000 A 
ATOM     16  C   UNL     1      33.533  -5.929  28.428  0.00  0.00    +0.000 A 
ATOM     17  C   UNL     1      34.035  -7.187  28.238  0.00  0.00    +0.000 A 
ATOM     18  S   UNL     1      34.775  -7.510  29.749  0.00  0.00    +0.000 S 
ENDBRANCH  12  14
ENDBRANCH  10  11
ENDBRANCH   3  10
TORSDOF 4
ENDMDL
MODEL 3
REMARK VINA RESULT:      -5.1     29.520     30.795
REMARK  Name = 
REMARK  4 active torsions:
REMARK  status: ('A' for Active; 'I' for Inactive)
REMARK    1  A    between atoms: C_3  and  N_4
REMARK    2  A    between atoms: C_3  and  C_13
REMARK    3  A    between atoms: N_4  and  N_5
REMARK    4  A    between atoms: C_6  and  C_8
REMARK                            x       y       z     vdW  Elec       q    Type
REMARK                         _______ _______ _______ _____ _____    ______ ____
ROOT
ATOM      1  C   UNL     1      19.687  14.107  38.707  0.00  0.00    +0.000 C 
ATOM      2  C   UNL     1      20.811  13.192  38.367  0.00  0.00    +0.000 C 
ATOM      3  C   UNL     1      20.548  11.955  38.046  0.00  0.00    +0.000 C 
ENDROOT
BRANCH   3   4
ATOM      4  C   UNL     1      21.642  11.031  37.706  0.00  0.00    +0.000 A 
ATOM      5  C   UNL     1      21.753   9.721  38.119  0.00  0.00    +0.000 A 
ATOM      6  C   UNL     1      22.905   9.230  37.583  0.00  0.00    +0.000 A 
ATOM      7  C   UNL     1      23.474  10.254  36.853  0.00  0.00    +0.000 A 
ATOM      8  C   UNL     1      24.736  10.189  36.091  0.00  0.00    +0.000 C 
ATOM      9  O   UNL     1      22.677  11.286  36.967  0.00  0.00    +0.000 OA
ENDBRANCH   3   4
BRANCH   3  10
ATOM     10  N   UNL     1      19.198  11.517  38.032  0.00  0.00    +0.000 NA
BRANCH  10  11
ATOM     11  N   UNL     1      18.637  11.185  36.792  0.00  0.00    +0.000 NA
ATOM     12  C   UNL     1      17.360  11.698  36.474  0.00  0.00    +0.000 C 
ATOM     13  O   UNL     1      16.724  12.430  37.258  0.00  0.00    +0.000 OA
BRANCH  12  14
ATOM     14  C   UNL     1      16.774  11.356  35.184  0.00  0.00    +0.000 A 
ATOM     15  C   UNL     1      17.262  10.550  34.196  0.00  0.00    +0.000 A 
ATOM     16  C   UNL     1      16.534  10.394  33.099  0.00  0.00    +0.000 A 
ATOM     17  C   UNL     1      15.337  11.052  33.025  0.00  0.00    +0.000 A 
ATOM     18  S   UNL     1      15.286  11.875  34.527  0.00  0.00    +0.000 S 
ENDBRANCH  12  14
ENDBRANCH  10  11
ENDBRANCH   3  10
TORSDOF 4
ENDMDL
MODEL 4
REMARK VINA RESULT:      -5.1     14.538     16.953
REMARK  Name = 
REMARK  4 active torsions:
REMARK  status: ('A' for Active; 'I' for Inactive)
REMARK    1  A    between atoms: C_3  and  N_4
REMARK    2  A    between atoms: C_3  and  C_13
REMARK    3  A    between atoms: N_4  and  N_5
REMARK    4  A    between atoms: C_6  and  C_8
REMARK                            x       y       z     vdW  Elec       q    Type
REMARK                         _______ _______ _______ _____ _____    ______ ____
ROOT
ATOM      1  C   UNL     1      31.908  22.913  28.268  0.00  0.00    +0.000 C 
ATOM      2  C   UNL     1      30.621  23.161  28.975  0.00  0.00    +0.000 C 
ATOM      3  C   UNL     1      29.511  22.732  28.440  0.00  0.00    +0.000 C 
ENDROOT
BRANCH   3   4
ATOM      4  C   UNL     1      28.225  22.965  29.118  0.00  0.00    +0.000 A 
ATOM      5  C   UNL     1      27.409  21.996  29.659  0.00  0.00    +0.000 A 
ATOM      6  C   UNL     1      26.326  22.635  30.185  0.00  0.00    +0.000 A 
ATOM      7  C   UNL     1      26.507  23.984  29.952  0.00  0.00    +0.000 A 
ATOM      8  C   UNL     1      25.588  25.070  30.345  0.00  0.00    +0.000 C 
ATOM      9  O   UNL     1      27.646  24.108  29.320  0.00  0.00    +0.000 OA
ENDBRANCH   3   4
BRANCH   3  10
ATOM     10  N   UNL     1      29.562  22.042  27.201  0.00  0.00    +0.000 NA
BRANCH  10  11
ATOM     11  N   UNL     1      28.686  22.460  26.189  0.00  0.00    +0.000 NA
ATOM     12  C   UNL     1      29.232  22.847  24.946  0.00  0.00    +0.000 C 
ATOM     13  O   UNL     1      30.460  22.828  24.725  0.00  0.00    +0.000 OA
BRANCH  12  14
ATOM     14  C   UNL     1      28.325  23.281  23.892  0.00  0.00    +0.000 A 
ATOM     15  C   UNL     1      26.960  23.269  23.863  0.00  0.00    +0.000 A 
ATOM     16  C   UNL     1      26.353  23.721  22.774  0.00  0.00    +0.000 A 
ATOM     17  C   UNL     1      27.133  24.174  21.746  0.00  0.00    +0.000 A 
ATOM     18  S   UNL     1      28.714  23.939  22.365  0.00  0.00    +0.000 S 
ENDBRANCH  12  14
ENDBRANCH  10  11
ENDBRANCH   3  10
TORSDOF 4
ENDMDL
MODEL 5
REMARK VINA RESULT:      -5.0      3.442      6.313
REMARK  Name = 
REMARK  4 active torsions:
REMARK  status: ('A' for Active; 'I' for Inactive)
REMARK    1  A    between atoms: C_3  and  N_4
REMARK    2  A    between atoms: C_3  and  C_13
REMARK    3  A    between atoms: N_4  and  N_5
REMARK    4  A    between atoms: C_6  and  C_8
REMARK                            x       y       z     vdW  Elec       q    Type
REMARK                         _______ _______ _______ _____ _____    ______ ____
ROOT
ATOM      1  C   UNL     1      34.626  19.997  11.858  0.00  0.00    +0.000 C 
ATOM      2  C   UNL     1      35.056  21.268  11.212  0.00  0.00    +0.000 C 
ATOM      3  C   UNL     1      34.177  21.977  10.558  0.00  0.00    +0.000 C 
ENDROOT
BRANCH   3   4
ATOM      4  C   UNL     1      34.576  23.237   9.911  0.00  0.00    +0.000 A 
ATOM      5  C   UNL     1      35.521  24.124  10.379  0.00  0.00    +0.000 A 
ATOM      6  C   UNL     1      35.581  25.151   9.486  0.00  0.00    +0.000 A 
ATOM      7  C   UNL     1      34.668  24.868   8.490  0.00  0.00    +0.000 A 
ATOM      8  C   UNL     1      34.382  25.698   7.303  0.00  0.00    +0.000 C 
ATOM      9  O   UNL     1      34.111  23.726   8.803  0.00  0.00    +0.000 OA
ENDBRANCH   3   4
BRANCH   3  10
ATOM     10  N   UNL     1      32.837  21.515  10.481  0.00  0.00    +0.000 NA
BRANCH  10  11
ATOM     11  N   UNL     1      31.850  22.277  11.121  0.00  0.00    +0.000 NA
ATOM     12  C   UNL     1      30.695  21.618  11.595  0.00  0.00    +0.000 C 
ATOM     13  O   UNL     1      30.529  20.389  11.459  0.00  0.00    +0.000 OA
BRANCH  12  14
ATOM     14  C   UNL     1      29.667  22.406  12.261  0.00  0.00    +0.000 A 
ATOM     15  C   UNL     1      29.740  23.123  13.422  0.00  0.00    +0.000 A 
ATOM     16  C   UNL     1      28.654  23.764  13.831  0.00  0.00    +0.000 A 
ATOM     17  C   UNL     1      27.526  23.669  13.063  0.00  0.00    +0.000 A 
ATOM     18  S   UNL     1      28.050  22.664  11.778  0.00  0.00    +0.000 S 
ENDBRANCH  12  14
ENDBRANCH  10  11
ENDBRANCH   3  10
TORSDOF 4
ENDMDL
MODEL 6
REMARK VINA RESULT:      -4.9     15.002     17.942
REMARK  Name = 
REMARK  4 active torsions:
REMARK  status: ('A' for Active; 'I' for Inactive)
REMARK    1  A    between atoms: C_3  and  N_4
REMARK    2  A    between atoms: C_3  and  C_13
REMARK    3  A    between atoms: N_4  and  N_5
REMARK    4  A    between atoms: C_6  and  C_8
REMARK                            x       y       z     vdW  Elec       q    Type
REMARK                         _______ _______ _______ _____ _____    ______ ____
ROOT
ATOM      1  C   UNL     1      25.687  23.343  23.281  0.00  0.00    +0.000 C 
ATOM      2  C   UNL     1      27.150  23.586  23.415  0.00  0.00    +0.000 C 
ATOM      3  C   UNL     1      27.759  23.207  24.505  0.00  0.00    +0.000 C 
ENDROOT
BRANCH   3   4
ATOM      4  C   UNL     1      29.205  23.436  24.663  0.00  0.00    +0.000 A 
ATOM      5  C   UNL     1      30.178  22.462  24.706  0.00  0.00    +0.000 A 
ATOM      6  C   UNL     1      31.373  23.099  24.863  0.00  0.00    +0.000 A 
ATOM      7  C   UNL     1      31.100  24.451  24.911  0.00  0.00    +0.000 A 
ATOM      8  C   UNL     1      32.087  25.537  25.071  0.00  0.00    +0.000 C 
ATOM      9  O   UNL     1      29.804  24.580  24.787  0.00  0.00    +0.000 OA
ENDBRANCH   3   4
BRANCH   3  10
ATOM     10  N   UNL     1      27.009  22.575  25.532  0.00  0.00    +0.000 NA
BRANCH  10  11
ATOM     11  N   UNL     1      26.411  23.397  26.497  0.00  0.00    +0.000 NA
ATOM     12  C   UNL     1      26.876  23.316  27.828  0.00  0.00    +0.000 C 
ATOM     13  O   UNL     1      27.794  22.542  28.165  0.00  0.00    +0.000 OA
BRANCH  12  14
ATOM     14  C   UNL     1      26.257  24.169  28.834  0.00  0.00    +0.000 A 
ATOM     15  C   UNL     1      26.374  24.131  30.195  0.00  0.00    +0.000 A 
ATOM     16  C   UNL     1      25.702  25.025  30.906  0.00  0.00    +0.000 A 
ATOM     17  C   UNL     1      24.930  25.931  30.232  0.00  0.00    +0.000 A 
ATOM     18  S   UNL     1      25.189  25.480  28.600  0.00  0.00    +0.000 S 
ENDBRANCH  12  14
ENDBRANCH  10  11
ENDBRANCH   3  10
TORSDOF 4
ENDMDL
MODEL 7
REMARK VINA RESULT:      -4.9     35.611     36.375
REMARK  Name = 
REMARK  4 active torsions:
REMARK  status: ('A' for Active; 'I' for Inactive)
REMARK    1  A    between atoms: C_3  and  N_4
REMARK    2  A    between atoms: C_3  and  C_13
REMARK    3  A    between atoms: N_4  and  N_5
REMARK    4  A    between atoms: C_6  and  C_8
REMARK                            x       y       z     vdW  Elec       q    Type
REMARK                         _______ _______ _______ _____ _____    ______ ____
ROOT
ATOM      1  C   UNL     1      17.196  -9.841  29.041  0.00  0.00    +0.000 C 
ATOM      2  C   UNL     1      18.172  -8.920  28.396  0.00  0.00    +0.000 C 
ATOM      3  C   UNL     1      17.777  -8.166  27.407  0.00  0.00    +0.000 C 
ENDROOT
BRANCH   3   4
ATOM      4  C   UNL     1      18.723  -7.248  26.753  0.00  0.00    +0.000 A 
ATOM      5  C   UNL     1      18.587  -5.880  26.655  0.00  0.00    +0.000 A 
ATOM      6  C   UNL     1      19.676  -5.419  25.977  0.00  0.00    +0.000 A 
ATOM      7  C   UNL     1      20.454  -6.518  25.676  0.00  0.00    +0.000 A 
ATOM      8  C   UNL     1      21.737  -6.509  24.946  0.00  0.00    +0.000 C 
ATOM      9  O   UNL     1      19.834  -7.563  26.162  0.00  0.00    +0.000 OA
ENDBRANCH   3   4
BRANCH   3  10
ATOM     10  N   UNL     1      16.427  -8.246  26.975  0.00  0.00    +0.000 NA
BRANCH  10  11
ATOM     11  N   UNL     1      16.195  -8.586  25.635  0.00  0.00    +0.000 NA
ATOM     12  C   UNL     1      14.883  -8.463  25.129  0.00  0.00    +0.000 C 
ATOM     13  O   UNL     1      13.933  -8.066  25.835  0.00  0.00    +0.000 OA
BRANCH  12  14
ATOM     14  C   UNL     1      14.637  -8.815  23.737  0.00  0.00    +0.000 A 
ATOM     15  C   UNL     1      15.432  -9.498  22.861  0.00  0.00    +0.000 A 
ATOM     16  C   UNL     1      14.983  -9.694  21.629  0.00  0.00    +0.000 A 
ATOM     17  C   UNL     1      13.748  -9.199  21.311  0.00  0.00    +0.000 A 
ATOM     18  S   UNL     1      13.264  -8.467  22.783  0.00  0.00    +0.000 S 
ENDBRANCH  12  14
ENDBRANCH  10  11
ENDBRANCH   3  10
TORSDOF 4
ENDMDL
MODEL 8
REMARK VINA RESULT:      -4.9     28.909     30.232
REMARK  Name = 
REMARK  4 active torsions:
REMARK  status: ('A' for Active; 'I' for Inactive)
REMARK    1  A    between atoms: C_3  and  N_4
REMARK    2  A    between atoms: C_3  and  C_13
REMARK    3  A    between atoms: N_4  and  N_5
REMARK    4  A    between atoms: C_6  and  C_8
REMARK                            x       y       z     vdW  Elec       q    Type
REMARK                         _______ _______ _______ _____ _____    ______ ____
ROOT
ATOM      1  C   UNL     1      37.614   6.406  37.679  0.00  0.00    +0.000 C 
ATOM      2  C   UNL     1      36.506   5.710  36.968  0.00  0.00    +0.000 C 
ATOM      3  C   UNL     1      35.960   6.282  35.930  0.00  0.00    +0.000 C 
ENDROOT
BRANCH   3   4
ATOM      4  C   UNL     1      34.863   5.616  35.210  0.00  0.00    +0.000 A 
ATOM      5  C   UNL     1      33.588   6.111  35.040  0.00  0.00    +0.000 A 
ATOM      6  C   UNL     1      32.894   5.185  34.320  0.00  0.00    +0.000 A 
ATOM      7  C   UNL     1      33.763   4.143  34.067  0.00  0.00    +0.000 A 
ATOM      8  C   UNL     1      33.455   2.910  33.316  0.00  0.00    +0.000 C 
ATOM      9  O   UNL     1      34.906   4.462  34.619  0.00  0.00    +0.000 OA
ENDBRANCH   3   4
BRANCH   3  10
ATOM     10  N   UNL     1      36.439   7.551  35.509  0.00  0.00    +0.000 NA
BRANCH  10  11
ATOM     11  N   UNL     1      35.580   8.649  35.656  0.00  0.00    +0.000 NA
ATOM     12  C   UNL     1      36.045   9.773  36.373  0.00  0.00    +0.000 C 
ATOM     13  O   UNL     1      37.186   9.815  36.876  0.00  0.00    +0.000 OA
BRANCH  12  14
ATOM     14  C   UNL     1      35.156  10.916  36.528  0.00  0.00    +0.000 A 
ATOM     15  C   UNL     1      33.792  10.951  36.609  0.00  0.00    +0.000 A 
ATOM     16  C   UNL     1      33.204  12.131  36.748  0.00  0.00    +0.000 A 
ATOM     17  C   UNL     1      33.999  13.242  36.802  0.00  0.00    +0.000 A 
ATOM     18  S   UNL     1      35.568  12.569  36.653  0.00  0.00    +0.000 S 
ENDBRANCH  12  14
ENDBRANCH  10  11
ENDBRANCH   3  10
TORSDOF 4
ENDMDL
MODEL 9
REMARK VINA RESULT:      -4.9     35.909     36.581
REMARK  Name = 
REMARK  4 active torsions:
REMARK  status: ('A' for Active; 'I' for Inactive)
REMARK    1  A    between atoms: C_3  and  N_4
REMARK    2  A    between atoms: C_3  and  C_13
REMARK    3  A    between atoms: N_4  and  N_5
REMARK    4  A    between atoms: C_6  and  C_8
REMARK                            x       y       z     vdW  Elec       q    Type
REMARK                         _______ _______ _______ _____ _____    ______ ____
ROOT
ATOM      1  C   UNL     1      14.842 -10.699  26.949  0.00  0.00    +0.000 C 
ATOM      2  C   UNL     1      16.056  -9.838  26.902  0.00  0.00    +0.000 C 
ATOM      3  C   UNL     1      16.010  -8.711  26.246  0.00  0.00    +0.000 C 
ENDROOT
BRANCH   3   4
ATOM      4  C   UNL     1      17.196  -7.842  26.184  0.00  0.00    +0.000 A 
ATOM      5  C   UNL     1      18.449  -8.213  25.746  0.00  0.00    +0.000 A 
ATOM      6  C   UNL     1      19.250  -7.115  25.853  0.00  0.00    +0.000 A 
ATOM      7  C   UNL     1      18.465  -6.097  26.357  0.00  0.00    +0.000 A 
ATOM      8  C   UNL     1      18.902  -4.716  26.642  0.00  0.00    +0.000 C 
ATOM      9  O   UNL     1      17.267  -6.593  26.529  0.00  0.00    +0.000 OA
ENDBRANCH   3   4
BRANCH   3  10
ATOM     10  N   UNL     1      14.804  -8.339  25.596  0.00  0.00    +0.000 NA
BRANCH  10  11
ATOM     11  N   UNL     1      14.745  -8.488  24.204  0.00  0.00    +0.000 NA
ATOM     12  C   UNL     1      13.486  -8.395  23.572  0.00  0.00    +0.000 C 
ATOM     13  O   UNL     1      12.435  -8.187  24.211  0.00  0.00    +0.000 OA
BRANCH  12  14
ATOM     14  C   UNL     1      13.421  -8.549  22.124  0.00  0.00    +0.000 A 
ATOM     15  C   UNL     1      13.020  -9.625  21.383  0.00  0.00    +0.000 A 
ATOM     16  C   UNL     1      13.052  -9.521  20.062  0.00  0.00    +0.000 A 
ATOM     17  C   UNL     1      13.484  -8.341  19.522  0.00  0.00    +0.000 A 
ATOM     18  S   UNL     1      13.834  -7.413  20.919  0.00  0.00    +0.000 S 
ENDBRANCH  12  14
ENDBRANCH  10  11
ENDBRANCH   3  10
TORSDOF 4
ENDMDL
MODEL 10
REMARK VINA RESULT:      -4.8     33.147     35.147
REMARK  Name = 
REMARK  4 active torsions:
REMARK  status: ('A' for Active; 'I' for Inactive)
REMARK    1  A    between atoms: C_3  and  N_4
REMARK    2  A    between atoms: C_3  and  C_13
REMARK    3  A    between atoms: N_4  and  N_5
REMARK    4  A    between atoms: C_6  and  C_8
REMARK                            x       y       z     vdW  Elec       q    Type
REMARK                         _______ _______ _______ _____ _____    ______ ____
ROOT
ATOM      1  C   UNL     1      31.636  -6.878  34.743  0.00  0.00    +0.000 C 
ATOM      2  C   UNL     1      32.041  -6.959  33.313  0.00  0.00    +0.000 C 
ATOM      3  C   UNL     1      32.940  -6.130  32.859  0.00  0.00    +0.000 C 
ENDROOT
BRANCH   3   4
ATOM      4  C   UNL     1      33.358  -6.189  31.449  0.00  0.00    +0.000 A 
ATOM      5  C   UNL     1      33.215  -5.182  30.519  0.00  0.00    +0.000 A 
ATOM      6  C   UNL     1      33.728  -5.648  29.346  0.00  0.00    +0.000 A 
ATOM      7  C   UNL     1      34.172  -6.932  29.586  0.00  0.00    +0.000 A 
ATOM      8  C   UNL     1      34.806  -7.836  28.606  0.00  0.00    +0.000 C 
ATOM      9  O   UNL     1      33.924  -7.188  30.845  0.00  0.00    +0.000 OA
ENDBRANCH   3   4
BRANCH   3  10
ATOM     10  N   UNL     1      33.505  -5.173  33.743  0.00  0.00    +0.000 NA
BRANCH  10  11
ATOM     11  N   UNL     1      33.232  -3.821  33.496  0.00  0.00    +0.000 NA
ATOM     12  C   UNL     1      33.931  -2.848  34.241  0.00  0.00    +0.000 C 
ATOM     13  O   UNL     1      34.777  -3.154  35.106  0.00  0.00    +0.000 OA
BRANCH  12  14
ATOM     14  C   UNL     1      33.650  -1.441  33.987  0.00  0.00    +0.000 A 
ATOM     15  C   UNL     1      34.222  -0.591  33.083  0.00  0.00    +0.000 A 
ATOM     16  C   UNL     1      33.791   0.662  33.042  0.00  0.00    +0.000 A 
ATOM     17  C   UNL     1      32.798   1.027  33.909  0.00  0.00    +0.000 A 
ATOM     18  S   UNL     1      32.509  -0.432  34.759  0.00  0.00    +0.000 S 
ENDBRANCH  12  14
ENDBRANCH  10  11
ENDBRANCH   3  10
TORSDOF 4
ENDMDL
