MODEL 1
REMARK VINA RESULT:      -7.9      0.000      0.000
REMARK  Name = 
REMARK  9 active torsions:
REMARK  status: ('A' for Active; 'I' for Inactive)
REMARK    1  A    between atoms: O_2  and  C_3
REMARK    2  A    between atoms: C_3  and  C_5
REMARK    3  A    between atoms: C_11  and  C_12
REMARK    4  A    between atoms: C_12  and  C_13
REMARK    5  A    between atoms: C_13  and  C_14
REMARK    6  A    between atoms: C_14  and  C_15
REMARK    7  A    between atoms: C_15  and  N_16
REMARK    8  A    between atoms: C_20  and  C_21
REMARK    9  A    between atoms: C_21  and  C_22
REMARK                            x       y       z     vdW  Elec       q    Type
REMARK                         _______ _______ _______ _____ _____    ______ ____
ROOT
ATOM      1  C   UNL     1      36.113   2.236  16.067  0.00  0.00    +0.000 C 
ENDROOT
BRANCH   1   2
ATOM      2  C   UNL     1      36.782   3.234  16.961  0.00  0.00    +0.000 C 
BRANCH   2   9
ATOM      3  C   UNL     1      40.027   6.046  18.562  0.00  0.00    +0.000 A 
ATOM      4  C   UNL     1      40.872   6.439  17.547  0.00  0.00    +0.000 A 
ATOM      5  C   UNL     1      40.718   6.016  16.242  0.00  0.00    +0.000 A 
ATOM      6  C   UNL     1      39.686   5.172  15.945  0.00  0.00    +0.000 A 
ATOM      7  N   UNL     1      39.329   4.630  14.767  0.00  0.00    +0.000 NA
ATOM      8  C   UNL     1      38.238   3.872  15.003  0.00  0.00    +0.000 A 
ATOM      9  C   UNL     1      37.907   3.932  16.325  0.00  0.00    +0.000 A 
ATOM     10  C   UNL     1      38.826   4.763  16.945  0.00  0.00    +0.000 A 
ATOM     11  C   UNL     1      38.990   5.198  18.264  0.00  0.00    +0.000 A 
BRANCH   3  12
ATOM     12  C   UNL     1      40.245   6.544  19.929  0.00  0.00    +0.000 C 
ATOM     13  O   UNL     1      41.379   6.350  20.487  0.00  0.00    +0.000 OA
BRANCH  12  15
ATOM     14  C   UNL     1      38.984   8.587  20.374  0.00  0.00    +0.000 C 
ATOM     15  O   UNL     1      39.291   7.212  20.652  0.00  0.00    +0.000 OA
ENDBRANCH  12  15
ENDBRANCH   3  12
ENDBRANCH   2   9
ENDBRANCH   1   2
BRANCH   1  16
ATOM     16  C   UNL     1      35.157   1.341  16.840  0.00  0.00    +0.000 C 
BRANCH  16  17
ATOM     17  C   UNL     1      35.185  -0.077  16.246  0.00  0.00    +0.000 C 
BRANCH  17  18
ATOM     18  N   UNL     1      35.273  -1.007  17.349  0.00  0.00    +0.000 NA
ATOM     19  C   UNL     1      34.520  -2.204  17.045  0.00  0.00    +0.000 C 
ATOM     20  C   UNL     1      35.092  -2.813  15.785  0.00  0.00    +0.000 C 
ATOM     21  C   UNL     1      36.543  -3.199  16.119  0.00  0.00    +0.000 C 
ATOM     22  C   UNL     1      37.247  -1.689  16.041  0.00  0.00    +0.000 C 
ATOM     23  C   UNL     1      36.688  -1.294  17.555  0.00  0.00    +0.000 C 
BRANCH  22  24
ATOM     24  C   UNL     1      38.687  -2.215  16.632  0.00  0.00    +0.000 C 
BRANCH  24  25
ATOM     25  C   UNL     1      39.692  -1.910  15.618  0.00  0.00    +0.000 A 
ATOM     26  C   UNL     1      39.677  -0.610  15.097  0.00  0.00    +0.000 A 
ATOM     27  C   UNL     1      40.572  -0.187  14.133  0.00  0.00    +0.000 A 
ATOM     28  C   UNL     1      41.509  -1.048  13.664  0.00  0.00    +0.000 A 
ATOM     29  C   UNL     1      41.564  -2.341  14.147  0.00  0.00    +0.000 A 
ATOM     30  C   UNL     1      40.651  -2.765  15.126  0.00  0.00    +0.000 A 
ENDBRANCH  24  25
ENDBRANCH  22  24
ENDBRANCH  17  18
ENDBRANCH  16  17
ENDBRANCH   1  16
TORSDOF 9
ENDMDL
MODEL 2
REMARK VINA RESULT:      -7.8      4.752      7.320
REMARK  Name = 
REMARK  9 active torsions:
REMARK  status: ('A' for Active; 'I' for Inactive)
REMARK    1  A    between atoms: O_2  and  C_3
REMARK    2  A    between atoms: C_3  and  C_5
REMARK    3  A    between atoms: C_11  and  C_12
REMARK    4  A    between atoms: C_12  and  C_13
REMARK    5  A    between atoms: C_13  and  C_14
REMARK    6  A    between atoms: C_14  and  C_15
REMARK    7  A    between atoms: C_15  and  N_16
REMARK    8  A    between atoms: C_20  and  C_21
REMARK    9  A    between atoms: C_21  and  C_22
REMARK                            x       y       z     vdW  Elec       q    Type
REMARK                         _______ _______ _______ _____ _____    ______ ____
ROOT
ATOM      1  C   UNL     1      38.637  -3.758  17.471  0.00  0.00    +0.000 C 
ENDROOT
BRANCH   1   2
ATOM      2  C   UNL     1      39.323  -2.719  16.639  0.00  0.00    +0.000 C 
BRANCH   2   9
ATOM      3  C   UNL     1      41.767  -1.864  12.858  0.00  0.00    +0.000 A 
ATOM      4  C   UNL     1      41.020  -2.123  11.730  0.00  0.00    +0.000 A 
ATOM      5  C   UNL     1      39.718  -2.577  11.784  0.00  0.00    +0.000 A 
ATOM      6  C   UNL     1      39.145  -2.777  13.008  0.00  0.00    +0.000 A 
ATOM      7  N   UNL     1      37.909  -3.204  13.321  0.00  0.00    +0.000 NA
ATOM      8  C   UNL     1      37.835  -3.228  14.668  0.00  0.00    +0.000 A 
ATOM      9  C   UNL     1      39.020  -2.819  15.206  0.00  0.00    +0.000 A 
ATOM     10  C   UNL     1      39.873  -2.524  14.155  0.00  0.00    +0.000 A 
ATOM     11  C   UNL     1      41.192  -2.065  14.088  0.00  0.00    +0.000 A 
BRANCH   3  12
ATOM     12  C   UNL     1      43.147  -1.373  12.725  0.00  0.00    +0.000 C 
ATOM     13  O   UNL     1      43.417  -0.176  13.083  0.00  0.00    +0.000 OA
BRANCH  12  15
ATOM     14  C   UNL     1      44.325  -3.510  12.614  0.00  0.00    +0.000 C 
ATOM     15  O   UNL     1      44.177  -2.133  12.233  0.00  0.00    +0.000 OA
ENDBRANCH  12  15
ENDBRANCH   3  12
ENDBRANCH   2   9
ENDBRANCH   1   2
BRANCH   1  16
ATOM     16  C   UNL     1      38.047  -3.163  18.740  0.00  0.00    +0.000 C 
BRANCH  16  17
ATOM     17  C   UNL     1      37.629  -1.706  18.481  0.00  0.00    +0.000 C 
BRANCH  17  18
ATOM     18  N   UNL     1      36.192  -1.690  18.321  0.00  0.00    +0.000 NA
ATOM     19  C   UNL     1      35.612  -0.690  19.190  0.00  0.00    +0.000 C 
ATOM     20  C   UNL     1      36.204   0.652  18.827  0.00  0.00    +0.000 C 
ATOM     21  C   UNL     1      35.774   0.930  17.377  0.00  0.00    +0.000 C 
ATOM     22  C   UNL     1      36.846  -0.071  16.582  0.00  0.00    +0.000 C 
ATOM     23  C   UNL     1      35.922  -1.411  16.916  0.00  0.00    +0.000 C 
BRANCH  22  24
ATOM     24  C   UNL     1      36.128   0.148  15.120  0.00  0.00    +0.000 C 
BRANCH  24  25
ATOM     25  C   UNL     1      37.194   0.457  14.172  0.00  0.00    +0.000 A 
ATOM     26  C   UNL     1      36.889   0.288  12.815  0.00  0.00    +0.000 A 
ATOM     27  C   UNL     1      37.805   0.545  11.812  0.00  0.00    +0.000 A 
ATOM     28  C   UNL     1      39.048   0.979  12.135  0.00  0.00    +0.000 A 
ATOM     29  C   UNL     1      39.397   1.160  13.459  0.00  0.00    +0.000 A 
ATOM     30  C   UNL     1      38.462   0.897  14.474  0.00  0.00    +0.000 A 
ENDBRANCH  24  25
ENDBRANCH  22  24
ENDBRANCH  17  18
ENDBRANCH  16  17
ENDBRANCH   1  16
TORSDOF 9
ENDMDL
MODEL 3
REMARK VINA RESULT:      -7.6      3.473      7.760
REMARK  Name = 
REMARK  9 active torsions:
REMARK  status: ('A' for Active; 'I' for Inactive)
REMARK    1  A    between atoms: O_2  and  C_3
REMARK    2  A    between atoms: C_3  and  C_5
REMARK    3  A    between atoms: C_11  and  C_12
REMARK    4  A    between atoms: C_12  and  C_13
REMARK    5  A    between atoms: C_13  and  C_14
REMARK    6  A    between atoms: C_14  and  C_15
REMARK    7  A    between atoms: C_15  and  N_16
REMARK    8  A    between atoms: C_20  and  C_21
REMARK    9  A    between atoms: C_21  and  C_22
REMARK                            x       y       z     vdW  Elec       q    Type
REMARK                         _______ _______ _______ _____ _____    ______ ____
ROOT
ATOM      1  C   UNL     1      35.820  -0.631  17.962  0.00  0.00    +0.000 C 
ENDROOT
BRANCH   1   2
ATOM      2  C   UNL     1      35.887  -1.946  17.250  0.00  0.00    +0.000 C 
BRANCH   2   9
ATOM      3  C   UNL     1      38.894  -1.845  13.793  0.00  0.00    +0.000 A 
ATOM      4  C   UNL     1      40.065  -2.478  14.151  0.00  0.00    +0.000 A 
ATOM      5  C   UNL     1      40.256  -3.047  15.394  0.00  0.00    +0.000 A 
ATOM      6  C   UNL     1      39.242  -2.982  16.306  0.00  0.00    +0.000 A 
ATOM      7  N   UNL     1      39.183  -3.458  17.563  0.00  0.00    +0.000 NA
ATOM      8  C   UNL     1      37.963  -3.138  18.043  0.00  0.00    +0.000 A 
ATOM      9  C   UNL     1      37.252  -2.463  17.094  0.00  0.00    +0.000 A 
ATOM     10  C   UNL     1      38.058  -2.354  15.972  0.00  0.00    +0.000 A 
ATOM     11  C   UNL     1      37.875  -1.779  14.711  0.00  0.00    +0.000 A 
BRANCH   3  12
ATOM     12  C   UNL     1      38.757  -1.267  12.448  0.00  0.00    +0.000 C 
ATOM     13  O   UNL     1      39.608  -1.582  11.547  0.00  0.00    +0.000 OA
BRANCH  12  15
ATOM     14  C   UNL     1      38.001   1.016  12.020  0.00  0.00    +0.000 C 
ATOM     15  O   UNL     1      37.757  -0.397  12.096  0.00  0.00    +0.000 OA
ENDBRANCH  12  15
ENDBRANCH   3  12
ENDBRANCH   2   9
ENDBRANCH   1   2
BRANCH   1  16
ATOM     16  C   UNL     1      34.974   0.378  17.203  0.00  0.00    +0.000 C 
BRANCH  16  17
ATOM     17  C   UNL     1      35.818   1.622  16.881  0.00  0.00    +0.000 C 
BRANCH  17  18
ATOM     18  N   UNL     1      36.285   1.488  15.519  0.00  0.00    +0.000 NA
ATOM     19  C   UNL     1      35.282   1.987  14.604  0.00  0.00    +0.000 C 
ATOM     20  C   UNL     1      35.018   3.437  14.937  0.00  0.00    +0.000 C 
ATOM     21  C   UNL     1      36.341   4.179  14.690  0.00  0.00    +0.000 C 
ATOM     22  C   UNL     1      37.166   3.723  16.068  0.00  0.00    +0.000 C 
ATOM     23  C   UNL     1      37.531   2.238  15.419  0.00  0.00    +0.000 C 
BRANCH  22  24
ATOM     24  C   UNL     1      38.586   4.374  15.559  0.00  0.00    +0.000 C 
BRANCH  24  25
ATOM     25  C   UNL     1      39.181   5.037  16.715  0.00  0.00    +0.000 A 
ATOM     26  C   UNL     1      40.337   5.792  16.475  0.00  0.00    +0.000 A 
ATOM     27  C   UNL     1      41.000   6.471  17.479  0.00  0.00    +0.000 A 
ATOM     28  C   UNL     1      40.530   6.417  18.750  0.00  0.00    +0.000 A 
ATOM     29  C   UNL     1      39.395   5.685  19.037  0.00  0.00    +0.000 A 
ATOM     30  C   UNL     1      38.724   4.997  18.012  0.00  0.00    +0.000 A 
ENDBRANCH  24  25
ENDBRANCH  22  24
ENDBRANCH  17  18
ENDBRANCH  16  17
ENDBRANCH   1  16
TORSDOF 9
ENDMDL
MODEL 4
REMARK VINA RESULT:      -7.4      3.352      8.652
REMARK  Name = 
REMARK  9 active torsions:
REMARK  status: ('A' for Active; 'I' for Inactive)
REMARK    1  A    between atoms: O_2  and  C_3
REMARK    2  A    between atoms: C_3  and  C_5
REMARK    3  A    between atoms: C_11  and  C_12
REMARK    4  A    between atoms: C_12  and  C_13
REMARK    5  A    between atoms: C_13  and  C_14
REMARK    6  A    between atoms: C_14  and  C_15
REMARK    7  A    between atoms: C_15  and  N_16
REMARK    8  A    between atoms: C_20  and  C_21
REMARK    9  A    between atoms: C_21  and  C_22
REMARK                            x       y       z     vdW  Elec       q    Type
REMARK                         _______ _______ _______ _____ _____    ______ ____
ROOT
ATOM      1  C   UNL     1      34.713   1.556  16.469  0.00  0.00    +0.000 C 
ENDROOT
BRANCH   1   2
ATOM      2  C   UNL     1      35.731   0.592  16.994  0.00  0.00    +0.000 C 
BRANCH   2   9
ATOM      3  C   UNL     1      37.696  -2.086  13.836  0.00  0.00    +0.000 A 
ATOM      4  C   UNL     1      37.114  -3.335  13.830  0.00  0.00    +0.000 A 
ATOM      5  C   UNL     1      36.083  -3.682  14.679  0.00  0.00    +0.000 A 
ATOM      6  C   UNL     1      35.620  -2.748  15.562  0.00  0.00    +0.000 A 
ATOM      7  N   UNL     1      34.637  -2.840  16.476  0.00  0.00    +0.000 NA
ATOM      8  C   UNL     1      34.566  -1.642  17.093  0.00  0.00    +0.000 A 
ATOM      9  C   UNL     1      35.501  -0.796  16.573  0.00  0.00    +0.000 A 
ATOM     10  C   UNL     1      36.186  -1.489  15.588  0.00  0.00    +0.000 A 
ATOM     11  C   UNL     1      37.231  -1.148  14.724  0.00  0.00    +0.000 A 
BRANCH   3  12
ATOM     12  C   UNL     1      38.786  -1.782  12.896  0.00  0.00    +0.000 C 
ATOM     13  O   UNL     1      38.602  -0.889  12.001  0.00  0.00    +0.000 OA
BRANCH  12  15
ATOM     14  C   UNL     1      41.196  -1.693  13.283  0.00  0.00    +0.000 C 
ATOM     15  O   UNL     1      40.005  -2.410  12.923  0.00  0.00    +0.000 OA
ENDBRANCH  12  15
ENDBRANCH   3  12
ENDBRANCH   2   9
ENDBRANCH   1   2
BRANCH   1  16
ATOM     16  C   UNL     1      35.143   2.163  15.143  0.00  0.00    +0.000 C 
BRANCH  16  17
ATOM     17  C   UNL     1      36.031   3.391  15.403  0.00  0.00    +0.000 C 
BRANCH  17  18
ATOM     18  N   UNL     1      37.248   3.214  14.643  0.00  0.00    +0.000 NA
ATOM     19  C   UNL     1      37.227   4.066  13.475  0.00  0.00    +0.000 C 
ATOM     20  C   UNL     1      37.089   5.498  13.937  0.00  0.00    +0.000 C 
ATOM     21  C   UNL     1      38.351   5.803  14.762  0.00  0.00    +0.000 C 
ATOM     22  C   UNL     1      37.944   5.015  16.175  0.00  0.00    +0.000 C 
ATOM     23  C   UNL     1      38.357   3.540  15.532  0.00  0.00    +0.000 C 
BRANCH  22  24
ATOM     24  C   UNL     1      39.432   5.222  16.842  0.00  0.00    +0.000 C 
BRANCH  24  25
ATOM     25  C   UNL     1      39.257   6.108  17.988  0.00  0.00    +0.000 A 
ATOM     26  C   UNL     1      40.199   5.987  19.018  0.00  0.00    +0.000 A 
ATOM     27  C   UNL     1      40.153   6.764  20.160  0.00  0.00    +0.000 A 
ATOM     28  C   UNL     1      39.167   7.684  20.306  0.00  0.00    +0.000 A 
ATOM     29  C   UNL     1      38.215   7.840  19.319  0.00  0.00    +0.000 A 
ATOM     30  C   UNL     1      38.267   7.047  18.160  0.00  0.00    +0.000 A 
ENDBRANCH  24  25
ENDBRANCH  22  24
ENDBRANCH  17  18
ENDBRANCH  16  17
ENDBRANCH   1  16
TORSDOF 9
ENDMDL
MODEL 5
REMARK VINA RESULT:      -7.3      3.026      8.432
REMARK  Name = 
REMARK  9 active torsions:
REMARK  status: ('A' for Active; 'I' for Inactive)
REMARK    1  A    between atoms: O_2  and  C_3
REMARK    2  A    between atoms: C_3  and  C_5
REMARK    3  A    between atoms: C_11  and  C_12
REMARK    4  A    between atoms: C_12  and  C_13
REMARK    5  A    between atoms: C_13  and  C_14
REMARK    6  A    between atoms: C_14  and  C_15
REMARK    7  A    between atoms: C_15  and  N_16
REMARK    8  A    between atoms: C_20  and  C_21
REMARK    9  A    between atoms: C_21  and  C_22
REMARK                            x       y       z     vdW  Elec       q    Type
REMARK                         _______ _______ _______ _____ _____    ______ ____
ROOT
ATOM      1  C   UNL     1      35.071   2.702  15.097  0.00  0.00    +0.000 C 
ENDROOT
BRANCH   1   2
ATOM      2  C   UNL     1      35.651   1.337  14.893  0.00  0.00    +0.000 C 
BRANCH   2   9
ATOM      3  C   UNL     1      38.637  -1.820  16.348  0.00  0.00    +0.000 A 
ATOM      4  C   UNL     1      38.298  -2.264  17.607  0.00  0.00    +0.000 A 
ATOM      5  C   UNL     1      37.199  -1.791  18.294  0.00  0.00    +0.000 A 
ATOM      6  C   UNL     1      36.414  -0.843  17.701  0.00  0.00    +0.000 A 
ATOM      7  N   UNL     1      35.304  -0.236  18.157  0.00  0.00    +0.000 NA
ATOM      8  C   UNL     1      34.903   0.618  17.192  0.00  0.00    +0.000 A 
ATOM      9  C   UNL     1      35.757   0.552  16.129  0.00  0.00    +0.000 A 
ATOM     10  C   UNL     1      36.733  -0.382  16.439  0.00  0.00    +0.000 A 
ATOM     11  C   UNL     1      37.849  -0.867  15.751  0.00  0.00    +0.000 A 
BRANCH   3  12
ATOM     12  C   UNL     1      39.819  -2.376  15.670  0.00  0.00    +0.000 C 
ATOM     13  O   UNL     1      40.262  -3.519  16.032  0.00  0.00    +0.000 OA
BRANCH  12  15
ATOM     14  C   UNL     1      40.249  -2.077  13.284  0.00  0.00    +0.000 C 
ATOM     15  O   UNL     1      40.483  -1.732  14.658  0.00  0.00    +0.000 OA
ENDBRANCH  12  15
ENDBRANCH   3  12
ENDBRANCH   2   9
ENDBRANCH   1   2
BRANCH   1  16
ATOM     16  C   UNL     1      36.041   3.625  15.817  0.00  0.00    +0.000 C 
BRANCH  16  17
ATOM     17  C   UNL     1      36.866   4.411  14.786  0.00  0.00    +0.000 C 
BRANCH  17  18
ATOM     18  N   UNL     1      38.197   3.845  14.773  0.00  0.00    +0.000 NA
ATOM     19  C   UNL     1      39.026   4.560  13.828  0.00  0.00    +0.000 C 
ATOM     20  C   UNL     1      39.068   6.013  14.242  0.00  0.00    +0.000 C 
ATOM     21  C   UNL     1      39.738   6.043  15.626  0.00  0.00    +0.000 C 
ATOM     22  C   UNL     1      38.452   5.527  16.557  0.00  0.00    +0.000 C 
ATOM     23  C   UNL     1      38.716   3.942  16.132  0.00  0.00    +0.000 C 
BRANCH  22  24
ATOM     24  C   UNL     1      39.360   5.387  17.919  0.00  0.00    +0.000 C 
BRANCH  24  25
ATOM     25  C   UNL     1      38.985   6.498  18.788  0.00  0.00    +0.000 A 
ATOM     26  C   UNL     1      37.880   7.259  18.384  0.00  0.00    +0.000 A 
ATOM     27  C   UNL     1      37.418   8.338  19.113  0.00  0.00    +0.000 A 
ATOM     28  C   UNL     1      38.042   8.688  20.265  0.00  0.00    +0.000 A 
ATOM     29  C   UNL     1      39.136   7.968  20.704  0.00  0.00    +0.000 A 
ATOM     30  C   UNL     1      39.603   6.873  19.959  0.00  0.00    +0.000 A 
ENDBRANCH  24  25
ENDBRANCH  22  24
ENDBRANCH  17  18
ENDBRANCH  16  17
ENDBRANCH   1  16
TORSDOF 9
ENDMDL
MODEL 6
REMARK VINA RESULT:      -7.3      2.906      5.172
REMARK  Name = 
REMARK  9 active torsions:
REMARK  status: ('A' for Active; 'I' for Inactive)
REMARK    1  A    between atoms: O_2  and  C_3
REMARK    2  A    between atoms: C_3  and  C_5
REMARK    3  A    between atoms: C_11  and  C_12
REMARK    4  A    between atoms: C_12  and  C_13
REMARK    5  A    between atoms: C_13  and  C_14
REMARK    6  A    between atoms: C_14  and  C_15
REMARK    7  A    between atoms: C_15  and  N_16
REMARK    8  A    between atoms: C_20  and  C_21
REMARK    9  A    between atoms: C_21  and  C_22
REMARK                            x       y       z     vdW  Elec       q    Type
REMARK                         _______ _______ _______ _____ _____    ______ ____
ROOT
ATOM      1  C   UNL     1      39.637   5.285  16.693  0.00  0.00    +0.000 C 
ENDROOT
BRANCH   1   2
ATOM      2  C   UNL     1      39.076   5.101  18.069  0.00  0.00    +0.000 C 
BRANCH   2   9
ATOM      3  C   UNL     1      36.968   9.157  18.406  0.00  0.00    +0.000 A 
ATOM      4  C   UNL     1      37.533   9.914  19.409  0.00  0.00    +0.000 A 
ATOM      5  C   UNL     1      38.587   9.467  20.179  0.00  0.00    +0.000 A 
ATOM      6  C   UNL     1      39.093   8.221  19.936  0.00  0.00    +0.000 A 
ATOM      7  N   UNL     1      40.105   7.570  20.537  0.00  0.00    +0.000 NA
ATOM      8  C   UNL     1      40.213   6.371  19.928  0.00  0.00    +0.000 A 
ATOM      9  C   UNL     1      39.273   6.263  18.945  0.00  0.00    +0.000 A 
ATOM     10  C   UNL     1      38.545   7.442  18.936  0.00  0.00    +0.000 A 
ATOM     11  C   UNL     1      37.477   7.905  18.162  0.00  0.00    +0.000 A 
BRANCH   3  12
ATOM     12  C   UNL     1      35.852   9.701  17.618  0.00  0.00    +0.000 C 
ATOM     13  O   UNL     1      36.107  10.377  16.564  0.00  0.00    +0.000 OA
BRANCH  12  15
ATOM     14  C   UNL     1      33.552  10.524  17.638  0.00  0.00    +0.000 C 
ATOM     15  O   UNL     1      34.533   9.524  17.952  0.00  0.00    +0.000 OA
ENDBRANCH  12  15
ENDBRANCH   3  12
ENDBRANCH   2   9
ENDBRANCH   1   2
BRANCH   1  16
ATOM     16  C   UNL     1      38.602   4.988  15.620  0.00  0.00    +0.000 C 
BRANCH  16  17
ATOM     17  C   UNL     1      37.975   3.608  15.875  0.00  0.00    +0.000 C 
BRANCH  17  18
ATOM     18  N   UNL     1      36.539   3.775  15.863  0.00  0.00    +0.000 NA
ATOM     19  C   UNL     1      36.067   3.882  14.500  0.00  0.00    +0.000 C 
ATOM     20  C   UNL     1      36.464   2.625  13.763  0.00  0.00    +0.000 C 
ATOM     21  C   UNL     1      35.729   1.470  14.462  0.00  0.00    +0.000 C 
ATOM     22  C   UNL     1      36.695   1.316  15.814  0.00  0.00    +0.000 C 
ATOM     23  C   UNL     1      35.969   2.619  16.545  0.00  0.00    +0.000 C 
BRANCH  22  24
ATOM     24  C   UNL     1      35.681   0.249  16.546  0.00  0.00    +0.000 C 
BRANCH  24  25
ATOM     25  C   UNL     1      36.512  -0.611  17.383  0.00  0.00    +0.000 A 
ATOM     26  C   UNL     1      37.503  -1.352  16.725  0.00  0.00    +0.000 A 
ATOM     27  C   UNL     1      38.358  -2.204  17.396  0.00  0.00    +0.000 A 
ATOM     28  C   UNL     1      38.252  -2.340  18.741  0.00  0.00    +0.000 A 
ATOM     29  C   UNL     1      37.291  -1.631  19.434  0.00  0.00    +0.000 A 
ATOM     30  C   UNL     1      36.423  -0.767  18.747  0.00  0.00    +0.000 A 
ENDBRANCH  24  25
ENDBRANCH  22  24
ENDBRANCH  17  18
ENDBRANCH  16  17
ENDBRANCH   1  16
TORSDOF 9
ENDMDL
MODEL 7
REMARK VINA RESULT:      -7.3      2.926      4.964
REMARK  Name = 
REMARK  9 active torsions:
REMARK  status: ('A' for Active; 'I' for Inactive)
REMARK    1  A    between atoms: O_2  and  C_3
REMARK    2  A    between atoms: C_3  and  C_5
REMARK    3  A    between atoms: C_11  and  C_12
REMARK    4  A    between atoms: C_12  and  C_13
REMARK    5  A    between atoms: C_13  and  C_14
REMARK    6  A    between atoms: C_14  and  C_15
REMARK    7  A    between atoms: C_15  and  N_16
REMARK    8  A    between atoms: C_20  and  C_21
REMARK    9  A    between atoms: C_21  and  C_22
REMARK                            x       y       z     vdW  Elec       q    Type
REMARK                         _______ _______ _______ _____ _____    ______ ____
ROOT
ATOM      1  C   UNL     1      38.743   4.746  18.144  0.00  0.00    +0.000 C 
ENDROOT
BRANCH   1   2
ATOM      2  C   UNL     1      38.995   6.079  18.777  0.00  0.00    +0.000 C 
BRANCH   2   9
ATOM      3  C   UNL     1      42.744   6.696  16.213  0.00  0.00    +0.000 A 
ATOM      4  C   UNL     1      43.849   6.891  17.012  0.00  0.00    +0.000 A 
ATOM      5  C   UNL     1      43.784   6.892  18.390  0.00  0.00    +0.000 A 
ATOM      6  C   UNL     1      42.573   6.690  18.988  0.00  0.00    +0.000 A 
ATOM      7  N   UNL     1      42.255   6.643  20.294  0.00  0.00    +0.000 NA
ATOM      8  C   UNL     1      40.926   6.414  20.363  0.00  0.00    +0.000 A 
ATOM      9  C   UNL     1      40.406   6.318  19.105  0.00  0.00    +0.000 A 
ATOM     10  C   UNL     1      41.449   6.492  18.210  0.00  0.00    +0.000 A 
ATOM     11  C   UNL     1      41.526   6.493  16.815  0.00  0.00    +0.000 A 
BRANCH   3  12
ATOM     12  C   UNL     1      42.888   6.699  14.750  0.00  0.00    +0.000 C 
ATOM     13  O   UNL     1      43.405   5.680  14.175  0.00  0.00    +0.000 OA
BRANCH  12  15
ATOM     14  C   UNL     1      42.349   9.067  14.491  0.00  0.00    +0.000 C 
ATOM     15  O   UNL     1      42.497   7.744  13.953  0.00  0.00    +0.000 OA
ENDBRANCH  12  15
ENDBRANCH   3  12
ENDBRANCH   2   9
ENDBRANCH   1   2
BRANCH   1  16
ATOM     16  C   UNL     1      38.224   4.887  16.722  0.00  0.00    +0.000 C 
BRANCH  16  17
ATOM     17  C   UNL     1      37.760   3.516  16.203  0.00  0.00    +0.000 C 
BRANCH  17  18
ATOM     18  N   UNL     1      36.315   3.518  16.205  0.00  0.00    +0.000 NA
ATOM     19  C   UNL     1      35.821   3.746  14.865  0.00  0.00    +0.000 C 
ATOM     20  C   UNL     1      36.352   2.647  13.973  0.00  0.00    +0.000 C 
ATOM     21  C   UNL     1      35.760   1.335  14.514  0.00  0.00    +0.000 C 
ATOM     22  C   UNL     1      36.750   1.120  15.840  0.00  0.00    +0.000 C 
ATOM     23  C   UNL     1      35.886   2.227  16.729  0.00  0.00    +0.000 C 
BRANCH  22  24
ATOM     24  C   UNL     1      35.871  -0.141  16.423  0.00  0.00    +0.000 C 
BRANCH  24  25
ATOM     25  C   UNL     1      36.797  -0.989  17.165  0.00  0.00    +0.000 A 
ATOM     26  C   UNL     1      36.621  -1.038  18.555  0.00  0.00    +0.000 A 
ATOM     27  C   UNL     1      37.427  -1.801  19.378  0.00  0.00    +0.000 A 
ATOM     28  C   UNL     1      38.429  -2.538  18.839  0.00  0.00    +0.000 A 
ATOM     29  C   UNL     1      38.643  -2.523  17.475  0.00  0.00    +0.000 A 
ATOM     30  C   UNL     1      37.821  -1.745  16.643  0.00  0.00    +0.000 A 
ENDBRANCH  24  25
ENDBRANCH  22  24
ENDBRANCH  17  18
ENDBRANCH  16  17
ENDBRANCH   1  16
TORSDOF 9
ENDMDL
MODEL 8
REMARK VINA RESULT:      -7.1      4.198      7.092
REMARK  Name = 
REMARK  9 active torsions:
REMARK  status: ('A' for Active; 'I' for Inactive)
REMARK    1  A    between atoms: O_2  and  C_3
REMARK    2  A    between atoms: C_3  and  C_5
REMARK    3  A    between atoms: C_11  and  C_12
REMARK    4  A    between atoms: C_12  and  C_13
REMARK    5  A    between atoms: C_13  and  C_14
REMARK    6  A    between atoms: C_14  and  C_15
REMARK    7  A    between atoms: C_15  and  N_16
REMARK    8  A    between atoms: C_20  and  C_21
REMARK    9  A    between atoms: C_21  and  C_22
REMARK                            x       y       z     vdW  Elec       q    Type
REMARK                         _______ _______ _______ _____ _____    ______ ____
ROOT
ATOM      1  C   UNL     1      38.531  -2.736  14.344  0.00  0.00    +0.000 C 
ENDROOT
BRANCH   1   2
ATOM      2  C   UNL     1      39.253  -2.152  15.519  0.00  0.00    +0.000 C 
BRANCH   2   9
ATOM      3  C   UNL     1      36.189   0.710  17.369  0.00  0.00    +0.000 A 
ATOM      4  C   UNL     1      35.732   0.219  18.572  0.00  0.00    +0.000 A 
ATOM      5  C   UNL     1      36.168  -0.977  19.104  0.00  0.00    +0.000 A 
ATOM      6  C   UNL     1      37.093  -1.704  18.409  0.00  0.00    +0.000 A 
ATOM      7  N   UNL     1      37.669  -2.881  18.714  0.00  0.00    +0.000 NA
ATOM      8  C   UNL     1      38.515  -3.172  17.704  0.00  0.00    +0.000 A 
ATOM      9  C   UNL     1      38.475  -2.185  16.764  0.00  0.00    +0.000 A 
ATOM     10  C   UNL     1      37.567  -1.233  17.200  0.00  0.00    +0.000 A 
ATOM     11  C   UNL     1      37.118  -0.021  16.670  0.00  0.00    +0.000 A 
BRANCH   3  12
ATOM     12  C   UNL     1      35.687   1.998  16.866  0.00  0.00    +0.000 C 
ATOM     13  O   UNL     1      36.464   3.013  16.872  0.00  0.00    +0.000 OA
BRANCH  12  15
ATOM     14  C   UNL     1      34.139   3.176  15.389  0.00  0.00    +0.000 C 
ATOM     15  O   UNL     1      34.416   2.178  16.383  0.00  0.00    +0.000 OA
ENDBRANCH  12  15
ENDBRANCH   3  12
ENDBRANCH   2   9
ENDBRANCH   1   2
BRANCH   1  16
ATOM     16  C   UNL     1      39.388  -2.713  13.089  0.00  0.00    +0.000 C 
BRANCH  16  17
ATOM     17  C   UNL     1      40.870  -2.585  13.478  0.00  0.00    +0.000 C 
BRANCH  17  18
ATOM     18  N   UNL     1      41.536  -1.863  12.418  0.00  0.00    +0.000 NA
ATOM     19  C   UNL     1      41.054  -0.500  12.371  0.00  0.00    +0.000 C 
ATOM     20  C   UNL     1      41.330   0.144  13.711  0.00  0.00    +0.000 C 
ATOM     21  C   UNL     1      42.860   0.153  13.872  0.00  0.00    +0.000 C 
ATOM     22  C   UNL     1      43.097  -1.447  14.280  0.00  0.00    +0.000 C 
ATOM     23  C   UNL     1      42.967  -1.924  12.693  0.00  0.00    +0.000 C 
BRANCH  22  24
ATOM     24  C   UNL     1      44.734  -1.337  14.187  0.00  0.00    +0.000 C 
BRANCH  24  25
ATOM     25  C   UNL     1      45.225  -1.243  15.558  0.00  0.00    +0.000 A 
ATOM     26  C   UNL     1      45.622  -2.443  16.162  0.00  0.00    +0.000 A 
ATOM     27  C   UNL     1      46.107  -2.497  17.454  0.00  0.00    +0.000 A 
ATOM     28  C   UNL     1      46.211  -1.357  18.181  0.00  0.00    +0.000 A 
ATOM     29  C   UNL     1      45.833  -0.149  17.629  0.00  0.00    +0.000 A 
ATOM     30  C   UNL     1      45.340  -0.100  16.315  0.00  0.00    +0.000 A 
ENDBRANCH  24  25
ENDBRANCH  22  24
ENDBRANCH  17  18
ENDBRANCH  16  17
ENDBRANCH   1  16
TORSDOF 9
ENDMDL
MODEL 9
REMARK VINA RESULT:      -7.0      2.617      4.678
REMARK  Name = 
REMARK  9 active torsions:
REMARK  status: ('A' for Active; 'I' for Inactive)
REMARK    1  A    between atoms: O_2  and  C_3
REMARK    2  A    between atoms: C_3  and  C_5
REMARK    3  A    between atoms: C_11  and  C_12
REMARK    4  A    between atoms: C_12  and  C_13
REMARK    5  A    between atoms: C_13  and  C_14
REMARK    6  A    between atoms: C_14  and  C_15
REMARK    7  A    between atoms: C_15  and  N_16
REMARK    8  A    between atoms: C_20  and  C_21
REMARK    9  A    between atoms: C_21  and  C_22
REMARK                            x       y       z     vdW  Elec       q    Type
REMARK                         _______ _______ _______ _____ _____    ______ ____
ROOT
ATOM      1  C   UNL     1      39.078   5.066  16.983  0.00  0.00    +0.000 C 
ENDROOT
BRANCH   1   2
ATOM      2  C   UNL     1      39.089   5.134  18.478  0.00  0.00    +0.000 C 
BRANCH   2   9
ATOM      3  C   UNL     1      42.739   7.322  20.181  0.00  0.00    +0.000 A 
ATOM      4  C   UNL     1      42.407   8.609  20.541  0.00  0.00    +0.000 A 
ATOM      5  C   UNL     1      41.135   9.123  20.389  0.00  0.00    +0.000 A 
ATOM      6  C   UNL     1      40.164   8.320  19.860  0.00  0.00    +0.000 A 
ATOM      7  N   UNL     1      38.867   8.583  19.620  0.00  0.00    +0.000 NA
ATOM      8  C   UNL     1      38.334   7.460  19.096  0.00  0.00    +0.000 A 
ATOM      9  C   UNL     1      39.290   6.490  19.004  0.00  0.00    +0.000 A 
ATOM     10  C   UNL     1      40.471   7.026  19.492  0.00  0.00    +0.000 A 
ATOM     11  C   UNL     1      41.763   6.515  19.649  0.00  0.00    +0.000 A 
BRANCH   3  12
ATOM     12  C   UNL     1      44.114   6.838  20.379  0.00  0.00    +0.000 C 
ATOM     13  O   UNL     1      44.803   6.494  19.359  0.00  0.00    +0.000 OA
BRANCH  12  15
ATOM     14  C   UNL     1      44.166   5.864  22.618  0.00  0.00    +0.000 C 
ATOM     15  O   UNL     1      44.708   6.731  21.610  0.00  0.00    +0.000 OA
ENDBRANCH  12  15
ENDBRANCH   3  12
ENDBRANCH   2   9
ENDBRANCH   1   2
BRANCH   1  16
ATOM     16  C   UNL     1      37.674   4.863  16.438  0.00  0.00    +0.000 C 
BRANCH  16  17
ATOM     17  C   UNL     1      37.330   3.364  16.442  0.00  0.00    +0.000 C 
BRANCH  17  18
ATOM     18  N   UNL     1      35.905   3.245  16.232  0.00  0.00    +0.000 NA
ATOM     19  C   UNL     1      35.601   3.391  14.826  0.00  0.00    +0.000 C 
ATOM     20  C   UNL     1      36.343   2.314  14.069  0.00  0.00    +0.000 C 
ATOM     21  C   UNL     1      35.781   0.974  14.572  0.00  0.00    +0.000 C 
ATOM     22  C   UNL     1      36.577   0.882  16.036  0.00  0.00    +0.000 C 
ATOM     23  C   UNL     1      35.506   1.939  16.742  0.00  0.00    +0.000 C 
BRANCH  22  24
ATOM     24  C   UNL     1      35.722  -0.430  16.536  0.00  0.00    +0.000 C 
BRANCH  24  25
ATOM     25  C   UNL     1      36.594  -1.179  17.436  0.00  0.00    +0.000 A 
ATOM     26  C   UNL     1      37.641  -1.893  16.838  0.00  0.00    +0.000 A 
ATOM     27  C   UNL     1      38.540  -2.643  17.572  0.00  0.00    +0.000 A 
ATOM     28  C   UNL     1      38.422  -2.701  18.921  0.00  0.00    +0.000 A 
ATOM     29  C   UNL     1      37.406  -2.014  19.557  0.00  0.00    +0.000 A 
ATOM     30  C   UNL     1      36.495  -1.254  18.806  0.00  0.00    +0.000 A 
ENDBRANCH  24  25
ENDBRANCH  22  24
ENDBRANCH  17  18
ENDBRANCH  16  17
ENDBRANCH   1  16
TORSDOF 9
ENDMDL
MODEL 10
REMARK VINA RESULT:      -7.0     28.986     32.100
REMARK  Name = 
REMARK  9 active torsions:
REMARK  status: ('A' for Active; 'I' for Inactive)
REMARK    1  A    between atoms: O_2  and  C_3
REMARK    2  A    between atoms: C_3  and  C_5
REMARK    3  A    between atoms: C_11  and  C_12
REMARK    4  A    between atoms: C_12  and  C_13
REMARK    5  A    between atoms: C_13  and  C_14
REMARK    6  A    between atoms: C_14  and  C_15
REMARK    7  A    between atoms: C_15  and  N_16
REMARK    8  A    between atoms: C_20  and  C_21
REMARK    9  A    between atoms: C_21  and  C_22
REMARK                            x       y       z     vdW  Elec       q    Type
REMARK                         _______ _______ _______ _____ _____    ______ ____
ROOT
ATOM      1  C   UNL     1       9.482   2.833  10.790  0.00  0.00    +0.000 C 
ENDROOT
BRANCH   1   2
ATOM      2  C   UNL     1       9.915   2.752   9.359  0.00  0.00    +0.000 C 
BRANCH   2   9
ATOM      3  C   UNL     1       8.802   5.391   5.782  0.00  0.00    +0.000 A 
ATOM      4  C   UNL     1       9.627   6.493   5.718  0.00  0.00    +0.000 A 
ATOM      5  C   UNL     1      10.635   6.725   6.632  0.00  0.00    +0.000 A 
ATOM      6  C   UNL     1      10.824   5.823   7.640  0.00  0.00    +0.000 A 
ATOM      7  N   UNL     1      11.728   5.823   8.636  0.00  0.00    +0.000 NA
ATOM      8  C   UNL     1      11.501   4.712   9.367  0.00  0.00    +0.000 A 
ATOM      9  C   UNL     1      10.458   4.011   8.836  0.00  0.00    +0.000 A 
ATOM     10  C   UNL     1      10.011   4.710   7.726  0.00  0.00    +0.000 A 
ATOM     11  C   UNL     1       8.992   4.485   6.796  0.00  0.00    +0.000 A 
BRANCH   3  12
ATOM     12  C   UNL     1       7.753   5.203   4.768  0.00  0.00    +0.000 C 
ATOM     13  O   UNL     1       7.125   6.225   4.329  0.00  0.00    +0.000 OA
BRANCH  12  15
ATOM     14  C   UNL     1       8.183   3.358   3.227  0.00  0.00    +0.000 C 
ATOM     15  O   UNL     1       7.402   3.978   4.260  0.00  0.00    +0.000 OA
ENDBRANCH  12  15
ENDBRANCH   3  12
ENDBRANCH   2   9
ENDBRANCH   1   2
BRANCH   1  16
ATOM     16  C   UNL     1       8.731   1.584  11.223  0.00  0.00    +0.000 C 
BRANCH  16  17
ATOM     17  C   UNL     1       7.931   1.879  12.502  0.00  0.00    +0.000 C 
BRANCH  17  18
ATOM     18  N   UNL     1       6.552   1.534  12.242  0.00  0.00    +0.000 NA
ATOM     19  C   UNL     1       5.867   1.267  13.487  0.00  0.00    +0.000 C 
ATOM     20  C   UNL     1       5.954   2.507  14.347  0.00  0.00    +0.000 C 
ATOM     21  C   UNL     1       5.202   3.609  13.583  0.00  0.00    +0.000 C 
ATOM     22  C   UNL     1       6.361   3.983  12.442  0.00  0.00    +0.000 C 
ATOM     23  C   UNL     1       5.958   2.656  11.525  0.00  0.00    +0.000 C 
BRANCH  22  24
ATOM     24  C   UNL     1       5.355   4.965  11.590  0.00  0.00    +0.000 C 
BRANCH  24  25
ATOM     25  C   UNL     1       6.197   5.744  10.688  0.00  0.00    +0.000 A 
ATOM     26  C   UNL     1       5.598   6.182   9.500  0.00  0.00    +0.000 A 
ATOM     27  C   UNL     1       6.280   6.929   8.557  0.00  0.00    +0.000 A 
ATOM     28  C   UNL     1       7.576   7.261   8.775  0.00  0.00    +0.000 A 
ATOM     29  C   UNL     1       8.211   6.853   9.931  0.00  0.00    +0.000 A 
ATOM     30  C   UNL     1       7.513   6.094  10.885  0.00  0.00    +0.000 A 
ENDBRANCH  24  25
ENDBRANCH  22  24
ENDBRANCH  17  18
ENDBRANCH  16  17
ENDBRANCH   1  16
TORSDOF 9
ENDMDL
