MODEL 1
REMARK VINA RESULT:      -8.2      0.000      0.000
REMARK  Name = 
REMARK  8 active torsions:
REMARK  status: ('A' for Active; 'I' for Inactive)
REMARK    1  A    between atoms: C_2  and  C_3
REMARK    2  A    between atoms: C_3  and  C_4
REMARK    3  A    between atoms: C_4  and  C_5
REMARK    4  A    between atoms: C_5  and  C_6
REMARK    5  A    between atoms: C_6  and  N_7
REMARK    6  A    between atoms: C_10  and  C_11
REMARK    7  A    between atoms: N_13  and  C_14
REMARK    8  A    between atoms: C_14  and  C_15
REMARK                            x       y       z     vdW  Elec       q    Type
REMARK                         _______ _______ _______ _____ _____    ______ ____
ROOT
ATOM      1  N   UNL     1      35.969   0.024  16.079  0.00  0.00    +0.000 N 
ATOM      2  C   UNL     1      35.830   1.379  16.180  0.00  0.00    +0.000 A 
ATOM      3  N   UNL     1      34.653   2.045  16.624  0.00  0.00    +0.000 NA
ATOM      4  C   UNL     1      37.032   1.909  15.774  0.00  0.00    +0.000 A 
ATOM      5  C   UNL     1      37.918   0.908  15.421  0.00  0.00    +0.000 A 
ATOM      6  N   UNL     1      39.192   0.879  14.976  0.00  0.00    +0.000 NA
ATOM      7  C   UNL     1      39.840  -0.264  14.713  0.00  0.00    +0.000 A 
ATOM      8  C   UNL     1      41.138  -0.311  14.260  0.00  0.00    +0.000 A 
ATOM      9  C   UNL     1      41.789  -1.505  13.992  0.00  0.00    +0.000 A 
ATOM     10  C   UNL     1      41.103  -2.688  14.192  0.00  0.00    +0.000 A 
ATOM     11  C   UNL     1      39.800  -2.642  14.647  0.00  0.00    +0.000 A 
ATOM     12  C   UNL     1      39.154  -1.441  14.912  0.00  0.00    +0.000 A 
ATOM     13  N   UNL     1      37.886  -1.412  15.354  0.00  0.00    +0.000 NA
ATOM     14  C   UNL     1      37.211  -0.272  15.626  0.00  0.00    +0.000 A 
ENDROOT
BRANCH   4  15
ATOM     15  C   UNL     1      37.349   3.328  15.715  0.00  0.00    +0.000 C 
ATOM     16  O   UNL     1      36.858   4.059  14.799  0.00  0.00    +0.000 OA
ATOM     17  N   UNL     1      38.196   3.977  16.641  0.00  0.00    +0.000 NA
BRANCH  17  18
ATOM     18  C   UNL     1      38.513   5.390  16.587  0.00  0.00    +0.000 C 
BRANCH  18  19
ATOM     19  C   UNL     1      39.563   5.794  17.533  0.00  0.00    +0.000 A 
ATOM     20  C   UNL     1      40.823   6.104  17.082  0.00  0.00    +0.000 A 
ATOM     21  C   UNL     1      41.832   6.491  17.967  0.00  0.00    +0.000 A 
ATOM     22  C   UNL     1      41.555   6.561  19.324  0.00  0.00    +0.000 A 
ATOM     23  C   UNL     1      40.296   6.252  19.782  0.00  0.00    +0.000 A 
ATOM     24  C   UNL     1      39.305   5.869  18.876  0.00  0.00    +0.000 A 
ENDBRANCH  18  19
ENDBRANCH  17  18
ENDBRANCH   4  15
BRANCH   1  25
ATOM     25  C   UNL     1      34.957  -0.921  16.444  0.00  0.00    +0.000 C 
BRANCH  25  26
ATOM     26  C   UNL     1      35.162  -1.680  17.669  0.00  0.00    +0.000 C 
BRANCH  26  27
ATOM     27  C   UNL     1      35.773  -0.909  18.778  0.00  0.00    +0.000 C 
BRANCH  27  28
ATOM     28  C   UNL     1      36.781  -1.722  19.512  0.00  0.00    +0.000 C 
BRANCH  28  30
ATOM     29  C   UNL     1      38.557  -3.134  18.572  0.00  0.00    +0.000 C 
ATOM     30  C   UNL     1      38.139  -1.703  18.840  0.00  0.00    +0.000 C 
ENDBRANCH  28  30
ENDBRANCH  27  28
ENDBRANCH  26  27
ENDBRANCH  25  26
ENDBRANCH   1  25
TORSDOF 8
ENDMDL
MODEL 2
REMARK VINA RESULT:      -7.9      1.460      4.251
REMARK  Name = 
REMARK  8 active torsions:
REMARK  status: ('A' for Active; 'I' for Inactive)
REMARK    1  A    between atoms: C_2  and  C_3
REMARK    2  A    between atoms: C_3  and  C_4
REMARK    3  A    between atoms: C_4  and  C_5
REMARK    4  A    between atoms: C_5  and  C_6
REMARK    5  A    between atoms: C_6  and  N_7
REMARK    6  A    between atoms: C_10  and  C_11
REMARK    7  A    between atoms: N_13  and  C_14
REMARK    8  A    between atoms: C_14  and  C_15
REMARK                            x       y       z     vdW  Elec       q    Type
REMARK                         _______ _______ _______ _____ _____    ______ ____
ROOT
ATOM      1  N   UNL     1      38.748   1.145  13.621  0.00  0.00    +0.000 N 
ATOM      2  C   UNL     1      39.000   2.440  13.975  0.00  0.00    +0.000 A 
ATOM      3  N   UNL     1      39.926   3.298  13.316  0.00  0.00    +0.000 NA
ATOM      4  C   UNL     1      38.191   2.696  15.057  0.00  0.00    +0.000 A 
ATOM      5  C   UNL     1      37.438   1.583  15.383  0.00  0.00    +0.000 A 
ATOM      6  N   UNL     1      36.511   1.306  16.323  0.00  0.00    +0.000 NA
ATOM      7  C   UNL     1      35.908   0.112  16.415  0.00  0.00    +0.000 A 
ATOM      8  C   UNL     1      34.961  -0.188  17.365  0.00  0.00    +0.000 A 
ATOM      9  C   UNL     1      34.352  -1.430  17.442  0.00  0.00    +0.000 A 
ATOM     10  C   UNL     1      34.714  -2.399  16.525  0.00  0.00    +0.000 A 
ATOM     11  C   UNL     1      35.665  -2.100  15.570  0.00  0.00    +0.000 A 
ATOM     12  C   UNL     1      36.272  -0.851  15.500  0.00  0.00    +0.000 A 
ATOM     13  N   UNL     1      37.196  -0.575  14.566  0.00  0.00    +0.000 NA
ATOM     14  C   UNL     1      37.817   0.621  14.454  0.00  0.00    +0.000 A 
ENDROOT
BRANCH   4  15
ATOM     15  C   UNL     1      38.122   3.959  15.775  0.00  0.00    +0.000 C 
ATOM     16  O   UNL     1      37.596   4.981  15.232  0.00  0.00    +0.000 OA
ATOM     17  N   UNL     1      38.617   4.139  17.087  0.00  0.00    +0.000 NA
BRANCH  17  18
ATOM     18  C   UNL     1      38.550   5.396  17.806  0.00  0.00    +0.000 C 
BRANCH  18  19
ATOM     19  C   UNL     1      39.859   5.878  18.270  0.00  0.00    +0.000 A 
ATOM     20  C   UNL     1      40.077   6.119  19.604  0.00  0.00    +0.000 A 
ATOM     21  C   UNL     1      41.315   6.578  20.062  0.00  0.00    +0.000 A 
ATOM     22  C   UNL     1      42.338   6.793  19.152  0.00  0.00    +0.000 A 
ATOM     23  C   UNL     1      42.127   6.553  17.815  0.00  0.00    +0.000 A 
ATOM     24  C   UNL     1      40.880   6.095  17.383  0.00  0.00    +0.000 A 
ENDBRANCH  18  19
ENDBRANCH  17  18
ENDBRANCH   4  15
BRANCH   1  25
ATOM     25  C   UNL     1      39.354   0.480  12.508  0.00  0.00    +0.000 C 
BRANCH  25  26
ATOM     26  C   UNL     1      40.188  -0.678  12.793  0.00  0.00    +0.000 C 
BRANCH  26  27
ATOM     27  C   UNL     1      41.202  -0.462  13.854  0.00  0.00    +0.000 C 
BRANCH  27  28
ATOM     28  C   UNL     1      41.408  -1.693  14.665  0.00  0.00    +0.000 C 
BRANCH  28  30
ATOM     29  C   UNL     1      39.663  -2.860  15.941  0.00  0.00    +0.000 C 
ATOM     30  C   UNL     1      40.245  -2.659  14.556  0.00  0.00    +0.000 C 
ENDBRANCH  28  30
ENDBRANCH  27  28
ENDBRANCH  26  27
ENDBRANCH  25  26
ENDBRANCH   1  25
TORSDOF 8
ENDMDL
MODEL 3
REMARK VINA RESULT:      -7.3      1.795      4.891
REMARK  Name = 
REMARK  8 active torsions:
REMARK  status: ('A' for Active; 'I' for Inactive)
REMARK    1  A    between atoms: C_2  and  C_3
REMARK    2  A    between atoms: C_3  and  C_4
REMARK    3  A    between atoms: C_4  and  C_5
REMARK    4  A    between atoms: C_5  and  C_6
REMARK    5  A    between atoms: C_6  and  N_7
REMARK    6  A    between atoms: C_10  and  C_11
REMARK    7  A    between atoms: N_13  and  C_14
REMARK    8  A    between atoms: C_14  and  C_15
REMARK                            x       y       z     vdW  Elec       q    Type
REMARK                         _______ _______ _______ _____ _____    ______ ____
ROOT
ATOM      1  N   UNL     1      38.856   0.981  13.677  0.00  0.00    +0.000 N 
ATOM      2  C   UNL     1      39.104   2.288  13.985  0.00  0.00    +0.000 A 
ATOM      3  N   UNL     1      40.063   3.111  13.328  0.00  0.00    +0.000 NA
ATOM      4  C   UNL     1      38.252   2.596  15.021  0.00  0.00    +0.000 A 
ATOM      5  C   UNL     1      37.477   1.504  15.363  0.00  0.00    +0.000 A 
ATOM      6  N   UNL     1      36.510   1.273  16.275  0.00  0.00    +0.000 NA
ATOM      7  C   UNL     1      35.895   0.088  16.393  0.00  0.00    +0.000 A 
ATOM      8  C   UNL     1      34.907  -0.164  17.316  0.00  0.00    +0.000 A 
ATOM      9  C   UNL     1      34.285  -1.397  17.421  0.00  0.00    +0.000 A 
ATOM     10  C   UNL     1      34.676  -2.407  16.563  0.00  0.00    +0.000 A 
ATOM     11  C   UNL     1      35.669  -2.156  15.636  0.00  0.00    +0.000 A 
ATOM     12  C   UNL     1      36.288  -0.916  15.537  0.00  0.00    +0.000 A 
ATOM     13  N   UNL     1      37.252  -0.687  14.631  0.00  0.00    +0.000 NA
ATOM     14  C   UNL     1      37.886   0.499  14.493  0.00  0.00    +0.000 A 
ENDROOT
BRANCH   4  15
ATOM     15  C   UNL     1      38.164   3.890  15.680  0.00  0.00    +0.000 C 
ATOM     16  O   UNL     1      37.652   4.885  15.078  0.00  0.00    +0.000 OA
ATOM     17  N   UNL     1      38.625   4.129  16.994  0.00  0.00    +0.000 NA
BRANCH  17  18
ATOM     18  C   UNL     1      38.539   5.416  17.655  0.00  0.00    +0.000 C 
BRANCH  18  19
ATOM     19  C   UNL     1      39.821   5.884  18.200  0.00  0.00    +0.000 A 
ATOM     20  C   UNL     1      39.956   6.129  19.545  0.00  0.00    +0.000 A 
ATOM     21  C   UNL     1      41.167   6.574  20.080  0.00  0.00    +0.000 A 
ATOM     22  C   UNL     1      42.250   6.772  19.237  0.00  0.00    +0.000 A 
ATOM     23  C   UNL     1      42.122   6.528  17.890  0.00  0.00    +0.000 A 
ATOM     24  C   UNL     1      40.900   6.084  17.380  0.00  0.00    +0.000 A 
ENDBRANCH  18  19
ENDBRANCH  17  18
ENDBRANCH   4  15
BRANCH   1  25
ATOM     25  C   UNL     1      39.501   0.264  12.620  0.00  0.00    +0.000 C 
BRANCH  25  26
ATOM     26  C   UNL     1      40.382  -0.833  12.996  0.00  0.00    +0.000 C 
BRANCH  26  27
ATOM     27  C   UNL     1      39.872  -2.181  12.649  0.00  0.00    +0.000 C 
BRANCH  27  28
ATOM     28  C   UNL     1      40.763  -2.863  11.670  0.00  0.00    +0.000 C 
BRANCH  28  30
ATOM     29  C   UNL     1      41.014  -3.676   9.366  0.00  0.00    +0.000 C 
ATOM     30  C   UNL     1      40.318  -2.650  10.238  0.00  0.00    +0.000 C 
ENDBRANCH  28  30
ENDBRANCH  27  28
ENDBRANCH  26  27
ENDBRANCH  25  26
ENDBRANCH   1  25
TORSDOF 8
ENDMDL
MODEL 4
REMARK VINA RESULT:      -7.2      2.187      5.050
REMARK  Name = 
REMARK  8 active torsions:
REMARK  status: ('A' for Active; 'I' for Inactive)
REMARK    1  A    between atoms: C_2  and  C_3
REMARK    2  A    between atoms: C_3  and  C_4
REMARK    3  A    between atoms: C_4  and  C_5
REMARK    4  A    between atoms: C_5  and  C_6
REMARK    5  A    between atoms: C_6  and  N_7
REMARK    6  A    between atoms: C_10  and  C_11
REMARK    7  A    between atoms: N_13  and  C_14
REMARK    8  A    between atoms: C_14  and  C_15
REMARK                            x       y       z     vdW  Elec       q    Type
REMARK                         _______ _______ _______ _____ _____    ______ ____
ROOT
ATOM      1  N   UNL     1      38.983   0.798  13.790  0.00  0.00    +0.000 N 
ATOM      2  C   UNL     1      39.170   2.116  14.095  0.00  0.00    +0.000 A 
ATOM      3  N   UNL     1      40.163   2.953  13.510  0.00  0.00    +0.000 NA
ATOM      4  C   UNL     1      38.223   2.418  15.046  0.00  0.00    +0.000 A 
ATOM      5  C   UNL     1      37.449   1.311  15.339  0.00  0.00    +0.000 A 
ATOM      6  N   UNL     1      36.411   1.069  16.166  0.00  0.00    +0.000 NA
ATOM      7  C   UNL     1      35.817  -0.130  16.251  0.00  0.00    +0.000 A 
ATOM      8  C   UNL     1      34.758  -0.393  17.088  0.00  0.00    +0.000 A 
ATOM      9  C   UNL     1      34.161  -1.641  17.161  0.00  0.00    +0.000 A 
ATOM     10  C   UNL     1      34.651  -2.653  16.359  0.00  0.00    +0.000 A 
ATOM     11  C   UNL     1      35.715  -2.391  15.518  0.00  0.00    +0.000 A 
ATOM     12  C   UNL     1      36.310  -1.137  15.452  0.00  0.00    +0.000 A 
ATOM     13  N   UNL     1      37.343  -0.897  14.629  0.00  0.00    +0.000 NA
ATOM     14  C   UNL     1      37.958   0.304  14.526  0.00  0.00    +0.000 A 
ENDROOT
BRANCH   4  15
ATOM     15  C   UNL     1      38.045   3.719  15.671  0.00  0.00    +0.000 C 
ATOM     16  O   UNL     1      37.307   4.599  15.127  0.00  0.00    +0.000 OA
ATOM     17  N   UNL     1      38.658   4.090  16.889  0.00  0.00    +0.000 NA
BRANCH  17  18
ATOM     18  C   UNL     1      38.483   5.385  17.516  0.00  0.00    +0.000 C 
BRANCH  18  19
ATOM     19  C   UNL     1      39.702   5.898  18.156  0.00  0.00    +0.000 A 
ATOM     20  C   UNL     1      40.843   6.099  17.418  0.00  0.00    +0.000 A 
ATOM     21  C   UNL     1      42.010   6.587  18.010  0.00  0.00    +0.000 A 
ATOM     22  C   UNL     1      42.015   6.873  19.366  0.00  0.00    +0.000 A 
ATOM     23  C   UNL     1      40.877   6.675  20.112  0.00  0.00    +0.000 A 
ATOM     24  C   UNL     1      39.723   6.186  19.495  0.00  0.00    +0.000 A 
ENDBRANCH  18  19
ENDBRANCH  17  18
ENDBRANCH   4  15
BRANCH   1  25
ATOM     25  C   UNL     1      39.737   0.081  12.807  0.00  0.00    +0.000 C 
BRANCH  25  26
ATOM     26  C   UNL     1      39.087  -0.192  11.533  0.00  0.00    +0.000 C 
BRANCH  26  27
ATOM     27  C   UNL     1      39.618   0.587  10.389  0.00  0.00    +0.000 C 
BRANCH  27  28
ATOM     28  C   UNL     1      38.541   1.364   9.717  0.00  0.00    +0.000 C 
BRANCH  28  30
ATOM     29  C   UNL     1      37.394   3.139  10.970  0.00  0.00    +0.000 C 
ATOM     30  C   UNL     1      37.377   1.660  10.641  0.00  0.00    +0.000 C 
ENDBRANCH  28  30
ENDBRANCH  27  28
ENDBRANCH  26  27
ENDBRANCH  25  26
ENDBRANCH   1  25
TORSDOF 8
ENDMDL
MODEL 5
REMARK VINA RESULT:      -7.2      1.834      4.658
REMARK  Name = 
REMARK  8 active torsions:
REMARK  status: ('A' for Active; 'I' for Inactive)
REMARK    1  A    between atoms: C_2  and  C_3
REMARK    2  A    between atoms: C_3  and  C_4
REMARK    3  A    between atoms: C_4  and  C_5
REMARK    4  A    between atoms: C_5  and  C_6
REMARK    5  A    between atoms: C_6  and  N_7
REMARK    6  A    between atoms: C_10  and  C_11
REMARK    7  A    between atoms: N_13  and  C_14
REMARK    8  A    between atoms: C_14  and  C_15
REMARK                            x       y       z     vdW  Elec       q    Type
REMARK                         _______ _______ _______ _____ _____    ______ ____
ROOT
ATOM      1  N   UNL     1      38.973  -1.530  13.448  0.00  0.00    +0.000 N 
ATOM      2  C   UNL     1      38.597  -0.237  13.221  0.00  0.00    +0.000 A 
ATOM      3  N   UNL     1      38.641   0.412  11.954  0.00  0.00    +0.000 NA
ATOM      4  C   UNL     1      38.191   0.253  14.440  0.00  0.00    +0.000 A 
ATOM      5  C   UNL     1      38.306  -0.712  15.423  0.00  0.00    +0.000 A 
ATOM      6  N   UNL     1      38.045  -0.757  16.746  0.00  0.00    +0.000 NA
ATOM      7  C   UNL     1      38.243  -1.858  17.485  0.00  0.00    +0.000 A 
ATOM      8  C   UNL     1      37.982  -1.922  18.833  0.00  0.00    +0.000 A 
ATOM      9  C   UNL     1      38.196  -3.070  19.579  0.00  0.00    +0.000 A 
ATOM     10  C   UNL     1      38.688  -4.190  18.936  0.00  0.00    +0.000 A 
ATOM     11  C   UNL     1      38.951  -4.128  17.581  0.00  0.00    +0.000 A 
ATOM     12  C   UNL     1      38.735  -2.971  16.841  0.00  0.00    +0.000 A 
ATOM     13  N   UNL     1      38.996  -2.926  15.525  0.00  0.00    +0.000 NA
ATOM     14  C   UNL     1      38.804  -1.828  14.759  0.00  0.00    +0.000 A 
ENDROOT
BRANCH   4  15
ATOM     15  C   UNL     1      37.704   1.602  14.683  0.00  0.00    +0.000 C 
ATOM     16  O   UNL     1      36.501   1.911  14.410  0.00  0.00    +0.000 OA
ATOM     17  N   UNL     1      38.502   2.635  15.224  0.00  0.00    +0.000 NA
BRANCH  17  18
ATOM     18  C   UNL     1      38.021   3.980  15.468  0.00  0.00    +0.000 C 
BRANCH  18  19
ATOM     19  C   UNL     1      38.830   4.727  16.441  0.00  0.00    +0.000 A 
ATOM     20  C   UNL     1      38.504   4.711  17.775  0.00  0.00    +0.000 A 
ATOM     21  C   UNL     1      39.263   5.415  18.713  0.00  0.00    +0.000 A 
ATOM     22  C   UNL     1      40.363   6.142  18.288  0.00  0.00    +0.000 A 
ATOM     23  C   UNL     1      40.697   6.162  16.954  0.00  0.00    +0.000 A 
ATOM     24  C   UNL     1      39.922   5.449  16.037  0.00  0.00    +0.000 A 
ENDBRANCH  18  19
ENDBRANCH  17  18
ENDBRANCH   4  15
BRANCH   1  25
ATOM     25  C   UNL     1      39.428  -2.429  12.431  0.00  0.00    +0.000 C 
BRANCH  25  26
ATOM     26  C   UNL     1      40.842  -2.775  12.427  0.00  0.00    +0.000 C 
BRANCH  26  27
ATOM     27  C   UNL     1      41.717  -1.788  11.750  0.00  0.00    +0.000 C 
BRANCH  27  28
ATOM     28  C   UNL     1      42.307  -0.829  12.724  0.00  0.00    +0.000 C 
BRANCH  28  30
ATOM     29  C   UNL     1      43.686  -0.660  14.750  0.00  0.00    +0.000 C 
ATOM     30  C   UNL     1      42.612  -1.476  14.060  0.00  0.00    +0.000 C 
ENDBRANCH  28  30
ENDBRANCH  27  28
ENDBRANCH  26  27
ENDBRANCH  25  26
ENDBRANCH   1  25
TORSDOF 8
ENDMDL
MODEL 6
REMARK VINA RESULT:      -7.1      4.173      7.641
REMARK  Name = 
REMARK  8 active torsions:
REMARK  status: ('A' for Active; 'I' for Inactive)
REMARK    1  A    between atoms: C_2  and  C_3
REMARK    2  A    between atoms: C_3  and  C_4
REMARK    3  A    between atoms: C_4  and  C_5
REMARK    4  A    between atoms: C_5  and  C_6
REMARK    5  A    between atoms: C_6  and  N_7
REMARK    6  A    between atoms: C_10  and  C_11
REMARK    7  A    between atoms: N_13  and  C_14
REMARK    8  A    between atoms: C_14  and  C_15
REMARK                            x       y       z     vdW  Elec       q    Type
REMARK                         _______ _______ _______ _____ _____    ______ ____
ROOT
ATOM      1  N   UNL     1      37.822   3.782  15.244  0.00  0.00    +0.000 N 
ATOM      2  C   UNL     1      38.280   3.704  13.960  0.00  0.00    +0.000 A 
ATOM      3  N   UNL     1      38.939   4.758  13.265  0.00  0.00    +0.000 NA
ATOM      4  C   UNL     1      37.967   2.436  13.528  0.00  0.00    +0.000 A 
ATOM      5  C   UNL     1      37.323   1.722  14.522  0.00  0.00    +0.000 A 
ATOM      6  N   UNL     1      36.824   0.473  14.623  0.00  0.00    +0.000 NA
ATOM      7  C   UNL     1      36.241   0.015  15.740  0.00  0.00    +0.000 A 
ATOM      8  C   UNL     1      35.728  -1.255  15.861  0.00  0.00    +0.000 A 
ATOM      9  C   UNL     1      35.128  -1.707  17.025  0.00  0.00    +0.000 A 
ATOM     10  C   UNL     1      35.046  -0.844  18.102  0.00  0.00    +0.000 A 
ATOM     11  C   UNL     1      35.561   0.432  17.982  0.00  0.00    +0.000 A 
ATOM     12  C   UNL     1      36.160   0.878  16.810  0.00  0.00    +0.000 A 
ATOM     13  N   UNL     1      36.656   2.122  16.709  0.00  0.00    +0.000 NA
ATOM     14  C   UNL     1      37.248   2.605  15.593  0.00  0.00    +0.000 A 
ENDROOT
BRANCH   4  15
ATOM     15  C   UNL     1      38.264   1.900  12.209  0.00  0.00    +0.000 C 
ATOM     16  O   UNL     1      39.384   1.346  11.977  0.00  0.00    +0.000 OA
ATOM     17  N   UNL     1      37.360   1.951  11.124  0.00  0.00    +0.000 NA
BRANCH  17  18
ATOM     18  C   UNL     1      37.652   1.418   9.809  0.00  0.00    +0.000 C 
BRANCH  18  19
ATOM     19  C   UNL     1      36.961   2.124   8.721  0.00  0.00    +0.000 A 
ATOM     20  C   UNL     1      36.363   3.339   8.951  0.00  0.00    +0.000 A 
ATOM     21  C   UNL     1      35.702   4.024   7.928  0.00  0.00    +0.000 A 
ATOM     22  C   UNL     1      35.651   3.467   6.660  0.00  0.00    +0.000 A 
ATOM     23  C   UNL     1      36.248   2.251   6.422  0.00  0.00    +0.000 A 
ATOM     24  C   UNL     1      36.902   1.587   7.462  0.00  0.00    +0.000 A 
ENDBRANCH  18  19
ENDBRANCH  17  18
ENDBRANCH   4  15
BRANCH   1  25
ATOM     25  C   UNL     1      37.978   4.928  16.089  0.00  0.00    +0.000 C 
BRANCH  25  26
ATOM     26  C   UNL     1      39.154   4.973  16.945  0.00  0.00    +0.000 C 
BRANCH  26  27
ATOM     27  C   UNL     1      38.863   4.900  18.398  0.00  0.00    +0.000 C 
BRANCH  27  28
ATOM     28  C   UNL     1      39.327   6.124  19.106  0.00  0.00    +0.000 C 
BRANCH  28  30
ATOM     29  C   UNL     1      41.467   6.324  20.294  0.00  0.00    +0.000 C 
ATOM     30  C   UNL     1      40.812   6.366  18.929  0.00  0.00    +0.000 C 
ENDBRANCH  28  30
ENDBRANCH  27  28
ENDBRANCH  26  27
ENDBRANCH  25  26
ENDBRANCH   1  25
TORSDOF 8
ENDMDL
MODEL 7
REMARK VINA RESULT:      -6.9      1.880      4.637
REMARK  Name = 
REMARK  8 active torsions:
REMARK  status: ('A' for Active; 'I' for Inactive)
REMARK    1  A    between atoms: C_2  and  C_3
REMARK    2  A    between atoms: C_3  and  C_4
REMARK    3  A    between atoms: C_4  and  C_5
REMARK    4  A    between atoms: C_5  and  C_6
REMARK    5  A    between atoms: C_6  and  N_7
REMARK    6  A    between atoms: C_10  and  C_11
REMARK    7  A    between atoms: N_13  and  C_14
REMARK    8  A    between atoms: C_14  and  C_15
REMARK                            x       y       z     vdW  Elec       q    Type
REMARK                         _______ _______ _______ _____ _____    ______ ____
ROOT
ATOM      1  N   UNL     1      39.302   2.893  14.113  0.00  0.00    +0.000 N 
ATOM      2  C   UNL     1      39.474   4.135  14.655  0.00  0.00    +0.000 A 
ATOM      3  N   UNL     1      40.400   5.107  14.181  0.00  0.00    +0.000 NA
ATOM      4  C   UNL     1      38.590   4.210  15.706  0.00  0.00    +0.000 A 
ATOM      5  C   UNL     1      37.868   3.037  15.828  0.00  0.00    +0.000 A 
ATOM      6  N   UNL     1      36.899   2.600  16.658  0.00  0.00    +0.000 NA
ATOM      7  C   UNL     1      36.345   1.384  16.547  0.00  0.00    +0.000 A 
ATOM      8  C   UNL     1      35.356   0.923  17.383  0.00  0.00    +0.000 A 
ATOM      9  C   UNL     1      34.799  -0.339  17.251  0.00  0.00    +0.000 A 
ATOM     10  C   UNL     1      35.259  -1.158  16.238  0.00  0.00    +0.000 A 
ATOM     11  C   UNL     1      36.252  -0.697  15.397  0.00  0.00    +0.000 A 
ATOM     12  C   UNL     1      36.807   0.570  15.537  0.00  0.00    +0.000 A 
ATOM     13  N   UNL     1      37.772   1.004  14.712  0.00  0.00    +0.000 NA
ATOM     14  C   UNL     1      38.345   2.226  14.804  0.00  0.00    +0.000 A 
ENDROOT
BRANCH   4  15
ATOM     15  C   UNL     1      38.421   5.359  16.582  0.00  0.00    +0.000 C 
ATOM     16  O   UNL     1      37.853   6.414  16.158  0.00  0.00    +0.000 OA
ATOM     17  N   UNL     1      38.861   5.388  17.924  0.00  0.00    +0.000 NA
BRANCH  17  18
ATOM     18  C   UNL     1      38.696   6.530  18.801  0.00  0.00    +0.000 C 
BRANCH  18  19
ATOM     19  C   UNL     1      39.948   6.981  19.424  0.00  0.00    +0.000 A 
ATOM     20  C   UNL     1      40.878   6.066  19.854  0.00  0.00    +0.000 A 
ATOM     21  C   UNL     1      42.074   6.477  20.448  0.00  0.00    +0.000 A 
ATOM     22  C   UNL     1      42.324   7.831  20.605  0.00  0.00    +0.000 A 
ATOM     23  C   UNL     1      41.398   8.753  20.177  0.00  0.00    +0.000 A 
ATOM     24  C   UNL     1      40.210   8.315  19.586  0.00  0.00    +0.000 A 
ENDBRANCH  18  19
ENDBRANCH  17  18
ENDBRANCH   4  15
BRANCH   1  25
ATOM     25  C   UNL     1      40.003   2.409  12.963  0.00  0.00    +0.000 C 
BRANCH  25  26
ATOM     26  C   UNL     1      41.141   1.530  13.193  0.00  0.00    +0.000 C 
BRANCH  26  27
ATOM     27  C   UNL     1      40.850   0.086  13.024  0.00  0.00    +0.000 C 
BRANCH  27  28
ATOM     28  C   UNL     1      40.991  -0.649  14.311  0.00  0.00    +0.000 C 
BRANCH  28  30
ATOM     29  C   UNL     1      40.568  -2.904  15.189  0.00  0.00    +0.000 C 
ATOM     30  C   UNL     1      39.935  -1.722  14.484  0.00  0.00    +0.000 C 
ENDBRANCH  28  30
ENDBRANCH  27  28
ENDBRANCH  26  27
ENDBRANCH  25  26
ENDBRANCH   1  25
TORSDOF 8
ENDMDL
MODEL 8
REMARK VINA RESULT:      -6.9      2.050      7.316
REMARK  Name = 
REMARK  8 active torsions:
REMARK  status: ('A' for Active; 'I' for Inactive)
REMARK    1  A    between atoms: C_2  and  C_3
REMARK    2  A    between atoms: C_3  and  C_4
REMARK    3  A    between atoms: C_4  and  C_5
REMARK    4  A    between atoms: C_5  and  C_6
REMARK    5  A    between atoms: C_6  and  N_7
REMARK    6  A    between atoms: C_10  and  C_11
REMARK    7  A    between atoms: N_13  and  C_14
REMARK    8  A    between atoms: C_14  and  C_15
REMARK                            x       y       z     vdW  Elec       q    Type
REMARK                         _______ _______ _______ _____ _____    ______ ____
ROOT
ATOM      1  N   UNL     1      38.763   4.331  13.915  0.00  0.00    +0.000 N 
ATOM      2  C   UNL     1      37.891   3.290  14.062  0.00  0.00    +0.000 A 
ATOM      3  N   UNL     1      37.338   2.535  12.989  0.00  0.00    +0.000 NA
ATOM      4  C   UNL     1      37.690   3.160  15.416  0.00  0.00    +0.000 A 
ATOM      5  C   UNL     1      38.423   4.100  16.116  0.00  0.00    +0.000 A 
ATOM      6  N   UNL     1      38.589   4.395  17.422  0.00  0.00    +0.000 NA
ATOM      7  C   UNL     1      39.392   5.382  17.844  0.00  0.00    +0.000 A 
ATOM      8  C   UNL     1      39.573   5.696  19.170  0.00  0.00    +0.000 A 
ATOM      9  C   UNL     1      40.408   6.722  19.584  0.00  0.00    +0.000 A 
ATOM     10  C   UNL     1      41.081   7.451  18.622  0.00  0.00    +0.000 A 
ATOM     11  C   UNL     1      40.900   7.137  17.290  0.00  0.00    +0.000 A 
ATOM     12  C   UNL     1      40.060   6.108  16.883  0.00  0.00    +0.000 A 
ATOM     13  N   UNL     1      39.894   5.814  15.583  0.00  0.00    +0.000 NA
ATOM     14  C   UNL     1      39.090   4.824  15.134  0.00  0.00    +0.000 A 
ENDROOT
BRANCH   4  15
ATOM     15  C   UNL     1      36.827   2.173  16.046  0.00  0.00    +0.000 C 
ATOM     16  O   UNL     1      35.700   2.514  16.524  0.00  0.00    +0.000 OA
ATOM     17  N   UNL     1      37.165   0.806  16.171  0.00  0.00    +0.000 NA
BRANCH  17  18
ATOM     18  C   UNL     1      36.309  -0.180  16.798  0.00  0.00    +0.000 C 
BRANCH  18  19
ATOM     19  C   UNL     1      37.039  -1.158  17.617  0.00  0.00    +0.000 A 
ATOM     20  C   UNL     1      37.986  -1.972  17.048  0.00  0.00    +0.000 A 
ATOM     21  C   UNL     1      38.690  -2.906  17.812  0.00  0.00    +0.000 A 
ATOM     22  C   UNL     1      38.426  -3.011  19.169  0.00  0.00    +0.000 A 
ATOM     23  C   UNL     1      37.479  -2.198  19.746  0.00  0.00    +0.000 A 
ATOM     24  C   UNL     1      36.790  -1.272  18.959  0.00  0.00    +0.000 A 
ENDBRANCH  18  19
ENDBRANCH  17  18
ENDBRANCH   4  15
BRANCH   1  25
ATOM     25  C   UNL     1      39.276   4.783  12.657  0.00  0.00    +0.000 C 
BRANCH  25  26
ATOM     26  C   UNL     1      40.648   4.425  12.326  0.00  0.00    +0.000 C 
BRANCH  26  27
ATOM     27  C   UNL     1      40.822   3.039  11.829  0.00  0.00    +0.000 C 
BRANCH  27  28
ATOM     28  C   UNL     1      41.321   2.137  12.903  0.00  0.00    +0.000 C 
BRANCH  28  30
ATOM     29  C   UNL     1      40.297   0.488  14.408  0.00  0.00    +0.000 C 
ATOM     30  C   UNL     1      40.564   0.826  12.955  0.00  0.00    +0.000 C 
ENDBRANCH  28  30
ENDBRANCH  27  28
ENDBRANCH  26  27
ENDBRANCH  25  26
ENDBRANCH   1  25
TORSDOF 8
ENDMDL
MODEL 9
REMARK VINA RESULT:      -6.8     25.110     28.242
REMARK  Name = 
REMARK  8 active torsions:
REMARK  status: ('A' for Active; 'I' for Inactive)
REMARK    1  A    between atoms: C_2  and  C_3
REMARK    2  A    between atoms: C_3  and  C_4
REMARK    3  A    between atoms: C_4  and  C_5
REMARK    4  A    between atoms: C_5  and  C_6
REMARK    5  A    between atoms: C_6  and  N_7
REMARK    6  A    between atoms: C_10  and  C_11
REMARK    7  A    between atoms: N_13  and  C_14
REMARK    8  A    between atoms: C_14  and  C_15
REMARK                            x       y       z     vdW  Elec       q    Type
REMARK                         _______ _______ _______ _____ _____    ______ ____
ROOT
ATOM      1  N   UNL     1      12.322  -0.605  27.887  0.00  0.00    +0.000 N 
ATOM      2  C   UNL     1      12.131  -0.460  29.232  0.00  0.00    +0.000 A 
ATOM      3  N   UNL     1      10.891  -0.659  29.903  0.00  0.00    +0.000 NA
ATOM      4  C   UNL     1      13.354  -0.096  29.746  0.00  0.00    +0.000 A 
ATOM      5  C   UNL     1      14.304  -0.014  28.745  0.00  0.00    +0.000 A 
ATOM      6  N   UNL     1      15.619   0.285  28.706  0.00  0.00    +0.000 NA
ATOM      7  C   UNL     1      16.329   0.280  27.569  0.00  0.00    +0.000 A 
ATOM      8  C   UNL     1      17.669   0.581  27.511  0.00  0.00    +0.000 A 
ATOM      9  C   UNL     1      18.383   0.572  26.324  0.00  0.00    +0.000 A 
ATOM     10  C   UNL     1      17.716   0.246  25.158  0.00  0.00    +0.000 A 
ATOM     11  C   UNL     1      16.370  -0.056  25.214  0.00  0.00    +0.000 A 
ATOM     12  C   UNL     1      15.661  -0.043  26.409  0.00  0.00    +0.000 A 
ATOM     13  N   UNL     1      14.352  -0.339  26.447  0.00  0.00    +0.000 NA
ATOM     14  C   UNL     1      13.616  -0.342  27.582  0.00  0.00    +0.000 A 
ENDROOT
BRANCH   4  15
ATOM     15  C   UNL     1      13.630   0.169  31.149  0.00  0.00    +0.000 C 
ATOM     16  O   UNL     1      14.366  -0.620  31.821  0.00  0.00    +0.000 OA
ATOM     17  N   UNL     1      13.119   1.286  31.847  0.00  0.00    +0.000 NA
BRANCH  17  18
ATOM     18  C   UNL     1      13.392   1.555  33.245  0.00  0.00    +0.000 C 
BRANCH  18  19
ATOM     19  C   UNL     1      13.167   2.956  33.630  0.00  0.00    +0.000 A 
ATOM     20  C   UNL     1      11.890   3.434  33.796  0.00  0.00    +0.000 A 
ATOM     21  C   UNL     1      11.658   4.762  34.163  0.00  0.00    +0.000 A 
ATOM     22  C   UNL     1      12.737   5.610  34.360  0.00  0.00    +0.000 A 
ATOM     23  C   UNL     1      14.018   5.138  34.196  0.00  0.00    +0.000 A 
ATOM     24  C   UNL     1      14.222   3.805  33.829  0.00  0.00    +0.000 A 
ENDBRANCH  18  19
ENDBRANCH  17  18
ENDBRANCH   4  15
BRANCH   1  25
ATOM     25  C   UNL     1      11.306  -1.018  26.967  0.00  0.00    +0.000 C 
BRANCH  25  26
ATOM     26  C   UNL     1      10.209  -0.093  26.721  0.00  0.00    +0.000 C 
BRANCH  26  27
ATOM     27  C   UNL     1      10.578   1.107  25.932  0.00  0.00    +0.000 C 
BRANCH  27  28
ATOM     28  C   UNL     1      10.642   2.321  26.791  0.00  0.00    +0.000 C 
BRANCH  28  30
ATOM     29  C   UNL     1      11.900   4.371  27.291  0.00  0.00    +0.000 C 
ATOM     30  C   UNL     1      11.503   3.412  26.187  0.00  0.00    +0.000 C 
ENDBRANCH  28  30
ENDBRANCH  27  28
ENDBRANCH  26  27
ENDBRANCH  25  26
ENDBRANCH   1  25
TORSDOF 8
ENDMDL
MODEL 10
REMARK VINA RESULT:      -6.8      2.653      8.097
REMARK  Name = 
REMARK  8 active torsions:
REMARK  status: ('A' for Active; 'I' for Inactive)
REMARK    1  A    between atoms: C_2  and  C_3
REMARK    2  A    between atoms: C_3  and  C_4
REMARK    3  A    between atoms: C_4  and  C_5
REMARK    4  A    between atoms: C_5  and  C_6
REMARK    5  A    between atoms: C_6  and  N_7
REMARK    6  A    between atoms: C_10  and  C_11
REMARK    7  A    between atoms: N_13  and  C_14
REMARK    8  A    between atoms: C_14  and  C_15
REMARK                            x       y       z     vdW  Elec       q    Type
REMARK                         _______ _______ _______ _____ _____    ______ ____
ROOT
ATOM      1  N   UNL     1      37.673   3.413  13.897  0.00  0.00    +0.000 N 
ATOM      2  C   UNL     1      36.925   2.332  14.267  0.00  0.00    +0.000 A 
ATOM      3  N   UNL     1      36.284   1.439  13.362  0.00  0.00    +0.000 NA
ATOM      4  C   UNL     1      36.943   2.318  15.642  0.00  0.00    +0.000 A 
ATOM      5  C   UNL     1      37.689   3.372  16.136  0.00  0.00    +0.000 A 
ATOM      6  N   UNL     1      38.024   3.803  17.369  0.00  0.00    +0.000 NA
ATOM      7  C   UNL     1      38.794   4.881  17.575  0.00  0.00    +0.000 A 
ATOM      8  C   UNL     1      39.145   5.334  18.825  0.00  0.00    +0.000 A 
ATOM      9  C   UNL     1      39.942   6.452  19.014  0.00  0.00    +0.000 A 
ATOM     10  C   UNL     1      40.397   7.131  17.900  0.00  0.00    +0.000 A 
ATOM     11  C   UNL     1      40.045   6.678  16.644  0.00  0.00    +0.000 A 
ATOM     12  C   UNL     1      39.245   5.557  16.463  0.00  0.00    +0.000 A 
ATOM     13  N   UNL     1      38.911   5.128  15.235  0.00  0.00    +0.000 NA
ATOM     14  C   UNL     1      38.136   4.044  15.003  0.00  0.00    +0.000 A 
ENDROOT
BRANCH   4  15
ATOM     15  C   UNL     1      36.272   1.338  16.481  0.00  0.00    +0.000 C 
ATOM     16  O   UNL     1      35.102   1.561  16.923  0.00  0.00    +0.000 OA
ATOM     17  N   UNL     1      36.852   0.104  16.855  0.00  0.00    +0.000 NA
BRANCH  17  18
ATOM     18  C   UNL     1      36.188  -0.876  17.691  0.00  0.00    +0.000 C 
BRANCH  18  19
ATOM     19  C   UNL     1      35.956  -2.162  17.018  0.00  0.00    +0.000 A 
ATOM     20  C   UNL     1      36.882  -3.172  17.111  0.00  0.00    +0.000 A 
ATOM     21  C   UNL     1      36.677  -4.401  16.479  0.00  0.00    +0.000 A 
ATOM     22  C   UNL     1      35.518  -4.602  15.746  0.00  0.00    +0.000 A 
ATOM     23  C   UNL     1      34.586  -3.596  15.649  0.00  0.00    +0.000 A 
ATOM     24  C   UNL     1      34.815  -2.376  16.291  0.00  0.00    +0.000 A 
ENDBRANCH  18  19
ENDBRANCH  17  18
ENDBRANCH   4  15
BRANCH   1  25
ATOM     25  C   UNL     1      37.951   3.778  12.541  0.00  0.00    +0.000 C 
BRANCH  25  26
ATOM     26  C   UNL     1      36.901   4.467  11.805  0.00  0.00    +0.000 C 
BRANCH  26  27
ATOM     27  C   UNL     1      36.517   5.785  12.365  0.00  0.00    +0.000 C 
BRANCH  27  28
ATOM     28  C   UNL     1      35.250   5.697  13.140  0.00  0.00    +0.000 C 
BRANCH  28  30
ATOM     29  C   UNL     1      33.646   7.261  14.148  0.00  0.00    +0.000 C 
ATOM     30  C   UNL     1      34.312   6.851  12.850  0.00  0.00    +0.000 C 
ENDBRANCH  28  30
ENDBRANCH  27  28
ENDBRANCH  26  27
ENDBRANCH  25  26
ENDBRANCH   1  25
TORSDOF 8
ENDMDL
