MODEL 1
REMARK VINA RESULT:      -8.9      0.000      0.000
REMARK  Name = 
REMARK  8 active torsions:
REMARK  status: ('A' for Active; 'I' for Inactive)
REMARK    1  A    between atoms: C_2  and  C_3
REMARK    2  A    between atoms: C_6  and  N_7
REMARK    3  A    between atoms: C_8  and  C_10
REMARK    4  A    between atoms: C_10  and  C_11
REMARK    5  A    between atoms: C_10  and  N_18
REMARK    6  A    between atoms: C_11  and  C_12
REMARK    7  A    between atoms: C_19  and  C_21
REMARK    8  A    between atoms: C_24  and  C_25
REMARK                            x       y       z     vdW  Elec       q    Type
REMARK                         _______ _______ _______ _____ _____    ______ ____
ROOT
ATOM      1  C   UNL     1      36.615   4.332  15.728  0.00  0.00    +0.000 C 
ENDROOT
BRANCH   1   3
ATOM      2  N   UNL     1      38.247   5.535  17.227  0.00  0.00    +0.000 NA
ATOM      3  C   UNL     1      38.067   4.460  16.359  0.00  0.00    +0.000 C 
ATOM      4  O   UNL     1      38.966   3.696  16.102  0.00  0.00    +0.000 OA
BRANCH   2   8
ATOM      5  C   UNL     1      41.843   6.571  19.255  0.00  0.00    +0.000 A 
ATOM      6  C   UNL     1      41.782   6.479  17.877  0.00  0.00    +0.000 A 
ATOM      7  C   UNL     1      40.623   6.175  17.181  0.00  0.00    +0.000 A 
ATOM      8  C   UNL     1      39.446   5.949  17.891  0.00  0.00    +0.000 A 
ATOM      9  C   UNL     1      39.544   6.053  19.264  0.00  0.00    +0.000 A 
ATOM     10  C   UNL     1      40.689   6.353  19.983  0.00  0.00    +0.000 A 
BRANCH   5  12
ATOM     11  C   UNL     1      43.199   6.019  21.212  0.00  0.00    +0.000 C 
ATOM     12  C   UNL     1      43.089   6.888  19.988  0.00  0.00    +0.000 C 
ENDBRANCH   5  12
ENDBRANCH   2   8
ENDBRANCH   1   3
BRANCH   1  13
ATOM     13  N   UNL     1      36.690   2.823  15.287  0.00  0.00    +0.000 NA
ATOM     14  C   UNL     1      36.030   1.843  15.934  0.00  0.00    +0.000 C 
ATOM     15  O   UNL     1      35.301   2.225  16.948  0.00  0.00    +0.000 OA
BRANCH  14  16
ATOM     16  C   UNL     1      36.041   0.456  15.624  0.00  0.00    +0.000 A 
ATOM     17  C   UNL     1      35.275  -0.386  16.413  0.00  0.00    +0.000 A 
ATOM     18  C   UNL     1      35.226  -1.727  16.243  0.00  0.00    +0.000 A 
ATOM     19  C   UNL     1      35.966  -2.332  15.239  0.00  0.00    +0.000 A 
ATOM     20  C   UNL     1      36.728  -1.495  14.445  0.00  0.00    +0.000 A 
ATOM     21  C   UNL     1      36.761  -0.142  14.640  0.00  0.00    +0.000 A 
BRANCH  19  22
ATOM     22  C   UNL     1      35.979  -3.773  15.004  0.00  0.00    +0.000 C 
ATOM     23  C   UNL     1      36.360  -4.543  16.276  0.00  0.00    +0.000 C 
ATOM     24  C   UNL     1      37.039  -4.100  13.971  0.00  0.00    +0.000 C 
ATOM     25  C   UNL     1      34.622  -4.291  14.562  0.00  0.00    +0.000 C 
ENDBRANCH  19  22
ENDBRANCH  14  16
ENDBRANCH   1  13
BRANCH   1  26
ATOM     26  C   UNL     1      37.101   4.895  14.202  0.00  0.00    +0.000 C 
BRANCH  26  27
ATOM     27  C   UNL     1      36.100   5.967  13.999  0.00  0.00    +0.000 A 
ATOM     28  C   UNL     1      36.466   7.268  14.438  0.00  0.00    +0.000 A 
ATOM     29  C   UNL     1      35.591   8.324  14.343  0.00  0.00    +0.000 A 
ATOM     30  C   UNL     1      34.322   8.140  13.817  0.00  0.00    +0.000 A 
ATOM     31  C   UNL     1      33.970   6.893  13.399  0.00  0.00    +0.000 A 
ATOM     32  C   UNL     1      34.871   5.850  13.503  0.00  0.00    +0.000 A 
ENDBRANCH  26  27
ENDBRANCH   1  26
TORSDOF 8
ENDMDL
MODEL 2
REMARK VINA RESULT:      -8.3      1.976      2.767
REMARK  Name = 
REMARK  8 active torsions:
REMARK  status: ('A' for Active; 'I' for Inactive)
REMARK    1  A    between atoms: C_2  and  C_3
REMARK    2  A    between atoms: C_6  and  N_7
REMARK    3  A    between atoms: C_8  and  C_10
REMARK    4  A    between atoms: C_10  and  C_11
REMARK    5  A    between atoms: C_10  and  N_18
REMARK    6  A    between atoms: C_11  and  C_12
REMARK    7  A    between atoms: C_19  and  C_21
REMARK    8  A    between atoms: C_24  and  C_25
REMARK                            x       y       z     vdW  Elec       q    Type
REMARK                         _______ _______ _______ _____ _____    ______ ____
ROOT
ATOM      1  C   UNL     1      36.758   6.370  14.554  0.00  0.00    +0.000 C 
ENDROOT
BRANCH   1   3
ATOM      2  N   UNL     1      38.455   5.999  16.381  0.00  0.00    +0.000 NA
ATOM      3  C   UNL     1      37.872   6.938  15.535  0.00  0.00    +0.000 C 
ATOM      4  O   UNL     1      38.189   8.102  15.565  0.00  0.00    +0.000 OA
BRANCH   2   8
ATOM      5  C   UNL     1      41.344   6.436  19.476  0.00  0.00    +0.000 A 
ATOM      6  C   UNL     1      41.697   6.453  18.140  0.00  0.00    +0.000 A 
ATOM      7  C   UNL     1      40.782   6.345  17.106  0.00  0.00    +0.000 A 
ATOM      8  C   UNL     1      39.428   6.213  17.409  0.00  0.00    +0.000 A 
ATOM      9  C   UNL     1      39.114   6.204  18.753  0.00  0.00    +0.000 A 
ATOM     10  C   UNL     1      40.008   6.308  19.805  0.00  0.00    +0.000 A 
BRANCH   5  12
ATOM     11  C   UNL     1      43.726   6.578  20.006  0.00  0.00    +0.000 C 
ATOM     12  C   UNL     1      42.332   6.544  20.573  0.00  0.00    +0.000 C 
ENDBRANCH   5  12
ENDBRANCH   2   8
ENDBRANCH   1   3
BRANCH   1  13
ATOM     13  N   UNL     1      36.801   4.863  15.009  0.00  0.00    +0.000 NA
ATOM     14  C   UNL     1      35.747   4.034  14.875  0.00  0.00    +0.000 C 
ATOM     15  O   UNL     1      34.684   4.554  14.323  0.00  0.00    +0.000 OA
BRANCH  14  16
ATOM     16  C   UNL     1      35.680   2.668  15.262  0.00  0.00    +0.000 A 
ATOM     17  C   UNL     1      35.008   2.362  16.433  0.00  0.00    +0.000 A 
ATOM     18  C   UNL     1      34.904   1.108  16.927  0.00  0.00    +0.000 A 
ATOM     19  C   UNL     1      35.484   0.042  16.258  0.00  0.00    +0.000 A 
ATOM     20  C   UNL     1      36.152   0.341  15.085  0.00  0.00    +0.000 A 
ATOM     21  C   UNL     1      36.245   1.620  14.609  0.00  0.00    +0.000 A 
BRANCH  19  22
ATOM     22  C   UNL     1      35.429  -1.336  16.736  0.00  0.00    +0.000 C 
ATOM     23  C   UNL     1      35.528  -2.335  15.575  0.00  0.00    +0.000 C 
ATOM     24  C   UNL     1      34.088  -1.581  17.399  0.00  0.00    +0.000 C 
ATOM     25  C   UNL     1      36.564  -1.655  17.692  0.00  0.00    +0.000 C 
ENDBRANCH  19  22
ENDBRANCH  14  16
ENDBRANCH   1  13
BRANCH   1  26
ATOM     26  C   UNL     1      37.849   6.108  13.279  0.00  0.00    +0.000 C 
BRANCH  26  27
ATOM     27  C   UNL     1      37.065   6.673  12.158  0.00  0.00    +0.000 A 
ATOM     28  C   UNL     1      36.366   5.744  11.340  0.00  0.00    +0.000 A 
ATOM     29  C   UNL     1      35.649   6.160  10.243  0.00  0.00    +0.000 A 
ATOM     30  C   UNL     1      35.596   7.503   9.907  0.00  0.00    +0.000 A 
ATOM     31  C   UNL     1      36.267   8.393  10.688  0.00  0.00    +0.000 A 
ATOM     32  C   UNL     1      36.977   7.948  11.787  0.00  0.00    +0.000 A 
ENDBRANCH  26  27
ENDBRANCH   1  26
TORSDOF 8
ENDMDL
MODEL 3
REMARK VINA RESULT:      -8.2      2.082      2.866
REMARK  Name = 
REMARK  8 active torsions:
REMARK  status: ('A' for Active; 'I' for Inactive)
REMARK    1  A    between atoms: C_2  and  C_3
REMARK    2  A    between atoms: C_6  and  N_7
REMARK    3  A    between atoms: C_8  and  C_10
REMARK    4  A    between atoms: C_10  and  C_11
REMARK    5  A    between atoms: C_10  and  N_18
REMARK    6  A    between atoms: C_11  and  C_12
REMARK    7  A    between atoms: C_19  and  C_21
REMARK    8  A    between atoms: C_24  and  C_25
REMARK                            x       y       z     vdW  Elec       q    Type
REMARK                         _______ _______ _______ _____ _____    ______ ____
ROOT
ATOM      1  C   UNL     1      37.350   5.815  14.255  0.00  0.00    +0.000 C 
ENDROOT
BRANCH   1   3
ATOM      2  N   UNL     1      38.812   5.575  16.295  0.00  0.00    +0.000 NA
ATOM      3  C   UNL     1      38.414   6.423  15.265  0.00  0.00    +0.000 C 
ATOM      4  O   UNL     1      38.846   7.547  15.168  0.00  0.00    +0.000 OA
BRANCH   2   8
ATOM      5  C   UNL     1      41.420   6.605  19.497  0.00  0.00    +0.000 A 
ATOM      6  C   UNL     1      40.104   6.238  19.715  0.00  0.00    +0.000 A 
ATOM      7  C   UNL     1      39.236   5.867  18.702  0.00  0.00    +0.000 A 
ATOM      8  C   UNL     1      39.696   5.855  17.386  0.00  0.00    +0.000 A 
ATOM      9  C   UNL     1      41.013   6.223  17.208  0.00  0.00    +0.000 A 
ATOM     10  C   UNL     1      41.901   6.600  18.202  0.00  0.00    +0.000 A 
BRANCH   5  12
ATOM     11  C   UNL     1      43.031   5.796  21.147  0.00  0.00    +0.000 C 
ATOM     12  C   UNL     1      42.336   7.008  20.587  0.00  0.00    +0.000 C 
ENDBRANCH   5  12
ENDBRANCH   2   8
ENDBRANCH   1   3
BRANCH   1  13
ATOM     13  N   UNL     1      37.205   4.390  14.908  0.00  0.00    +0.000 NA
ATOM     14  C   UNL     1      36.053   3.690  14.875  0.00  0.00    +0.000 C 
ATOM     15  O   UNL     1      35.062   4.261  14.246  0.00  0.00    +0.000 OA
BRANCH  14  16
ATOM     16  C   UNL     1      35.817   2.408  15.441  0.00  0.00    +0.000 A 
ATOM     17  C   UNL     1      36.427   1.318  14.843  0.00  0.00    +0.000 A 
ATOM     18  C   UNL     1      36.255   0.045  15.263  0.00  0.00    +0.000 A 
ATOM     19  C   UNL     1      35.434  -0.231  16.344  0.00  0.00    +0.000 A 
ATOM     20  C   UNL     1      34.826   0.854  16.949  0.00  0.00    +0.000 A 
ATOM     21  C   UNL     1      35.015   2.133  16.502  0.00  0.00    +0.000 A 
BRANCH  19  22
ATOM     22  C   UNL     1      35.185  -1.579  16.845  0.00  0.00    +0.000 C 
ATOM     23  C   UNL     1      36.224  -1.983  17.900  0.00  0.00    +0.000 C 
ATOM     24  C   UNL     1      35.325  -2.569  15.705  0.00  0.00    +0.000 C 
ATOM     25  C   UNL     1      33.820  -1.704  17.497  0.00  0.00    +0.000 C 
ENDBRANCH  19  22
ENDBRANCH  14  16
ENDBRANCH   1  13
BRANCH   1  26
ATOM     26  C   UNL     1      38.528   5.286  13.151  0.00  0.00    +0.000 C 
BRANCH  26  27
ATOM     27  C   UNL     1      37.833   5.588  11.880  0.00  0.00    +0.000 A 
ATOM     28  C   UNL     1      38.194   6.802  11.232  0.00  0.00    +0.000 A 
ATOM     29  C   UNL     1      37.573   7.201  10.072  0.00  0.00    +0.000 A 
ATOM     30  C   UNL     1      36.572   6.427   9.508  0.00  0.00    +0.000 A 
ATOM     31  C   UNL     1      36.224   5.267  10.128  0.00  0.00    +0.000 A 
ATOM     32  C   UNL     1      36.867   4.886  11.292  0.00  0.00    +0.000 A 
ENDBRANCH  26  27
ENDBRANCH   1  26
TORSDOF 8
ENDMDL
MODEL 4
REMARK VINA RESULT:      -8.0      2.745      8.725
REMARK  Name = 
REMARK  8 active torsions:
REMARK  status: ('A' for Active; 'I' for Inactive)
REMARK    1  A    between atoms: C_2  and  C_3
REMARK    2  A    between atoms: C_6  and  N_7
REMARK    3  A    between atoms: C_8  and  C_10
REMARK    4  A    between atoms: C_10  and  C_11
REMARK    5  A    between atoms: C_10  and  N_18
REMARK    6  A    between atoms: C_11  and  C_12
REMARK    7  A    between atoms: C_19  and  C_21
REMARK    8  A    between atoms: C_24  and  C_25
REMARK                            x       y       z     vdW  Elec       q    Type
REMARK                         _______ _______ _______ _____ _____    ______ ____
ROOT
ATOM      1  C   UNL     1      36.991   4.080  15.380  0.00  0.00    +0.000 C 
ENDROOT
BRANCH   1   3
ATOM      2  N   UNL     1      36.614   1.735  16.226  0.00  0.00    +0.000 NA
ATOM      3  C   UNL     1      36.670   2.550  15.098  0.00  0.00    +0.000 C 
ATOM      4  O   UNL     1      36.500   2.107  13.988  0.00  0.00    +0.000 OA
BRANCH   2   8
ATOM      5  C   UNL     1      35.914  -2.464  16.241  0.00  0.00    +0.000 A 
ATOM      6  C   UNL     1      37.133  -1.928  15.868  0.00  0.00    +0.000 A 
ATOM      7  C   UNL     1      37.406  -0.570  15.880  0.00  0.00    +0.000 A 
ATOM      8  C   UNL     1      36.413   0.319  16.290  0.00  0.00    +0.000 A 
ATOM      9  C   UNL     1      35.212  -0.253  16.657  0.00  0.00    +0.000 A 
ATOM     10  C   UNL     1      34.912  -1.605  16.652  0.00  0.00    +0.000 A 
BRANCH   5  12
ATOM     11  C   UNL     1      34.525  -4.205  15.235  0.00  0.00    +0.000 C 
ATOM     12  C   UNL     1      35.630  -3.916  16.215  0.00  0.00    +0.000 C 
ENDBRANCH   5  12
ENDBRANCH   2   8
ENDBRANCH   1   3
BRANCH   1  13
ATOM     13  N   UNL     1      36.916   4.606  13.898  0.00  0.00    +0.000 NA
ATOM     14  C   UNL     1      35.833   5.238  13.406  0.00  0.00    +0.000 C 
ATOM     15  O   UNL     1      34.847   5.408  14.244  0.00  0.00    +0.000 OA
BRANCH  14  16
ATOM     16  C   UNL     1      35.663   5.739  12.086  0.00  0.00    +0.000 A 
ATOM     17  C   UNL     1      34.686   6.699  11.884  0.00  0.00    +0.000 A 
ATOM     18  C   UNL     1      34.402   7.229  10.673  0.00  0.00    +0.000 A 
ATOM     19  C   UNL     1      35.100   6.819   9.549  0.00  0.00    +0.000 A 
ATOM     20  C   UNL     1      36.081   5.865   9.746  0.00  0.00    +0.000 A 
ATOM     21  C   UNL     1      36.346   5.343  10.982  0.00  0.00    +0.000 A 
BRANCH  19  22
ATOM     22  C   UNL     1      34.841   7.332   8.206  0.00  0.00    +0.000 C 
ATOM     23  C   UNL     1      34.594   8.847   8.226  0.00  0.00    +0.000 C 
ATOM     24  C   UNL     1      33.574   6.698   7.666  0.00  0.00    +0.000 C 
ATOM     25  C   UNL     1      36.006   7.085   7.266  0.00  0.00    +0.000 C 
ENDBRANCH  19  22
ENDBRANCH  14  16
ENDBRANCH   1  13
BRANCH   1  26
ATOM     26  C   UNL     1      38.673   3.860  15.311  0.00  0.00    +0.000 C 
BRANCH  26  27
ATOM     27  C   UNL     1      39.083   4.706  16.455  0.00  0.00    +0.000 A 
ATOM     28  C   UNL     1      40.133   5.634  16.215  0.00  0.00    +0.000 A 
ATOM     29  C   UNL     1      40.623   6.431  17.222  0.00  0.00    +0.000 A 
ATOM     30  C   UNL     1      40.104   6.342  18.503  0.00  0.00    +0.000 A 
ATOM     31  C   UNL     1      39.101   5.452  18.736  0.00  0.00    +0.000 A 
ATOM     32  C   UNL     1      38.624   4.665  17.704  0.00  0.00    +0.000 A 
ENDBRANCH  26  27
ENDBRANCH   1  26
TORSDOF 8
ENDMDL
MODEL 5
REMARK VINA RESULT:      -7.9      3.591      9.616
REMARK  Name = 
REMARK  8 active torsions:
REMARK  status: ('A' for Active; 'I' for Inactive)
REMARK    1  A    between atoms: C_2  and  C_3
REMARK    2  A    between atoms: C_6  and  N_7
REMARK    3  A    between atoms: C_8  and  C_10
REMARK    4  A    between atoms: C_10  and  C_11
REMARK    5  A    between atoms: C_10  and  N_18
REMARK    6  A    between atoms: C_11  and  C_12
REMARK    7  A    between atoms: C_19  and  C_21
REMARK    8  A    between atoms: C_24  and  C_25
REMARK                            x       y       z     vdW  Elec       q    Type
REMARK                         _______ _______ _______ _____ _____    ______ ____
ROOT
ATOM      1  C   UNL     1      37.184   1.545  14.531  0.00  0.00    +0.000 C 
ENDROOT
BRANCH   1   3
ATOM      2  N   UNL     1      37.267   1.218  12.033  0.00  0.00    +0.000 NA
ATOM      3  C   UNL     1      37.907   1.777  13.136  0.00  0.00    +0.000 C 
ATOM      4  O   UNL     1      38.947   2.381  13.026  0.00  0.00    +0.000 OA
BRANCH   2   8
ATOM      5  C   UNL     1      38.513   0.966   7.970  0.00  0.00    +0.000 A 
ATOM      6  C   UNL     1      37.293   1.508   8.328  0.00  0.00    +0.000 A 
ATOM      7  C   UNL     1      36.867   1.635   9.640  0.00  0.00    +0.000 A 
ATOM      8  C   UNL     1      37.701   1.200  10.668  0.00  0.00    +0.000 A 
ATOM      9  C   UNL     1      38.912   0.668  10.274  0.00  0.00    +0.000 A 
ATOM     10  C   UNL     1      39.360   0.528   8.971  0.00  0.00    +0.000 A 
BRANCH   5  12
ATOM     11  C   UNL     1      39.388  -0.590   6.300  0.00  0.00    +0.000 C 
ATOM     12  C   UNL     1      38.954   0.828   6.565  0.00  0.00    +0.000 C 
ENDBRANCH   5  12
ENDBRANCH   2   8
ENDBRANCH   1   3
BRANCH   1  13
ATOM     13  N   UNL     1      38.150   2.400  15.434  0.00  0.00    +0.000 NA
ATOM     14  C   UNL     1      37.821   3.623  15.894  0.00  0.00    +0.000 C 
ATOM     15  O   UNL     1      36.634   4.053  15.562  0.00  0.00    +0.000 OA
BRANCH  14  16
ATOM     16  C   UNL     1      38.622   4.475  16.703  0.00  0.00    +0.000 A 
ATOM     17  C   UNL     1      39.640   5.180  16.083  0.00  0.00    +0.000 A 
ATOM     18  C   UNL     1      40.492   5.995  16.744  0.00  0.00    +0.000 A 
ATOM     19  C   UNL     1      40.376   6.164  18.115  0.00  0.00    +0.000 A 
ATOM     20  C   UNL     1      39.358   5.467  18.738  0.00  0.00    +0.000 A 
ATOM     21  C   UNL     1      38.511   4.646  18.045  0.00  0.00    +0.000 A 
BRANCH  19  22
ATOM     22  C   UNL     1      41.267   7.013  18.900  0.00  0.00    +0.000 C 
ATOM     23  C   UNL     1      40.724   8.444  19.007  0.00  0.00    +0.000 C 
ATOM     24  C   UNL     1      42.608   7.114  18.199  0.00  0.00    +0.000 C 
ATOM     25  C   UNL     1      41.443   6.499  20.318  0.00  0.00    +0.000 C 
ENDBRANCH  19  22
ENDBRANCH  14  16
ENDBRANCH   1  13
BRANCH   1  26
ATOM     26  C   UNL     1      38.017   0.101  14.854  0.00  0.00    +0.000 C 
BRANCH  26  27
ATOM     27  C   UNL     1      36.900  -0.721  15.372  0.00  0.00    +0.000 A 
ATOM     28  C   UNL     1      36.324  -0.307  16.604  0.00  0.00    +0.000 A 
ATOM     29  C   UNL     1      35.316  -1.029  17.198  0.00  0.00    +0.000 A 
ATOM     30  C   UNL     1      34.839  -2.187  16.605  0.00  0.00    +0.000 A 
ATOM     31  C   UNL     1      35.391  -2.586  15.427  0.00  0.00    +0.000 A 
ATOM     32  C   UNL     1      36.402  -1.839  14.850  0.00  0.00    +0.000 A 
ENDBRANCH  26  27
ENDBRANCH   1  26
TORSDOF 8
ENDMDL
MODEL 6
REMARK VINA RESULT:      -7.8      1.867      9.114
REMARK  Name = 
REMARK  8 active torsions:
REMARK  status: ('A' for Active; 'I' for Inactive)
REMARK    1  A    between atoms: C_2  and  C_3
REMARK    2  A    between atoms: C_6  and  N_7
REMARK    3  A    between atoms: C_8  and  C_10
REMARK    4  A    between atoms: C_10  and  C_11
REMARK    5  A    between atoms: C_10  and  N_18
REMARK    6  A    between atoms: C_11  and  C_12
REMARK    7  A    between atoms: C_19  and  C_21
REMARK    8  A    between atoms: C_24  and  C_25
REMARK                            x       y       z     vdW  Elec       q    Type
REMARK                         _______ _______ _______ _____ _____    ______ ____
ROOT
ATOM      1  C   UNL     1      36.087   2.977  16.389  0.00  0.00    +0.000 C 
ENDROOT
BRANCH   1   3
ATOM      2  N   UNL     1      35.963   4.713  14.564  0.00  0.00    +0.000 NA
ATOM      3  C   UNL     1      35.339   3.607  15.137  0.00  0.00    +0.000 C 
ATOM      4  O   UNL     1      34.294   3.178  14.710  0.00  0.00    +0.000 OA
BRANCH   2   8
ATOM      5  C   UNL     1      34.507   6.975  11.266  0.00  0.00    +0.000 A 
ATOM      6  C   UNL     1      33.943   7.072  12.524  0.00  0.00    +0.000 A 
ATOM      7  C   UNL     1      34.409   6.375  13.627  0.00  0.00    +0.000 A 
ATOM      8  C   UNL     1      35.506   5.528  13.480  0.00  0.00    +0.000 A 
ATOM      9  C   UNL     1      36.044   5.460  12.211  0.00  0.00    +0.000 A 
ATOM     10  C   UNL     1      35.596   6.143  11.093  0.00  0.00    +0.000 A 
BRANCH   5  12
ATOM     11  C   UNL     1      34.340   6.979   8.827  0.00  0.00    +0.000 C 
ATOM     12  C   UNL     1      33.995   7.717  10.093  0.00  0.00    +0.000 C 
ENDBRANCH   5  12
ENDBRANCH   2   8
ENDBRANCH   1   3
BRANCH   1  13
ATOM     13  N   UNL     1      37.323   3.951  16.430  0.00  0.00    +0.000 NA
ATOM     14  C   UNL     1      38.062   4.140  17.541  0.00  0.00    +0.000 C 
ATOM     15  O   UNL     1      37.702   3.445  18.586  0.00  0.00    +0.000 OA
BRANCH  14  16
ATOM     16  C   UNL     1      39.185   5.000  17.684  0.00  0.00    +0.000 A 
ATOM     17  C   UNL     1      39.877   5.351  16.537  0.00  0.00    +0.000 A 
ATOM     18  C   UNL     1      40.980   6.133  16.543  0.00  0.00    +0.000 A 
ATOM     19  C   UNL     1      41.479   6.631  17.735  0.00  0.00    +0.000 A 
ATOM     20  C   UNL     1      40.788   6.289  18.883  0.00  0.00    +0.000 A 
ATOM     21  C   UNL     1      39.675   5.493  18.850  0.00  0.00    +0.000 A 
BRANCH  19  22
ATOM     22  C   UNL     1      42.673   7.467  17.824  0.00  0.00    +0.000 C 
ATOM     23  C   UNL     1      43.774   6.971  16.877  0.00  0.00    +0.000 C 
ATOM     24  C   UNL     1      43.241   7.377  19.227  0.00  0.00    +0.000 C 
ATOM     25  C   UNL     1      42.387   8.911  17.453  0.00  0.00    +0.000 C 
ENDBRANCH  19  22
ENDBRANCH  14  16
ENDBRANCH   1  13
BRANCH   1  26
ATOM     26  C   UNL     1      36.916   1.823  15.460  0.00  0.00    +0.000 C 
BRANCH  26  27
ATOM     27  C   UNL     1      36.409   0.583  16.090  0.00  0.00    +0.000 A 
ATOM     28  C   UNL     1      37.311  -0.515  16.149  0.00  0.00    +0.000 A 
ATOM     29  C   UNL     1      36.924  -1.727  16.668  0.00  0.00    +0.000 A 
ATOM     30  C   UNL     1      35.636  -1.908  17.145  0.00  0.00    +0.000 A 
ATOM     31  C   UNL     1      34.771  -0.859  17.088  0.00  0.00    +0.000 A 
ATOM     32  C   UNL     1      35.187   0.351  16.563  0.00  0.00    +0.000 A 
ENDBRANCH  26  27
ENDBRANCH   1  26
TORSDOF 8
ENDMDL
MODEL 7
REMARK VINA RESULT:      -7.8      3.327      9.637
REMARK  Name = 
REMARK  8 active torsions:
REMARK  status: ('A' for Active; 'I' for Inactive)
REMARK    1  A    between atoms: C_2  and  C_3
REMARK    2  A    between atoms: C_6  and  N_7
REMARK    3  A    between atoms: C_8  and  C_10
REMARK    4  A    between atoms: C_10  and  C_11
REMARK    5  A    between atoms: C_10  and  N_18
REMARK    6  A    between atoms: C_11  and  C_12
REMARK    7  A    between atoms: C_19  and  C_21
REMARK    8  A    between atoms: C_24  and  C_25
REMARK                            x       y       z     vdW  Elec       q    Type
REMARK                         _______ _______ _______ _____ _____    ______ ____
ROOT
ATOM      1  C   UNL     1      37.496   0.739  14.575  0.00  0.00    +0.000 C 
ENDROOT
BRANCH   1   3
ATOM      2  N   UNL     1      38.355  -0.626  12.638  0.00  0.00    +0.000 NA
ATOM      3  C   UNL     1      38.591   0.477  13.455  0.00  0.00    +0.000 C 
ATOM      4  O   UNL     1      39.572   1.168  13.319  0.00  0.00    +0.000 OA
BRANCH   2   8
ATOM      5  C   UNL     1      40.974  -2.087   9.617  0.00  0.00    +0.000 A 
ATOM      6  C   UNL     1      40.587  -2.869  10.689  0.00  0.00    +0.000 A 
ATOM      7  C   UNL     1      39.713  -2.438  11.674  0.00  0.00    +0.000 A 
ATOM      8  C   UNL     1      39.184  -1.152  11.595  0.00  0.00    +0.000 A 
ATOM      9  C   UNL     1      39.590  -0.402  10.510  0.00  0.00    +0.000 A 
ATOM     10  C   UNL     1      40.463  -0.807   9.514  0.00  0.00    +0.000 A 
BRANCH   5  12
ATOM     11  C   UNL     1      41.150  -3.059   7.381  0.00  0.00    +0.000 C 
ATOM     12  C   UNL     1      41.916  -2.555   8.576  0.00  0.00    +0.000 C 
ENDBRANCH   5  12
ENDBRANCH   2   8
ENDBRANCH   1   3
BRANCH   1  13
ATOM     13  N   UNL     1      38.288   1.802  15.425  0.00  0.00    +0.000 NA
ATOM     14  C   UNL     1      37.772   3.003  15.749  0.00  0.00    +0.000 C 
ATOM     15  O   UNL     1      36.556   3.229  15.331  0.00  0.00    +0.000 OA
BRANCH  14  16
ATOM     16  C   UNL     1      38.406   4.031  16.499  0.00  0.00    +0.000 A 
ATOM     17  C   UNL     1      39.338   4.821  15.848  0.00  0.00    +0.000 A 
ATOM     18  C   UNL     1      40.034   5.807  16.456  0.00  0.00    +0.000 A 
ATOM     19  C   UNL     1      39.836   6.076  17.801  0.00  0.00    +0.000 A 
ATOM     20  C   UNL     1      38.903   5.294  18.456  0.00  0.00    +0.000 A 
ATOM     21  C   UNL     1      38.213   4.300  17.816  0.00  0.00    +0.000 A 
BRANCH  19  22
ATOM     22  C   UNL     1      40.561   7.112  18.532  0.00  0.00    +0.000 C 
ATOM     23  C   UNL     1      40.278   8.505  17.954  0.00  0.00    +0.000 C 
ATOM     24  C   UNL     1      42.052   6.880  18.380  0.00  0.00    +0.000 C 
ATOM     25  C   UNL     1      40.173   7.154  19.999  0.00  0.00    +0.000 C 
ENDBRANCH  19  22
ENDBRANCH  14  16
ENDBRANCH   1  13
BRANCH   1  26
ATOM     26  C   UNL     1      38.012  -0.554  15.547  0.00  0.00    +0.000 C 
BRANCH  26  27
ATOM     27  C   UNL     1      36.699  -1.115  15.937  0.00  0.00    +0.000 A 
ATOM     28  C   UNL     1      36.037  -0.484  17.025  0.00  0.00    +0.000 A 
ATOM     29  C   UNL     1      34.836  -0.958  17.499  0.00  0.00    +0.000 A 
ATOM     30  C   UNL     1      34.244  -2.070  16.925  0.00  0.00    +0.000 A 
ATOM     31  C   UNL     1      34.878  -2.677  15.884  0.00  0.00    +0.000 A 
ATOM     32  C   UNL     1      36.083  -2.178  15.425  0.00  0.00    +0.000 A 
ENDBRANCH  26  27
ENDBRANCH   1  26
TORSDOF 8
ENDMDL
MODEL 8
REMARK VINA RESULT:      -7.7      4.244      6.848
REMARK  Name = 
REMARK  8 active torsions:
REMARK  status: ('A' for Active; 'I' for Inactive)
REMARK    1  A    between atoms: C_2  and  C_3
REMARK    2  A    between atoms: C_6  and  N_7
REMARK    3  A    between atoms: C_8  and  C_10
REMARK    4  A    between atoms: C_10  and  C_11
REMARK    5  A    between atoms: C_10  and  N_18
REMARK    6  A    between atoms: C_11  and  C_12
REMARK    7  A    between atoms: C_19  and  C_21
REMARK    8  A    between atoms: C_24  and  C_25
REMARK                            x       y       z     vdW  Elec       q    Type
REMARK                         _______ _______ _______ _____ _____    ______ ____
ROOT
ATOM      1  C   UNL     1      37.309   2.009  14.027  0.00  0.00    +0.000 C 
ENDROOT
BRANCH   1   3
ATOM      2  N   UNL     1      38.529   3.389  15.748  0.00  0.00    +0.000 NA
ATOM      3  C   UNL     1      37.638   3.420  14.678  0.00  0.00    +0.000 C 
ATOM      4  O   UNL     1      37.147   4.453  14.293  0.00  0.00    +0.000 OA
BRANCH   2   8
ATOM      5  C   UNL     1      39.951   6.490  18.294  0.00  0.00    +0.000 A 
ATOM      6  C   UNL     1      40.363   6.378  16.978  0.00  0.00    +0.000 A 
ATOM      7  C   UNL     1      39.899   5.401  16.112  0.00  0.00    +0.000 A 
ATOM      8  C   UNL     1      38.964   4.475  16.573  0.00  0.00    +0.000 A 
ATOM      9  C   UNL     1      38.575   4.621  17.889  0.00  0.00    +0.000 A 
ATOM     10  C   UNL     1      39.024   5.585  18.775  0.00  0.00    +0.000 A 
BRANCH   5  12
ATOM     11  C   UNL     1      39.530   7.682  20.386  0.00  0.00    +0.000 C 
ATOM     12  C   UNL     1      40.461   7.532  19.212  0.00  0.00    +0.000 C 
ENDBRANCH   5  12
ENDBRANCH   2   8
ENDBRANCH   1   3
BRANCH   1  13
ATOM     13  N   UNL     1      36.842   2.514  12.611  0.00  0.00    +0.000 NA
ATOM     14  C   UNL     1      37.433   2.117  11.467  0.00  0.00    +0.000 C 
ATOM     15  O   UNL     1      38.412   1.264  11.602  0.00  0.00    +0.000 OA
BRANCH  14  16
ATOM     16  C   UNL     1      37.096   2.520  10.146  0.00  0.00    +0.000 A 
ATOM     17  C   UNL     1      37.002   1.536   9.177  0.00  0.00    +0.000 A 
ATOM     18  C   UNL     1      36.723   1.792   7.879  0.00  0.00    +0.000 A 
ATOM     19  C   UNL     1      36.513   3.094   7.453  0.00  0.00    +0.000 A 
ATOM     20  C   UNL     1      36.600   4.080   8.418  0.00  0.00    +0.000 A 
ATOM     21  C   UNL     1      36.886   3.793   9.724  0.00  0.00    +0.000 A 
BRANCH  19  22
ATOM     22  C   UNL     1      36.224   3.451   6.067  0.00  0.00    +0.000 C 
ATOM     23  C   UNL     1      35.781   2.227   5.255  0.00  0.00    +0.000 C 
ATOM     24  C   UNL     1      37.490   3.967   5.411  0.00  0.00    +0.000 C 
ATOM     25  C   UNL     1      35.110   4.478   5.963  0.00  0.00    +0.000 C 
ENDBRANCH  19  22
ENDBRANCH  14  16
ENDBRANCH   1  13
BRANCH   1  26
ATOM     26  C   UNL     1      35.723   1.968  14.633  0.00  0.00    +0.000 C 
BRANCH  26  27
ATOM     27  C   UNL     1      35.855   0.861  15.606  0.00  0.00    +0.000 A 
ATOM     28  C   UNL     1      35.698   1.198  16.979  0.00  0.00    +0.000 A 
ATOM     29  C   UNL     1      35.851   0.254  17.966  0.00  0.00    +0.000 A 
ATOM     30  C   UNL     1      36.168  -1.055  17.643  0.00  0.00    +0.000 A 
ATOM     31  C   UNL     1      36.321  -1.379  16.330  0.00  0.00    +0.000 A 
ATOM     32  C   UNL     1      36.158  -0.411  15.357  0.00  0.00    +0.000 A 
ENDBRANCH  26  27
ENDBRANCH   1  26
TORSDOF 8
ENDMDL
MODEL 9
REMARK VINA RESULT:      -7.7      2.261      8.630
REMARK  Name = 
REMARK  8 active torsions:
REMARK  status: ('A' for Active; 'I' for Inactive)
REMARK    1  A    between atoms: C_2  and  C_3
REMARK    2  A    between atoms: C_6  and  N_7
REMARK    3  A    between atoms: C_8  and  C_10
REMARK    4  A    between atoms: C_10  and  C_11
REMARK    5  A    between atoms: C_10  and  N_18
REMARK    6  A    between atoms: C_11  and  C_12
REMARK    7  A    between atoms: C_19  and  C_21
REMARK    8  A    between atoms: C_24  and  C_25
REMARK                            x       y       z     vdW  Elec       q    Type
REMARK                         _______ _______ _______ _____ _____    ______ ____
ROOT
ATOM      1  C   UNL     1      36.633   4.321  14.838  0.00  0.00    +0.000 C 
ENDROOT
BRANCH   1   3
ATOM      2  N   UNL     1      36.278   6.810  14.650  0.00  0.00    +0.000 NA
ATOM      3  C   UNL     1      35.966   5.565  14.109  0.00  0.00    +0.000 C 
ATOM      4  O   UNL     1      35.226   5.453  13.161  0.00  0.00    +0.000 OA
BRANCH   2   8
ATOM      5  C   UNL     1      34.903  10.714  13.654  0.00  0.00    +0.000 A 
ATOM      6  C   UNL     1      35.972  10.127  13.002  0.00  0.00    +0.000 A 
ATOM      7  C   UNL     1      36.427   8.848  13.278  0.00  0.00    +0.000 A 
ATOM      8  C   UNL     1      35.784   8.096  14.260  0.00  0.00    +0.000 A 
ATOM      9  C   UNL     1      34.721   8.713  14.886  0.00  0.00    +0.000 A 
ATOM     10  C   UNL     1      34.247   9.989  14.632  0.00  0.00    +0.000 A 
BRANCH   5  12
ATOM     11  C   UNL     1      33.312  12.455  14.294  0.00  0.00    +0.000 C 
ATOM     12  C   UNL     1      34.431  12.084  13.358  0.00  0.00    +0.000 C 
ENDBRANCH   5  12
ENDBRANCH   2   8
ENDBRANCH   1   3
BRANCH   1  13
ATOM     13  N   UNL     1      37.833   5.076  15.524  0.00  0.00    +0.000 NA
ATOM     14  C   UNL     1      38.313   4.726  16.734  0.00  0.00    +0.000 C 
ATOM     15  O   UNL     1      37.734   3.701  17.299  0.00  0.00    +0.000 OA
BRANCH  14  16
ATOM     16  C   UNL     1      39.379   5.346  17.441  0.00  0.00    +0.000 A 
ATOM     17  C   UNL     1      39.228   5.523  18.806  0.00  0.00    +0.000 A 
ATOM     18  C   UNL     1      40.152   6.129  19.585  0.00  0.00    +0.000 A 
ATOM     19  C   UNL     1      41.326   6.613  19.031  0.00  0.00    +0.000 A 
ATOM     20  C   UNL     1      41.485   6.433  17.669  0.00  0.00    +0.000 A 
ATOM     21  C   UNL     1      40.532   5.818  16.903  0.00  0.00    +0.000 A 
BRANCH  19  22
ATOM     22  C   UNL     1      42.362   7.293  19.803  0.00  0.00    +0.000 C 
ATOM     23  C   UNL     1      41.894   8.679  20.267  0.00  0.00    +0.000 C 
ATOM     24  C   UNL     1      43.573   7.521  18.921  0.00  0.00    +0.000 C 
ATOM     25  C   UNL     1      42.747   6.516  21.050  0.00  0.00    +0.000 C 
ENDBRANCH  19  22
ENDBRANCH  14  16
ENDBRANCH   1  13
BRANCH   1  26
ATOM     26  C   UNL     1      37.567   3.884  13.488  0.00  0.00    +0.000 C 
BRANCH  26  27
ATOM     27  C   UNL     1      37.759   2.444  13.773  0.00  0.00    +0.000 A 
ATOM     28  C   UNL     1      36.698   1.575  13.401  0.00  0.00    +0.000 A 
ATOM     29  C   UNL     1      36.754   0.227  13.667  0.00  0.00    +0.000 A 
ATOM     30  C   UNL     1      37.853  -0.316  14.312  0.00  0.00    +0.000 A 
ATOM     31  C   UNL     1      38.869   0.515  14.671  0.00  0.00    +0.000 A 
ATOM     32  C   UNL     1      38.788   1.866  14.389  0.00  0.00    +0.000 A 
ENDBRANCH  26  27
ENDBRANCH   1  26
TORSDOF 8
ENDMDL
MODEL 10
REMARK VINA RESULT:      -7.6      2.209      9.157
REMARK  Name = 
REMARK  8 active torsions:
REMARK  status: ('A' for Active; 'I' for Inactive)
REMARK    1  A    between atoms: C_2  and  C_3
REMARK    2  A    between atoms: C_6  and  N_7
REMARK    3  A    between atoms: C_8  and  C_10
REMARK    4  A    between atoms: C_10  and  C_11
REMARK    5  A    between atoms: C_10  and  N_18
REMARK    6  A    between atoms: C_11  and  C_12
REMARK    7  A    between atoms: C_19  and  C_21
REMARK    8  A    between atoms: C_24  and  C_25
REMARK                            x       y       z     vdW  Elec       q    Type
REMARK                         _______ _______ _______ _____ _____    ______ ____
ROOT
ATOM      1  C   UNL     1      37.353   2.080  15.475  0.00  0.00    +0.000 C 
ENDROOT
BRANCH   1   3
ATOM      2  N   UNL     1      36.693   4.072  14.077  0.00  0.00    +0.000 NA
ATOM      3  C   UNL     1      36.299   2.821  14.546  0.00  0.00    +0.000 C 
ATOM      4  O   UNL     1      35.221   2.352  14.270  0.00  0.00    +0.000 OA
BRANCH   2   8
ATOM      5  C   UNL     1      34.574   6.982  11.807  0.00  0.00    +0.000 A 
ATOM      6  C   UNL     1      35.586   6.220  11.254  0.00  0.00    +0.000 A 
ATOM      7  C   UNL     1      36.276   5.243  11.953  0.00  0.00    +0.000 A 
ATOM      8  C   UNL     1      35.945   5.000  13.285  0.00  0.00    +0.000 A 
ATOM      9  C   UNL     1      34.928   5.777  13.800  0.00  0.00    +0.000 A 
ATOM     10  C   UNL     1      34.224   6.760  13.125  0.00  0.00    +0.000 A 
BRANCH   5  12
ATOM     11  C   UNL     1      34.782   9.164  10.725  0.00  0.00    +0.000 C 
ATOM     12  C   UNL     1      33.849   8.029  11.053  0.00  0.00    +0.000 C 
ENDBRANCH   5  12
ENDBRANCH   2   8
ENDBRANCH   1   3
BRANCH   1  13
ATOM     13  N   UNL     1      38.271   3.315  15.809  0.00  0.00    +0.000 NA
ATOM     14  C   UNL     1      38.303   3.886  17.030  0.00  0.00    +0.000 C 
ATOM     15  O   UNL     1      37.536   3.337  17.933  0.00  0.00    +0.000 OA
BRANCH  14  16
ATOM     16  C   UNL     1      39.084   5.005  17.429  0.00  0.00    +0.000 A 
ATOM     17  C   UNL     1      39.067   5.357  18.768  0.00  0.00    +0.000 A 
ATOM     18  C   UNL     1      39.738   6.419  19.268  0.00  0.00    +0.000 A 
ATOM     19  C   UNL     1      40.494   7.225  18.432  0.00  0.00    +0.000 A 
ATOM     20  C   UNL     1      40.519   6.875  17.095  0.00  0.00    +0.000 A 
ATOM     21  C   UNL     1      39.829   5.796  16.615  0.00  0.00    +0.000 A 
BRANCH  19  22
ATOM     22  C   UNL     1      41.232   8.397  18.894  0.00  0.00    +0.000 C 
ATOM     23  C   UNL     1      40.283   9.543  19.270  0.00  0.00    +0.000 C 
ATOM     24  C   UNL     1      42.103   8.915  17.766  0.00  0.00    +0.000 C 
ATOM     25  C   UNL     1      42.071   8.096  20.123  0.00  0.00    +0.000 C 
ENDBRANCH  19  22
ENDBRANCH  14  16
ENDBRANCH   1  13
BRANCH   1  26
ATOM     26  C   UNL     1      38.331   1.594  14.175  0.00  0.00    +0.000 C 
BRANCH  26  27
ATOM     27  C   UNL     1      38.786   0.279  14.682  0.00  0.00    +0.000 A 
ATOM     28  C   UNL     1      40.140  -0.068  14.421  0.00  0.00    +0.000 A 
ATOM     29  C   UNL     1      40.649  -1.286  14.804  0.00  0.00    +0.000 A 
ATOM     30  C   UNL     1      39.846  -2.210  15.453  0.00  0.00    +0.000 A 
ATOM     31  C   UNL     1      38.549  -1.880  15.701  0.00  0.00    +0.000 A 
ATOM     32  C   UNL     1      38.064  -0.646  15.308  0.00  0.00    +0.000 A 
ENDBRANCH  26  27
ENDBRANCH   1  26
TORSDOF 8
ENDMDL
