MODEL 1
REMARK VINA RESULT:      -8.1      0.000      0.000
REMARK  Name = 
REMARK  2 active torsions:
REMARK  status: ('A' for Active; 'I' for Inactive)
REMARK    1  A    between atoms: O_2  and  C_3
REMARK    2  A    between atoms: C_6  and  C_7
REMARK                            x       y       z     vdW  Elec       q    Type
REMARK                         _______ _______ _______ _____ _____    ______ ____
ROOT
ATOM      1  C   UNL     1      16.351  10.826  36.599  0.00  0.00    +0.000 A 
ATOM      2  N   UNL     1      16.917  10.294  35.514  0.00  0.00    +0.000 NA
ATOM      3  C   UNL     1      16.654  10.638  34.250  0.00  0.00    +0.000 A 
ATOM      4  N   UNL     1      17.332   9.989  33.167  0.00  0.00    +0.000 NA
ATOM      5  C   UNL     1      15.700  11.646  33.992  0.00  0.00    +0.000 A 
ATOM      6  C   UNL     1      15.306  12.123  32.794  0.00  0.00    +0.000 A 
ATOM      7  C   UNL     1      14.358  13.113  32.796  0.00  0.00    +0.000 A 
ATOM      8  S   UNL     1      14.046  13.349  34.449  0.00  0.00    +0.000 S 
ATOM      9  C   UNL     1      15.124  12.188  35.104  0.00  0.00    +0.000 A 
ATOM     10  N   UNL     1      15.443  11.786  36.378  0.00  0.00    +0.000 NA
ATOM     11  C   UNL     1      13.895  13.668  31.475  0.00  0.00    +0.000 C 
ATOM     12  C   UNL     1      15.038  13.948  30.557  0.00  0.00    +0.000 C 
ATOM     13  C   UNL     1      16.235  13.070  30.787  0.00  0.00    +0.000 C 
ATOM     14  C   UNL     1      15.737  11.751  31.374  0.00  0.00    +0.000 C 
ENDROOT
BRANCH   1  18
ATOM     15  C   UNL     1      17.378   9.520  40.520  0.00  0.00    +0.000 A 
ATOM     16  C   UNL     1      16.065   9.892  40.226  0.00  0.00    +0.000 A 
ATOM     17  C   UNL     1      15.769  10.311  38.944  0.00  0.00    +0.000 A 
ATOM     18  C   UNL     1      16.711  10.377  37.940  0.00  0.00    +0.000 A 
ATOM     19  C   UNL     1      17.994  10.001  38.270  0.00  0.00    +0.000 A 
ATOM     20  C   UNL     1      18.341   9.576  39.536  0.00  0.00    +0.000 A 
BRANCH  15  22
ATOM     21  C   UNL     1      16.712   9.272  42.810  0.00  0.00    +0.000 C 
ATOM     22  O   UNL     1      17.680   9.099  41.806  0.00  0.00    +0.000 OA
ENDBRANCH  15  22
ENDBRANCH   1  18
TORSDOF 2
ENDMDL
MODEL 2
REMARK VINA RESULT:      -7.7      3.229      8.237
REMARK  Name = 
REMARK  2 active torsions:
REMARK  status: ('A' for Active; 'I' for Inactive)
REMARK    1  A    between atoms: O_2  and  C_3
REMARK    2  A    between atoms: C_6  and  C_7
REMARK                            x       y       z     vdW  Elec       q    Type
REMARK                         _______ _______ _______ _____ _____    ______ ____
ROOT
ATOM      1  C   UNL     1      15.198  11.612  36.523  0.00  0.00    +0.000 A 
ATOM      2  N   UNL     1      14.319  11.309  37.480  0.00  0.00    +0.000 NA
ATOM      3  C   UNL     1      14.602  10.696  38.633  0.00  0.00    +0.000 A 
ATOM      4  N   UNL     1      13.564  10.425  39.584  0.00  0.00    +0.000 NA
ATOM      5  C   UNL     1      15.934  10.317  38.905  0.00  0.00    +0.000 A 
ATOM      6  C   UNL     1      16.409   9.695  40.004  0.00  0.00    +0.000 A 
ATOM      7  C   UNL     1      17.753   9.430  40.041  0.00  0.00    +0.000 A 
ATOM      8  S   UNL     1      18.313  10.046  38.561  0.00  0.00    +0.000 S 
ATOM      9  C   UNL     1      16.831  10.629  37.925  0.00  0.00    +0.000 A 
ATOM     10  N   UNL     1      16.470  11.262  36.760  0.00  0.00    +0.000 NA
ATOM     11  C   UNL     1      18.315   8.736  41.254  0.00  0.00    +0.000 C 
ATOM     12  C   UNL     1      17.795   9.324  42.523  0.00  0.00    +0.000 C 
ATOM     13  C   UNL     1      16.428   9.936  42.397  0.00  0.00    +0.000 C 
ATOM     14  C   UNL     1      15.698   9.212  41.269  0.00  0.00    +0.000 C 
ENDROOT
BRANCH   1  18
ATOM     15  C   UNL     1      13.999  13.559  32.931  0.00  0.00    +0.000 A 
ATOM     16  C   UNL     1      14.792  12.412  32.876  0.00  0.00    +0.000 A 
ATOM     17  C   UNL     1      15.163  11.808  34.060  0.00  0.00    +0.000 A 
ATOM     18  C   UNL     1      14.783  12.285  35.297  0.00  0.00    +0.000 A 
ATOM     19  C   UNL     1      14.000  13.418  35.309  0.00  0.00    +0.000 A 
ATOM     20  C   UNL     1      13.605  14.059  34.153  0.00  0.00    +0.000 A 
BRANCH  15  22
ATOM     21  C   UNL     1      14.220  13.727  30.549  0.00  0.00    +0.000 C 
ATOM     22  O   UNL     1      13.625  14.170  31.743  0.00  0.00    +0.000 OA
ENDBRANCH  15  22
ENDBRANCH   1  18
TORSDOF 2
ENDMDL
MODEL 3
REMARK VINA RESULT:      -7.3      1.477      2.247
REMARK  Name = 
REMARK  2 active torsions:
REMARK  status: ('A' for Active; 'I' for Inactive)
REMARK    1  A    between atoms: O_2  and  C_3
REMARK    2  A    between atoms: C_6  and  C_7
REMARK                            x       y       z     vdW  Elec       q    Type
REMARK                         _______ _______ _______ _____ _____    ______ ____
ROOT
ATOM      1  C   UNL     1      16.344  10.700  37.301  0.00  0.00    +0.000 A 
ATOM      2  N   UNL     1      15.376  11.588  37.066  0.00  0.00    +0.000 NA
ATOM      3  C   UNL     1      15.030  12.065  35.866  0.00  0.00    +0.000 A 
ATOM      4  N   UNL     1      13.968  13.021  35.745  0.00  0.00    +0.000 NA
ATOM      5  C   UNL     1      15.720  11.617  34.720  0.00  0.00    +0.000 A 
ATOM      6  C   UNL     1      15.514  11.981  33.437  0.00  0.00    +0.000 A 
ATOM      7  C   UNL     1      16.316  11.405  32.487  0.00  0.00    +0.000 A 
ATOM      8  S   UNL     1      17.325  10.384  33.396  0.00  0.00    +0.000 S 
ATOM      9  C   UNL     1      16.708  10.708  34.963  0.00  0.00    +0.000 A 
ATOM     10  N   UNL     1      17.012  10.260  36.225  0.00  0.00    +0.000 NA
ATOM     11  C   UNL     1      16.113  11.789  31.045  0.00  0.00    +0.000 C 
ATOM     12  C   UNL     1      14.669  11.798  30.670  0.00  0.00    +0.000 C 
ATOM     13  C   UNL     1      13.743  12.100  31.814  0.00  0.00    +0.000 C 
ATOM     14  C   UNL     1      14.510  12.956  32.818  0.00  0.00    +0.000 C 
ENDROOT
BRANCH   1  18
ATOM     15  C   UNL     1      17.193   9.368  41.255  0.00  0.00    +0.000 A 
ATOM     16  C   UNL     1      15.874   9.601  40.861  0.00  0.00    +0.000 A 
ATOM     17  C   UNL     1      15.636  10.033  39.572  0.00  0.00    +0.000 A 
ATOM     18  C   UNL     1      16.643  10.243  38.654  0.00  0.00    +0.000 A 
ATOM     19  C   UNL     1      17.929  10.001  39.080  0.00  0.00    +0.000 A 
ATOM     20  C   UNL     1      18.219   9.570  40.359  0.00  0.00    +0.000 A 
BRANCH  15  22
ATOM     21  C   UNL     1      16.335   8.647  43.375  0.00  0.00    +0.000 C 
ATOM     22  O   UNL     1      17.436   8.934  42.549  0.00  0.00    +0.000 OA
ENDBRANCH  15  22
ENDBRANCH   1  18
TORSDOF 2
ENDMDL
MODEL 4
REMARK VINA RESULT:      -7.3     19.685     21.078
REMARK  Name = 
REMARK  2 active torsions:
REMARK  status: ('A' for Active; 'I' for Inactive)
REMARK    1  A    between atoms: O_2  and  C_3
REMARK    2  A    between atoms: C_6  and  C_7
REMARK                            x       y       z     vdW  Elec       q    Type
REMARK                         _______ _______ _______ _____ _____    ______ ____
ROOT
ATOM      1  C   UNL     1      33.387   0.165  34.789  0.00  0.00    +0.000 A 
ATOM      2  N   UNL     1      33.373   1.051  33.790  0.00  0.00    +0.000 NA
ATOM      3  C   UNL     1      33.606   2.362  33.909  0.00  0.00    +0.000 A 
ATOM      4  N   UNL     1      33.561   3.212  32.755  0.00  0.00    +0.000 NA
ATOM      5  C   UNL     1      33.896   2.900  35.180  0.00  0.00    +0.000 A 
ATOM      6  C   UNL     1      34.156   4.186  35.493  0.00  0.00    +0.000 A 
ATOM      7  C   UNL     1      34.413   4.470  36.809  0.00  0.00    +0.000 A 
ATOM      8  S   UNL     1      34.286   2.955  37.566  0.00  0.00    +0.000 S 
ATOM      9  C   UNL     1      33.911   1.991  36.199  0.00  0.00    +0.000 A 
ATOM     10  N   UNL     1      33.661   0.654  36.006  0.00  0.00    +0.000 NA
ATOM     11  C   UNL     1      34.707   5.897  37.193  0.00  0.00    +0.000 C 
ATOM     12  C   UNL     1      35.671   6.538  36.253  0.00  0.00    +0.000 C 
ATOM     13  C   UNL     1      35.629   5.979  34.859  0.00  0.00    +0.000 C 
ATOM     14  C   UNL     1      34.222   5.439  34.618  0.00  0.00    +0.000 C 
ENDROOT
BRANCH   1  18
ATOM     15  C   UNL     1      32.619  -3.963  34.078  0.00  0.00    +0.000 A 
ATOM     16  C   UNL     1      33.521  -3.267  33.271  0.00  0.00    +0.000 A 
ATOM     17  C   UNL     1      33.745  -1.930  33.530  0.00  0.00    +0.000 A 
ATOM     18  C   UNL     1      33.118  -1.249  34.552  0.00  0.00    +0.000 A 
ATOM     19  C   UNL     1      32.236  -1.970  35.326  0.00  0.00    +0.000 A 
ATOM     20  C   UNL     1      31.978  -3.308  35.106  0.00  0.00    +0.000 A 
BRANCH  15  22
ATOM     21  C   UNL     1      32.604  -5.781  32.515  0.00  0.00    +0.000 C 
ATOM     22  O   UNL     1      32.391  -5.306  33.821  0.00  0.00    +0.000 OA
ENDBRANCH  15  22
ENDBRANCH   1  18
TORSDOF 2
ENDMDL
MODEL 5
REMARK VINA RESULT:      -7.0      3.168      7.922
REMARK  Name = 
REMARK  2 active torsions:
REMARK  status: ('A' for Active; 'I' for Inactive)
REMARK    1  A    between atoms: O_2  and  C_3
REMARK    2  A    between atoms: C_6  and  C_7
REMARK                            x       y       z     vdW  Elec       q    Type
REMARK                         _______ _______ _______ _____ _____    ______ ____
ROOT
ATOM      1  C   UNL     1      16.068  11.283  36.379  0.00  0.00    +0.000 A 
ATOM      2  N   UNL     1      17.313  10.827  36.232  0.00  0.00    +0.000 NA
ATOM      3  C   UNL     1      18.015  10.164  37.156  0.00  0.00    +0.000 A 
ATOM      4  N   UNL     1      19.350   9.725  36.876  0.00  0.00    +0.000 NA
ATOM      5  C   UNL     1      17.428   9.902  38.413  0.00  0.00    +0.000 A 
ATOM      6  C   UNL     1      17.975   9.253  39.461  0.00  0.00    +0.000 A 
ATOM      7  C   UNL     1      17.203   9.119  40.586  0.00  0.00    +0.000 A 
ATOM      8  S   UNL     1      15.753   9.891  40.157  0.00  0.00    +0.000 S 
ATOM      9  C   UNL     1      16.154  10.369  38.560  0.00  0.00    +0.000 A 
ATOM     10  N   UNL     1      15.490  11.044  37.565  0.00  0.00    +0.000 NA
ATOM     11  C   UNL     1      17.785   8.400  41.775  0.00  0.00    +0.000 C 
ATOM     12  C   UNL     1      18.475   7.138  41.380  0.00  0.00    +0.000 C 
ATOM     13  C   UNL     1      19.037   7.160  39.986  0.00  0.00    +0.000 C 
ATOM     14  C   UNL     1      19.353   8.612  39.637  0.00  0.00    +0.000 C 
ENDROOT
BRANCH   1  18
ATOM     15  C   UNL     1      14.097  13.351  33.221  0.00  0.00    +0.000 A 
ATOM     16  C   UNL     1      14.937  12.272  32.937  0.00  0.00    +0.000 A 
ATOM     17  C   UNL     1      15.559  11.626  33.986  0.00  0.00    +0.000 A 
ATOM     18  C   UNL     1      15.389  11.997  35.303  0.00  0.00    +0.000 A 
ATOM     19  C   UNL     1      14.552  13.064  35.541  0.00  0.00    +0.000 A 
ATOM     20  C   UNL     1      13.908  13.744  34.528  0.00  0.00    +0.000 A 
BRANCH  15  22
ATOM     21  C   UNL     1      13.844  13.668  30.858  0.00  0.00    +0.000 C 
ATOM     22  O   UNL     1      13.469  14.003  32.171  0.00  0.00    +0.000 OA
ENDBRANCH  15  22
ENDBRANCH   1  18
TORSDOF 2
ENDMDL
MODEL 6
REMARK VINA RESULT:      -6.7     19.338     20.372
REMARK  Name = 
REMARK  2 active torsions:
REMARK  status: ('A' for Active; 'I' for Inactive)
REMARK    1  A    between atoms: O_2  and  C_3
REMARK    2  A    between atoms: C_6  and  C_7
REMARK                            x       y       z     vdW  Elec       q    Type
REMARK                         _______ _______ _______ _____ _____    ______ ____
ROOT
ATOM      1  C   UNL     1      30.595  22.503  27.677  0.00  0.00    +0.000 A 
ATOM      2  N   UNL     1      31.296  22.760  26.571  0.00  0.00    +0.000 NA
ATOM      3  C   UNL     1      30.781  23.038  25.369  0.00  0.00    +0.000 A 
ATOM      4  N   UNL     1      31.644  23.296  24.254  0.00  0.00    +0.000 NA
ATOM      5  C   UNL     1      29.380  23.075  25.210  0.00  0.00    +0.000 A 
ATOM      6  C   UNL     1      28.683  23.336  24.085  0.00  0.00    +0.000 A 
ATOM      7  C   UNL     1      27.316  23.316  24.177  0.00  0.00    +0.000 A 
ATOM      8  S   UNL     1      27.041  22.938  25.810  0.00  0.00    +0.000 S 
ATOM      9  C   UNL     1      28.666  22.813  26.343  0.00  0.00    +0.000 A 
ATOM     10  N   UNL     1      29.261  22.534  27.549  0.00  0.00    +0.000 NA
ATOM     11  C   UNL     1      26.507  23.603  22.939  0.00  0.00    +0.000 C 
ATOM     12  C   UNL     1      27.030  24.785  22.194  0.00  0.00    +0.000 C 
ATOM     13  C   UNL     1      28.504  25.016  22.372  0.00  0.00    +0.000 C 
ATOM     14  C   UNL     1      29.152  23.665  22.666  0.00  0.00    +0.000 C 
ENDROOT
BRANCH   1  18
ATOM     15  C   UNL     1      32.547  21.637  31.362  0.00  0.00    +0.000 A 
ATOM     16  C   UNL     1      33.179  21.356  30.149  0.00  0.00    +0.000 A 
ATOM     17  C   UNL     1      32.516  21.649  28.975  0.00  0.00    +0.000 A 
ATOM     18  C   UNL     1      31.257  22.209  28.944  0.00  0.00    +0.000 A 
ATOM     19  C   UNL     1      30.667  22.473  30.160  0.00  0.00    +0.000 A 
ATOM     20  C   UNL     1      31.288  22.197  31.361  0.00  0.00    +0.000 A 
BRANCH  15  22
ATOM     21  C   UNL     1      34.516  20.832  32.468  0.00  0.00    +0.000 C 
ATOM     22  O   UNL     1      33.209  21.344  32.544  0.00  0.00    +0.000 OA
ENDBRANCH  15  22
ENDBRANCH   1  18
TORSDOF 2
ENDMDL
MODEL 7
REMARK VINA RESULT:      -6.4      3.584      8.383
REMARK  Name = 
REMARK  2 active torsions:
REMARK  status: ('A' for Active; 'I' for Inactive)
REMARK    1  A    between atoms: O_2  and  C_3
REMARK    2  A    between atoms: C_6  and  C_7
REMARK                            x       y       z     vdW  Elec       q    Type
REMARK                         _______ _______ _______ _____ _____    ______ ____
ROOT
ATOM      1  C   UNL     1      17.363  10.596  36.778  0.00  0.00    +0.000 A 
ATOM      2  N   UNL     1      16.713  10.319  37.910  0.00  0.00    +0.000 NA
ATOM      3  C   UNL     1      17.278   9.941  39.060  0.00  0.00    +0.000 A 
ATOM      4  N   UNL     1      16.466   9.670  40.211  0.00  0.00    +0.000 NA
ATOM      5  C   UNL     1      18.681   9.810  39.131  0.00  0.00    +0.000 A 
ATOM      6  C   UNL     1      19.424   9.444  40.196  0.00  0.00    +0.000 A 
ATOM      7  C   UNL     1      20.782   9.390  40.022  0.00  0.00    +0.000 A 
ATOM      8  S   UNL     1      20.985   9.845  38.398  0.00  0.00    +0.000 S 
ATOM      9  C   UNL     1      19.343  10.096  37.973  0.00  0.00    +0.000 A 
ATOM     10  N   UNL     1      18.698  10.480  36.822  0.00  0.00    +0.000 NA
ATOM     11  C   UNL     1      21.641   8.983  41.190  0.00  0.00    +0.000 C 
ATOM     12  C   UNL     1      21.236   9.678  42.447  0.00  0.00    +0.000 C 
ATOM     13  C   UNL     1      19.781  10.054  42.495  0.00  0.00    +0.000 C 
ATOM     14  C   UNL     1      19.018   9.062  41.620  0.00  0.00    +0.000 C 
ENDROOT
BRANCH   1  18
ATOM     15  C   UNL     1      15.292  11.764  33.245  0.00  0.00    +0.000 A 
ATOM     16  C   UNL     1      16.334  10.837  33.174  0.00  0.00    +0.000 A 
ATOM     17  C   UNL     1      16.983  10.482  34.339  0.00  0.00    +0.000 A 
ATOM     18  C   UNL     1      16.649  11.002  35.572  0.00  0.00    +0.000 A 
ATOM     19  C   UNL     1      15.616  11.912  35.600  0.00  0.00    +0.000 A 
ATOM     20  C   UNL     1      14.937  12.300  34.464  0.00  0.00    +0.000 A 
BRANCH  15  22
ATOM     21  C   UNL     1      14.799  11.308  30.944  0.00  0.00    +0.000 C 
ATOM     22  O   UNL     1      14.638  12.124  32.077  0.00  0.00    +0.000 OA
ENDBRANCH  15  22
ENDBRANCH   1  18
TORSDOF 2
ENDMDL
MODEL 8
REMARK VINA RESULT:      -6.2      3.481      8.566
REMARK  Name = 
REMARK  2 active torsions:
REMARK  status: ('A' for Active; 'I' for Inactive)
REMARK    1  A    between atoms: O_2  and  C_3
REMARK    2  A    between atoms: C_6  and  C_7
REMARK                            x       y       z     vdW  Elec       q    Type
REMARK                         _______ _______ _______ _____ _____    ______ ____
ROOT
ATOM      1  C   UNL     1      17.664  10.031  37.715  0.00  0.00    +0.000 A 
ATOM      2  N   UNL     1      18.914   9.707  38.052  0.00  0.00    +0.000 NA
ATOM      3  C   UNL     1      19.323   9.347  39.273  0.00  0.00    +0.000 A 
ATOM      4  N   UNL     1      20.700   9.023  39.508  0.00  0.00    +0.000 NA
ATOM      5  C   UNL     1      18.387   9.291  40.327  0.00  0.00    +0.000 A 
ATOM      6  C   UNL     1      18.611   8.951  41.613  0.00  0.00    +0.000 A 
ATOM      7  C   UNL     1      17.534   8.968  42.461  0.00  0.00    +0.000 A 
ATOM      8  S   UNL     1      16.254   9.451  41.454  0.00  0.00    +0.000 S 
ATOM      9  C   UNL     1      17.109   9.621  39.978  0.00  0.00    +0.000 A 
ATOM     10  N   UNL     1      16.757   9.983  38.701  0.00  0.00    +0.000 NA
ATOM     11  C   UNL     1      17.749   8.595  43.904  0.00  0.00    +0.000 C 
ATOM     12  C   UNL     1      18.589   7.370  44.043  0.00  0.00    +0.000 C 
ATOM     13  C   UNL     1      19.557   7.162  42.913  0.00  0.00    +0.000 C 
ATOM     14  C   UNL     1      19.894   8.534  42.333  0.00  0.00    +0.000 C 
ENDROOT
BRANCH   1  18
ATOM     15  C   UNL     1      16.647  11.158  33.737  0.00  0.00    +0.000 A 
ATOM     16  C   UNL     1      16.030  11.782  34.822  0.00  0.00    +0.000 A 
ATOM     17  C   UNL     1      16.384  11.391  36.098  0.00  0.00    +0.000 A 
ATOM     18  C   UNL     1      17.321  10.412  36.349  0.00  0.00    +0.000 A 
ATOM     19  C   UNL     1      17.908   9.821  35.252  0.00  0.00    +0.000 A 
ATOM     20  C   UNL     1      17.588  10.176  33.958  0.00  0.00    +0.000 A 
BRANCH  15  22
ATOM     21  C   UNL     1      14.966  11.943  32.218  0.00  0.00    +0.000 C 
ATOM     22  O   UNL     1      16.294  11.548  32.453  0.00  0.00    +0.000 OA
ENDBRANCH  15  22
ENDBRANCH   1  18
TORSDOF 2
ENDMDL
MODEL 9
REMARK VINA RESULT:      -6.1     18.743     20.234
REMARK  Name = 
REMARK  2 active torsions:
REMARK  status: ('A' for Active; 'I' for Inactive)
REMARK    1  A    between atoms: O_2  and  C_3
REMARK    2  A    between atoms: C_6  and  C_7
REMARK                            x       y       z     vdW  Elec       q    Type
REMARK                         _______ _______ _______ _____ _____    ______ ____
ROOT
ATOM      1  C   UNL     1      24.525  25.320  26.227  0.00  0.00    +0.000 A 
ATOM      2  N   UNL     1      24.913  24.660  27.320  0.00  0.00    +0.000 NA
ATOM      3  C   UNL     1      26.026  23.928  27.434  0.00  0.00    +0.000 A 
ATOM      4  N   UNL     1      26.333  23.263  28.666  0.00  0.00    +0.000 NA
ATOM      5  C   UNL     1      26.895  23.816  26.328  0.00  0.00    +0.000 A 
ATOM      6  C   UNL     1      28.054  23.129  26.254  0.00  0.00    +0.000 A 
ATOM      7  C   UNL     1      28.730  23.170  25.063  0.00  0.00    +0.000 A 
ATOM      8  S   UNL     1      27.746  24.154  24.089  0.00  0.00    +0.000 S 
ATOM      9  C   UNL     1      26.496  24.494  25.213  0.00  0.00    +0.000 A 
ATOM     10  N   UNL     1      25.336  25.229  25.165  0.00  0.00    +0.000 NA
ATOM     11  C   UNL     1      30.027  22.413  24.946  0.00  0.00    +0.000 C 
ATOM     12  C   UNL     1      30.907  22.630  26.132  0.00  0.00    +0.000 C 
ATOM     13  C   UNL     1      30.159  22.931  27.400  0.00  0.00    +0.000 C 
ATOM     14  C   UNL     1      28.784  22.277  27.293  0.00  0.00    +0.000 C 
ENDROOT
BRANCH   1  18
ATOM     15  C   UNL     1      20.918  27.582  26.147  0.00  0.00    +0.000 A 
ATOM     16  C   UNL     1      21.759  27.562  25.033  0.00  0.00    +0.000 A 
ATOM     17  C   UNL     1      22.920  26.819  25.095  0.00  0.00    +0.000 A 
ATOM     18  C   UNL     1      23.287  26.093  26.208  0.00  0.00    +0.000 A 
ATOM     19  C   UNL     1      22.431  26.137  27.285  0.00  0.00    +0.000 A 
ATOM     20  C   UNL     1      21.260  26.867  27.273  0.00  0.00    +0.000 A 
BRANCH  15  22
ATOM     21  C   UNL     1      18.704  27.999  26.968  0.00  0.00    +0.000 C 
ATOM     22  O   UNL     1      19.750  28.328  26.089  0.00  0.00    +0.000 OA
ENDBRANCH  15  22
ENDBRANCH   1  18
TORSDOF 2
ENDMDL
MODEL 10
REMARK VINA RESULT:      -6.1     19.262     21.384
REMARK  Name = 
REMARK  2 active torsions:
REMARK  status: ('A' for Active; 'I' for Inactive)
REMARK    1  A    between atoms: O_2  and  C_3
REMARK    2  A    between atoms: C_6  and  C_7
REMARK                            x       y       z     vdW  Elec       q    Type
REMARK                         _______ _______ _______ _____ _____    ______ ____
ROOT
ATOM      1  C   UNL     1      30.138  22.557  27.741  0.00  0.00    +0.000 A 
ATOM      2  N   UNL     1      29.404  22.807  28.827  0.00  0.00    +0.000 NA
ATOM      3  C   UNL     1      29.822  22.697  30.092  0.00  0.00    +0.000 A 
ATOM      4  N   UNL     1      28.933  22.994  31.177  0.00  0.00    +0.000 NA
ATOM      5  C   UNL     1      31.147  22.284  30.349  0.00  0.00    +0.000 A 
ATOM      6  C   UNL     1      31.742  22.117  31.548  0.00  0.00    +0.000 A 
ATOM      7  C   UNL     1      33.050  21.707  31.545  0.00  0.00    +0.000 A 
ATOM      8  S   UNL     1      33.410  21.566  29.891  0.00  0.00    +0.000 S 
ATOM      9  C   UNL     1      31.895  22.031  29.236  0.00  0.00    +0.000 A 
ATOM     10  N   UNL     1      31.401  22.164  27.962  0.00  0.00    +0.000 NA
ATOM     11  C   UNL     1      33.745  21.510  32.867  0.00  0.00    +0.000 C 
ATOM     12  C   UNL     1      33.484  22.640  33.806  0.00  0.00    +0.000 C 
ATOM     13  C   UNL     1      32.166  23.328  33.583  0.00  0.00    +0.000 C 
ATOM     14  C   UNL     1      31.210  22.309  32.969  0.00  0.00    +0.000 C 
ENDROOT
BRANCH   1  18
ATOM     15  C   UNL     1      28.545  22.997  23.817  0.00  0.00    +0.000 A 
ATOM     16  C   UNL     1      29.916  22.806  24.001  0.00  0.00    +0.000 A 
ATOM     17  C   UNL     1      30.397  22.668  25.287  0.00  0.00    +0.000 A 
ATOM     18  C   UNL     1      29.585  22.709  26.400  0.00  0.00    +0.000 A 
ATOM     19  C   UNL     1      28.239  22.898  26.177  0.00  0.00    +0.000 A 
ATOM     20  C   UNL     1      27.709  23.042  24.911  0.00  0.00    +0.000 A 
BRANCH  15  22
ATOM     21  C   UNL     1      27.959  24.430  21.987  0.00  0.00    +0.000 C 
ATOM     22  O   UNL     1      28.058  23.136  22.526  0.00  0.00    +0.000 OA
ENDBRANCH  15  22
ENDBRANCH   1  18
TORSDOF 2
ENDMDL
