MODEL 1
REMARK VINA RESULT:      -7.8      0.000      0.000
REMARK  Name = 
REMARK  8 active torsions:
REMARK  status: ('A' for Active; 'I' for Inactive)
REMARK    1  A    between atoms: C_7  and  N_8
REMARK    2  A    between atoms: C_11  and  N_12
REMARK    3  A    between atoms: N_12  and  C_14
REMARK    4  A    between atoms: C_24  and  O_25
REMARK    5  A    between atoms: O_25  and  C_26
REMARK    6  A    between atoms: C_26  and  C_27
REMARK    7  A    between atoms: C_27  and  C_28
REMARK    8  A    between atoms: C_28  and  N_29
REMARK                            x       y       z     vdW  Elec       q    Type
REMARK                         _______ _______ _______ _____ _____    ______ ____
ROOT
ATOM      1  N   UNL     1      40.683   0.829  13.814  0.00  0.00    +0.000 NA
ATOM      2  C   UNL     1      39.515   1.348  14.462  0.00  0.00    +0.000 A 
ATOM      3  N   UNL     1      39.409   2.650  14.783  0.00  0.00    +0.000 NA
ATOM      4  C   UNL     1      38.340   3.198  15.389  0.00  0.00    +0.000 A 
ATOM      5  C   UNL     1      37.271   2.387  15.710  0.00  0.00    +0.000 A 
ATOM      6  C   UNL     1      36.153   2.917  16.335  0.00  0.00    +0.000 A 
ATOM      7  C   UNL     1      35.110   2.062  16.636  0.00  0.00    +0.000 A 
ATOM      8  C   UNL     1      35.216   0.718  16.306  0.00  0.00    +0.000 A 
ATOM      9  C   UNL     1      36.321   0.205  15.691  0.00  0.00    +0.000 A 
ATOM     10  C   UNL     1      37.377   1.045  15.381  0.00  0.00    +0.000 A 
ATOM     11  N   UNL     1      38.475   0.549  14.774  0.00  0.00    +0.000 NA
ENDROOT
BRANCH   1  18
ATOM     12  C   UNL     1      39.978   0.098  11.216  0.00  0.00    +0.000 C 
ATOM     13  C   UNL     1      40.456  -0.943  12.184  0.00  0.00    +0.000 A 
ATOM     14  C   UNL     1      40.545  -2.261  11.775  0.00  0.00    +0.000 A 
ATOM     15  C   UNL     1      40.983  -3.241  12.642  0.00  0.00    +0.000 A 
ATOM     16  C   UNL     1      41.322  -2.850  13.919  0.00  0.00    +0.000 A 
ATOM     17  C   UNL     1      41.235  -1.523  14.334  0.00  0.00    +0.000 A 
ATOM     18  C   UNL     1      40.800  -0.542  13.475  0.00  0.00    +0.000 A 
ENDBRANCH   1  18
BRANCH   4  19
ATOM     19  N   UNL     1      38.264   4.578  15.710  0.00  0.00    +0.000 N 
ATOM     20  C   UNL     1      37.358   5.414  14.965  0.00  0.00    +0.000 C 
BRANCH  19  21
ATOM     21  C   UNL     1      39.046   5.168  16.737  0.00  0.00    +0.000 A 
ATOM     22  C   UNL     1      40.211   5.810  16.427  0.00  0.00    +0.000 A 
ATOM     23  C   UNL     1      41.023   6.407  17.367  0.00  0.00    +0.000 A 
ATOM     24  C   UNL     1      40.606   6.333  18.682  0.00  0.00    +0.000 A 
ATOM     25  C   UNL     1      39.443   5.697  19.028  0.00  0.00    +0.000 A 
ATOM     26  C   UNL     1      38.641   5.101  18.054  0.00  0.00    +0.000 A 
ENDBRANCH  19  21
ENDBRANCH   4  19
BRANCH   9  27
ATOM     27  O   UNL     1      36.455  -1.155  15.345  0.00  0.00    +0.000 OA
BRANCH  27  28
ATOM     28  C   UNL     1      35.445  -2.024  15.848  0.00  0.00    +0.000 C 
BRANCH  28  29
ATOM     29  C   UNL     1      36.120  -3.224  16.490  0.00  0.00    +0.000 C 
BRANCH  29  30
ATOM     30  C   UNL     1      36.855  -2.795  17.740  0.00  0.00    +0.000 C 
BRANCH  30  31
ATOM     31  N   UNL     1      38.085  -3.524  17.954  0.00  0.00    +0.000 NA
ATOM     32  C   UNL     1      38.612  -3.236  19.278  0.00  0.00    +0.000 C 
ATOM     33  C   UNL     1      39.046  -3.055  16.973  0.00  0.00    +0.000 C 
ENDBRANCH  30  31
ENDBRANCH  29  30
ENDBRANCH  28  29
ENDBRANCH  27  28
ENDBRANCH   9  27
TORSDOF 8
ENDMDL
MODEL 2
REMARK VINA RESULT:      -7.5      2.050      4.824
REMARK  Name = 
REMARK  8 active torsions:
REMARK  status: ('A' for Active; 'I' for Inactive)
REMARK    1  A    between atoms: C_7  and  N_8
REMARK    2  A    between atoms: C_11  and  N_12
REMARK    3  A    between atoms: N_12  and  C_14
REMARK    4  A    between atoms: C_24  and  O_25
REMARK    5  A    between atoms: O_25  and  C_26
REMARK    6  A    between atoms: C_26  and  C_27
REMARK    7  A    between atoms: C_27  and  C_28
REMARK    8  A    between atoms: C_28  and  N_29
REMARK                            x       y       z     vdW  Elec       q    Type
REMARK                         _______ _______ _______ _____ _____    ______ ____
ROOT
ATOM      1  N   UNL     1      36.204   1.640  17.099  0.00  0.00    +0.000 NA
ATOM      2  C   UNL     1      37.153   2.514  16.473  0.00  0.00    +0.000 A 
ATOM      3  N   UNL     1      37.238   3.813  16.807  0.00  0.00    +0.000 NA
ATOM      4  C   UNL     1      38.106   4.683  16.260  0.00  0.00    +0.000 A 
ATOM      5  C   UNL     1      38.977   4.229  15.289  0.00  0.00    +0.000 A 
ATOM      6  C   UNL     1      39.885   5.097  14.703  0.00  0.00    +0.000 A 
ATOM      7  C   UNL     1      40.734   4.592  13.736  0.00  0.00    +0.000 A 
ATOM      8  C   UNL     1      40.649   3.250  13.390  0.00  0.00    +0.000 A 
ATOM      9  C   UNL     1      39.751   2.404  13.972  0.00  0.00    +0.000 A 
ATOM     10  C   UNL     1      38.892   2.890  14.943  0.00  0.00    +0.000 A 
ATOM     11  N   UNL     1      37.999   2.063  15.526  0.00  0.00    +0.000 NA
ENDROOT
BRANCH   1  18
ATOM     12  C   UNL     1      35.843  -0.180  19.182  0.00  0.00    +0.000 C 
ATOM     13  C   UNL     1      35.929  -0.668  17.766  0.00  0.00    +0.000 A 
ATOM     14  C   UNL     1      35.825  -2.023  17.508  0.00  0.00    +0.000 A 
ATOM     15  C   UNL     1      35.898  -2.502  16.216  0.00  0.00    +0.000 A 
ATOM     16  C   UNL     1      36.078  -1.580  15.209  0.00  0.00    +0.000 A 
ATOM     17  C   UNL     1      36.182  -0.215  15.465  0.00  0.00    +0.000 A 
ATOM     18  C   UNL     1      36.110   0.270  16.750  0.00  0.00    +0.000 A 
ENDBRANCH   1  18
BRANCH   4  19
ATOM     19  N   UNL     1      38.168   6.048  16.639  0.00  0.00    +0.000 N 
ATOM     20  C   UNL     1      37.701   7.047  15.712  0.00  0.00    +0.000 C 
BRANCH  19  21
ATOM     21  C   UNL     1      38.672   6.470  17.897  0.00  0.00    +0.000 A 
ATOM     22  C   UNL     1      38.093   7.521  18.549  0.00  0.00    +0.000 A 
ATOM     23  C   UNL     1      38.525   7.989  19.771  0.00  0.00    +0.000 A 
ATOM     24  C   UNL     1      39.602   7.335  20.338  0.00  0.00    +0.000 A 
ATOM     25  C   UNL     1      40.207   6.277  19.712  0.00  0.00    +0.000 A 
ATOM     26  C   UNL     1      39.747   5.827  18.474  0.00  0.00    +0.000 A 
ENDBRANCH  19  21
ENDBRANCH   4  19
BRANCH   9  27
ATOM     27  O   UNL     1      39.644   1.039  13.640  0.00  0.00    +0.000 OA
BRANCH  27  28
ATOM     28  C   UNL     1      40.667   0.193  14.155  0.00  0.00    +0.000 C 
BRANCH  28  29
ATOM     29  C   UNL     1      40.021  -0.861  15.038  0.00  0.00    +0.000 C 
BRANCH  29  30
ATOM     30  C   UNL     1      40.329  -2.241  14.502  0.00  0.00    +0.000 C 
BRANCH  30  31
ATOM     31  N   UNL     1      40.495  -2.270  13.067  0.00  0.00    +0.000 NA
ATOM     32  C   UNL     1      39.280  -2.754  12.433  0.00  0.00    +0.000 C 
ATOM     33  C   UNL     1      41.563  -3.206  12.771  0.00  0.00    +0.000 C 
ENDBRANCH  30  31
ENDBRANCH  29  30
ENDBRANCH  28  29
ENDBRANCH  27  28
ENDBRANCH   9  27
TORSDOF 8
ENDMDL
MODEL 3
REMARK VINA RESULT:      -7.3      2.292      7.617
REMARK  Name = 
REMARK  8 active torsions:
REMARK  status: ('A' for Active; 'I' for Inactive)
REMARK    1  A    between atoms: C_7  and  N_8
REMARK    2  A    between atoms: C_11  and  N_12
REMARK    3  A    between atoms: N_12  and  C_14
REMARK    4  A    between atoms: C_24  and  O_25
REMARK    5  A    between atoms: O_25  and  C_26
REMARK    6  A    between atoms: C_26  and  C_27
REMARK    7  A    between atoms: C_27  and  C_28
REMARK    8  A    between atoms: C_28  and  N_29
REMARK                            x       y       z     vdW  Elec       q    Type
REMARK                         _______ _______ _______ _____ _____    ______ ____
ROOT
ATOM      1  N   UNL     1      38.544  -2.527  16.420  0.00  0.00    +0.000 NA
ATOM      2  C   UNL     1      39.326  -1.717  15.535  0.00  0.00    +0.000 A 
ATOM      3  N   UNL     1      40.294  -2.248  14.768  0.00  0.00    +0.000 NA
ATOM      4  C   UNL     1      41.061  -1.542  13.917  0.00  0.00    +0.000 A 
ATOM      5  C   UNL     1      40.855  -0.182  13.809  0.00  0.00    +0.000 A 
ATOM      6  C   UNL     1      41.626   0.577  12.943  0.00  0.00    +0.000 A 
ATOM      7  C   UNL     1      41.380   1.935  12.874  0.00  0.00    +0.000 A 
ATOM      8  C   UNL     1      40.381   2.486  13.665  0.00  0.00    +0.000 A 
ATOM      9  C   UNL     1      39.627   1.731  14.515  0.00  0.00    +0.000 A 
ATOM     10  C   UNL     1      39.858   0.368  14.600  0.00  0.00    +0.000 A 
ATOM     11  N   UNL     1      39.119  -0.388  15.437  0.00  0.00    +0.000 NA
ENDROOT
BRANCH   1  18
ATOM     12  C   UNL     1      35.963  -2.478  15.361  0.00  0.00    +0.000 C 
ATOM     13  C   UNL     1      36.220  -1.932  16.734  0.00  0.00    +0.000 A 
ATOM     14  C   UNL     1      35.169  -1.410  17.465  0.00  0.00    +0.000 A 
ATOM     15  C   UNL     1      35.373  -0.902  18.731  0.00  0.00    +0.000 A 
ATOM     16  C   UNL     1      36.659  -0.939  19.227  0.00  0.00    +0.000 A 
ATOM     17  C   UNL     1      37.720  -1.466  18.494  0.00  0.00    +0.000 A 
ATOM     18  C   UNL     1      37.523  -1.973  17.232  0.00  0.00    +0.000 A 
ENDBRANCH   1  18
BRANCH   4  19
ATOM     19  N   UNL     1      42.073  -2.138  13.121  0.00  0.00    +0.000 N 
ATOM     20  C   UNL     1      43.425  -2.156  13.617  0.00  0.00    +0.000 C 
BRANCH  19  21
ATOM     21  C   UNL     1      41.806  -2.718  11.853  0.00  0.00    +0.000 A 
ATOM     22  C   UNL     1      42.711  -3.567  11.285  0.00  0.00    +0.000 A 
ATOM     23  C   UNL     1      42.524  -4.169  10.058  0.00  0.00    +0.000 A 
ATOM     24  C   UNL     1      41.347  -3.875   9.398  0.00  0.00    +0.000 A 
ATOM     25  C   UNL     1      40.416  -3.027   9.939  0.00  0.00    +0.000 A 
ATOM     26  C   UNL     1      40.634  -2.432  11.183  0.00  0.00    +0.000 A 
ENDBRANCH  19  21
ENDBRANCH   4  19
BRANCH   9  27
ATOM     27  O   UNL     1      38.607   2.264  15.329  0.00  0.00    +0.000 OA
BRANCH  27  28
ATOM     28  C   UNL     1      38.513   3.685  15.352  0.00  0.00    +0.000 C 
BRANCH  28  29
ATOM     29  C   UNL     1      37.068   4.067  15.626  0.00  0.00    +0.000 C 
BRANCH  29  30
ATOM     30  C   UNL     1      36.425   3.037  16.528  0.00  0.00    +0.000 C 
BRANCH  30  31
ATOM     31  N   UNL     1      35.186   2.513  16.000  0.00  0.00    +0.000 NA
ATOM     32  C   UNL     1      35.450   1.356  15.161  0.00  0.00    +0.000 C 
ATOM     33  C   UNL     1      34.594   3.547  15.171  0.00  0.00    +0.000 C 
ENDBRANCH  30  31
ENDBRANCH  29  30
ENDBRANCH  28  29
ENDBRANCH  27  28
ENDBRANCH   9  27
TORSDOF 8
ENDMDL
MODEL 4
REMARK VINA RESULT:      -7.3      1.994      7.933
REMARK  Name = 
REMARK  8 active torsions:
REMARK  status: ('A' for Active; 'I' for Inactive)
REMARK    1  A    between atoms: C_7  and  N_8
REMARK    2  A    between atoms: C_11  and  N_12
REMARK    3  A    between atoms: N_12  and  C_14
REMARK    4  A    between atoms: C_24  and  O_25
REMARK    5  A    between atoms: O_25  and  C_26
REMARK    6  A    between atoms: C_26  and  C_27
REMARK    7  A    between atoms: C_27  and  C_28
REMARK    8  A    between atoms: C_28  and  N_29
REMARK                            x       y       z     vdW  Elec       q    Type
REMARK                         _______ _______ _______ _____ _____    ______ ____
ROOT
ATOM      1  N   UNL     1      38.043  -2.073  16.232  0.00  0.00    +0.000 NA
ATOM      2  C   UNL     1      38.914  -1.263  15.433  0.00  0.00    +0.000 A 
ATOM      3  N   UNL     1      39.913  -1.804  14.714  0.00  0.00    +0.000 NA
ATOM      4  C   UNL     1      40.763  -1.100  13.944  0.00  0.00    +0.000 A 
ATOM      5  C   UNL     1      40.614   0.270  13.873  0.00  0.00    +0.000 A 
ATOM      6  C   UNL     1      41.471   1.027  13.090  0.00  0.00    +0.000 A 
ATOM      7  C   UNL     1      41.280   2.395  13.055  0.00  0.00    +0.000 A 
ATOM      8  C   UNL     1      40.249   2.957  13.796  0.00  0.00    +0.000 A 
ATOM      9  C   UNL     1      39.410   2.203  14.564  0.00  0.00    +0.000 A 
ATOM     10  C   UNL     1      39.585   0.831  14.614  0.00  0.00    +0.000 A 
ATOM     11  N   UNL     1      38.763   0.075  15.370  0.00  0.00    +0.000 NA
ENDROOT
BRANCH   1  18
ATOM     12  C   UNL     1      38.362  -2.019  19.004  0.00  0.00    +0.000 C 
ATOM     13  C   UNL     1      37.115  -1.463  18.381  0.00  0.00    +0.000 A 
ATOM     14  C   UNL     1      36.133  -0.926  19.193  0.00  0.00    +0.000 A 
ATOM     15  C   UNL     1      34.976  -0.405  18.650  0.00  0.00    +0.000 A 
ATOM     16  C   UNL     1      34.847  -0.447  17.279  0.00  0.00    +0.000 A 
ATOM     17  C   UNL     1      35.834  -0.987  16.459  0.00  0.00    +0.000 A 
ATOM     18  C   UNL     1      36.989  -1.507  16.993  0.00  0.00    +0.000 A 
ENDBRANCH   1  18
BRANCH   4  19
ATOM     19  N   UNL     1      41.805  -1.708  13.198  0.00  0.00    +0.000 N 
ATOM     20  C   UNL     1      43.150  -1.646  13.709  0.00  0.00    +0.000 C 
BRANCH  19  21
ATOM     21  C   UNL     1      41.575  -2.373  11.965  0.00  0.00    +0.000 A 
ATOM     22  C   UNL     1      42.367  -3.422  11.596  0.00  0.00    +0.000 A 
ATOM     23  C   UNL     1      42.207  -4.117  10.416  0.00  0.00    +0.000 A 
ATOM     24  C   UNL     1      41.181  -3.705   9.589  0.00  0.00    +0.000 A 
ATOM     25  C   UNL     1      40.366  -2.656   9.929  0.00  0.00    +0.000 A 
ATOM     26  C   UNL     1      40.554  -1.970  11.130  0.00  0.00    +0.000 A 
ENDBRANCH  19  21
ENDBRANCH   4  19
BRANCH   9  27
ATOM     27  O   UNL     1      38.356   2.748  15.325  0.00  0.00    +0.000 OA
BRANCH  27  28
ATOM     28  C   UNL     1      38.452   4.140  15.608  0.00  0.00    +0.000 C 
BRANCH  28  29
ATOM     29  C   UNL     1      38.214   4.347  17.094  0.00  0.00    +0.000 C 
BRANCH  29  30
ATOM     30  C   UNL     1      39.314   5.204  17.678  0.00  0.00    +0.000 C 
BRANCH  30  31
ATOM     31  N   UNL     1      38.893   5.957  18.838  0.00  0.00    +0.000 NA
ATOM     32  C   UNL     1      38.262   7.200  18.426  0.00  0.00    +0.000 C 
ATOM     33  C   UNL     1      40.085   6.285  19.599  0.00  0.00    +0.000 C 
ENDBRANCH  30  31
ENDBRANCH  29  30
ENDBRANCH  28  29
ENDBRANCH  27  28
ENDBRANCH   9  27
TORSDOF 8
ENDMDL
MODEL 5
REMARK VINA RESULT:      -7.2      1.684      4.754
REMARK  Name = 
REMARK  8 active torsions:
REMARK  status: ('A' for Active; 'I' for Inactive)
REMARK    1  A    between atoms: C_7  and  N_8
REMARK    2  A    between atoms: C_11  and  N_12
REMARK    3  A    between atoms: N_12  and  C_14
REMARK    4  A    between atoms: C_24  and  O_25
REMARK    5  A    between atoms: O_25  and  C_26
REMARK    6  A    between atoms: C_26  and  C_27
REMARK    7  A    between atoms: C_27  and  C_28
REMARK    8  A    between atoms: C_28  and  N_29
REMARK                            x       y       z     vdW  Elec       q    Type
REMARK                         _______ _______ _______ _____ _____    ______ ____
ROOT
ATOM      1  N   UNL     1      36.340  -0.311  16.461  0.00  0.00    +0.000 NA
ATOM      2  C   UNL     1      37.233   0.533  15.725  0.00  0.00    +0.000 A 
ATOM      3  N   UNL     1      37.226   1.868  15.879  0.00  0.00    +0.000 NA
ATOM      4  C   UNL     1      38.039   2.714  15.220  0.00  0.00    +0.000 A 
ATOM      5  C   UNL     1      38.949   2.195  14.321  0.00  0.00    +0.000 A 
ATOM      6  C   UNL     1      39.801   3.036  13.625  0.00  0.00    +0.000 A 
ATOM      7  C   UNL     1      40.693   2.466  12.736  0.00  0.00    +0.000 A 
ATOM      8  C   UNL     1      40.703   1.087  12.574  0.00  0.00    +0.000 A 
ATOM      9  C   UNL     1      39.860   0.267  13.265  0.00  0.00    +0.000 A 
ATOM     10  C   UNL     1      38.959   0.818  14.160  0.00  0.00    +0.000 A 
ATOM     11  N   UNL     1      38.119   0.018  14.848  0.00  0.00    +0.000 NA
ENDROOT
BRANCH   1  18
ATOM     12  C   UNL     1      37.901  -1.789  18.240  0.00  0.00    +0.000 C 
ATOM     13  C   UNL     1      37.113  -2.490  17.173  0.00  0.00    +0.000 A 
ATOM     14  C   UNL     1      37.167  -3.869  17.085  0.00  0.00    +0.000 A 
ATOM     15  C   UNL     1      36.452  -4.542  16.116  0.00  0.00    +0.000 A 
ATOM     16  C   UNL     1      35.692  -3.786  15.251  0.00  0.00    +0.000 A 
ATOM     17  C   UNL     1      35.634  -2.397  15.338  0.00  0.00    +0.000 A 
ATOM     18  C   UNL     1      36.344  -1.720  16.301  0.00  0.00    +0.000 A 
ENDBRANCH   1  18
BRANCH   4  19
ATOM     19  N   UNL     1      38.003   4.119  15.412  0.00  0.00    +0.000 N 
ATOM     20  C   UNL     1      37.153   4.913  14.562  0.00  0.00    +0.000 C 
BRANCH  19  21
ATOM     21  C   UNL     1      38.772   4.775  16.408  0.00  0.00    +0.000 A 
ATOM     22  C   UNL     1      39.869   5.506  16.054  0.00  0.00    +0.000 A 
ATOM     23  C   UNL     1      40.666   6.171  16.962  0.00  0.00    +0.000 A 
ATOM     24  C   UNL     1      40.304   6.070  18.291  0.00  0.00    +0.000 A 
ATOM     25  C   UNL     1      39.209   5.345  18.682  0.00  0.00    +0.000 A 
ATOM     26  C   UNL     1      38.422   4.682  17.739  0.00  0.00    +0.000 A 
ENDBRANCH  19  21
ENDBRANCH   4  19
BRANCH   9  27
ATOM     27  O   UNL     1      39.849  -1.135  13.120  0.00  0.00    +0.000 OA
BRANCH  27  28
ATOM     28  C   UNL     1      39.635  -1.619  11.798  0.00  0.00    +0.000 C 
BRANCH  28  29
ATOM     29  C   UNL     1      40.608  -2.757  11.539  0.00  0.00    +0.000 C 
BRANCH  29  30
ATOM     30  C   UNL     1      41.245  -3.196  12.838  0.00  0.00    +0.000 C 
BRANCH  30  31
ATOM     31  N   UNL     1      42.686  -3.283  12.764  0.00  0.00    +0.000 NA
ATOM     32  C   UNL     1      43.288  -2.073  13.298  0.00  0.00    +0.000 C 
ATOM     33  C   UNL     1      43.045  -3.385  11.361  0.00  0.00    +0.000 C 
ENDBRANCH  30  31
ENDBRANCH  29  30
ENDBRANCH  28  29
ENDBRANCH  27  28
ENDBRANCH   9  27
TORSDOF 8
ENDMDL
MODEL 6
REMARK VINA RESULT:      -7.1      2.460      7.148
REMARK  Name = 
REMARK  8 active torsions:
REMARK  status: ('A' for Active; 'I' for Inactive)
REMARK    1  A    between atoms: C_7  and  N_8
REMARK    2  A    between atoms: C_11  and  N_12
REMARK    3  A    between atoms: N_12  and  C_14
REMARK    4  A    between atoms: C_24  and  O_25
REMARK    5  A    between atoms: O_25  and  C_26
REMARK    6  A    between atoms: C_26  and  C_27
REMARK    7  A    between atoms: C_27  and  C_28
REMARK    8  A    between atoms: C_28  and  N_29
REMARK                            x       y       z     vdW  Elec       q    Type
REMARK                         _______ _______ _______ _____ _____    ______ ____
ROOT
ATOM      1  N   UNL     1      38.689  -2.625  16.614  0.00  0.00    +0.000 NA
ATOM      2  C   UNL     1      39.474  -1.847  15.703  0.00  0.00    +0.000 A 
ATOM      3  N   UNL     1      40.500  -2.386  15.022  0.00  0.00    +0.000 NA
ATOM      4  C   UNL     1      41.273  -1.710  14.152  0.00  0.00    +0.000 A 
ATOM      5  C   UNL     1      41.010  -0.373  13.930  0.00  0.00    +0.000 A 
ATOM      6  C   UNL     1      41.785   0.354  13.041  0.00  0.00    +0.000 A 
ATOM      7  C   UNL     1      41.481   1.689  12.856  0.00  0.00    +0.000 A 
ATOM      8  C   UNL     1      40.422   2.249  13.558  0.00  0.00    +0.000 A 
ATOM      9  C   UNL     1      39.664   1.525  14.431  0.00  0.00    +0.000 A 
ATOM     10  C   UNL     1      39.953   0.185  14.631  0.00  0.00    +0.000 A 
ATOM     11  N   UNL     1      39.211  -0.541  15.492  0.00  0.00    +0.000 NA
ENDROOT
BRANCH   1  18
ATOM     12  C   UNL     1      36.139  -2.925  15.521  0.00  0.00    +0.000 C 
ATOM     13  C   UNL     1      36.318  -2.193  16.818  0.00  0.00    +0.000 A 
ATOM     14  C   UNL     1      35.210  -1.674  17.463  0.00  0.00    +0.000 A 
ATOM     15  C   UNL     1      35.342  -0.997  18.658  0.00  0.00    +0.000 A 
ATOM     16  C   UNL     1      36.613  -0.864  19.172  0.00  0.00    +0.000 A 
ATOM     17  C   UNL     1      37.731  -1.386  18.526  0.00  0.00    +0.000 A 
ATOM     18  C   UNL     1      37.607  -2.062  17.335  0.00  0.00    +0.000 A 
ENDBRANCH   1  18
BRANCH   4  19
ATOM     19  N   UNL     1      42.347  -2.314  13.449  0.00  0.00    +0.000 N 
ATOM     20  C   UNL     1      42.047  -3.220  12.370  0.00  0.00    +0.000 C 
BRANCH  19  21
ATOM     21  C   UNL     1      43.707  -2.062  13.768  0.00  0.00    +0.000 A 
ATOM     22  C   UNL     1      44.672  -2.204  12.812  0.00  0.00    +0.000 A 
ATOM     23  C   UNL     1      46.012  -1.978  13.045  0.00  0.00    +0.000 A 
ATOM     24  C   UNL     1      46.361  -1.588  14.323  0.00  0.00    +0.000 A 
ATOM     25  C   UNL     1      45.419  -1.436  15.306  0.00  0.00    +0.000 A 
ATOM     26  C   UNL     1      44.069  -1.673  15.041  0.00  0.00    +0.000 A 
ENDBRANCH  19  21
ENDBRANCH   4  19
BRANCH   9  27
ATOM     27  O   UNL     1      38.584   2.067  15.156  0.00  0.00    +0.000 OA
BRANCH  27  28
ATOM     28  C   UNL     1      38.614   3.478  15.349  0.00  0.00    +0.000 C 
BRANCH  28  29
ATOM     29  C   UNL     1      37.189   3.968  15.538  0.00  0.00    +0.000 C 
BRANCH  29  30
ATOM     30  C   UNL     1      36.489   3.127  16.582  0.00  0.00    +0.000 C 
BRANCH  30  31
ATOM     31  N   UNL     1      35.198   2.641  16.150  0.00  0.00    +0.000 NA
ATOM     32  C   UNL     1      35.324   1.294  15.618  0.00  0.00    +0.000 C 
ATOM     33  C   UNL     1      34.743   3.510  15.080  0.00  0.00    +0.000 C 
ENDBRANCH  30  31
ENDBRANCH  29  30
ENDBRANCH  28  29
ENDBRANCH  27  28
ENDBRANCH   9  27
TORSDOF 8
ENDMDL
MODEL 7
REMARK VINA RESULT:      -7.1      1.904      5.030
REMARK  Name = 
REMARK  8 active torsions:
REMARK  status: ('A' for Active; 'I' for Inactive)
REMARK    1  A    between atoms: C_7  and  N_8
REMARK    2  A    between atoms: C_11  and  N_12
REMARK    3  A    between atoms: N_12  and  C_14
REMARK    4  A    between atoms: C_24  and  O_25
REMARK    5  A    between atoms: O_25  and  C_26
REMARK    6  A    between atoms: C_26  and  C_27
REMARK    7  A    between atoms: C_27  and  C_28
REMARK    8  A    between atoms: C_28  and  N_29
REMARK                            x       y       z     vdW  Elec       q    Type
REMARK                         _______ _______ _______ _____ _____    ______ ____
ROOT
ATOM      1  N   UNL     1      36.664  -1.120  16.920  0.00  0.00    +0.000 NA
ATOM      2  C   UNL     1      37.374  -0.133  16.163  0.00  0.00    +0.000 A 
ATOM      3  N   UNL     1      36.951   1.142  16.100  0.00  0.00    +0.000 NA
ATOM      4  C   UNL     1      37.573   2.115  15.409  0.00  0.00    +0.000 A 
ATOM      5  C   UNL     1      38.724   1.804  14.714  0.00  0.00    +0.000 A 
ATOM      6  C   UNL     1      39.390   2.781  13.992  0.00  0.00    +0.000 A 
ATOM      7  C   UNL     1      40.537   2.417  13.312  0.00  0.00    +0.000 A 
ATOM      8  C   UNL     1      40.977   1.101  13.376  0.00  0.00    +0.000 A 
ATOM      9  C   UNL     1      40.313   0.147  14.090  0.00  0.00    +0.000 A 
ATOM     10  C   UNL     1      39.162   0.491  14.777  0.00  0.00    +0.000 A 
ATOM     11  N   UNL     1      38.497  -0.445  15.486  0.00  0.00    +0.000 NA
ENDROOT
BRANCH   1  18
ATOM     12  C   UNL     1      35.323  -2.981  15.331  0.00  0.00    +0.000 C 
ATOM     13  C   UNL     1      36.457  -3.422  16.208  0.00  0.00    +0.000 A 
ATOM     14  C   UNL     1      36.829  -4.755  16.217  0.00  0.00    +0.000 A 
ATOM     15  C   UNL     1      37.869  -5.191  17.011  0.00  0.00    +0.000 A 
ATOM     16  C   UNL     1      38.511  -4.250  17.786  0.00  0.00    +0.000 A 
ATOM     17  C   UNL     1      38.140  -2.907  17.778  0.00  0.00    +0.000 A 
ATOM     18  C   UNL     1      37.105  -2.465  16.989  0.00  0.00    +0.000 A 
ENDBRANCH   1  18
BRANCH   4  19
ATOM     19  N   UNL     1      37.097   3.451  15.368  0.00  0.00    +0.000 N 
ATOM     20  C   UNL     1      35.977   3.761  14.517  0.00  0.00    +0.000 C 
BRANCH  19  21
ATOM     21  C   UNL     1      37.681   4.495  16.131  0.00  0.00    +0.000 A 
ATOM     22  C   UNL     1      38.172   4.238  17.379  0.00  0.00    +0.000 A 
ATOM     23  C   UNL     1      38.753   5.198  18.180  0.00  0.00    +0.000 A 
ATOM     24  C   UNL     1      38.826   6.476  17.660  0.00  0.00    +0.000 A 
ATOM     25  C   UNL     1      38.344   6.769  16.412  0.00  0.00    +0.000 A 
ATOM     26  C   UNL     1      37.760   5.776  15.624  0.00  0.00    +0.000 A 
ENDBRANCH  19  21
ENDBRANCH   4  19
BRANCH   9  27
ATOM     27  O   UNL     1      40.737  -1.195  14.171  0.00  0.00    +0.000 OA
BRANCH  27  28
ATOM     28  C   UNL     1      42.118  -1.425  13.911  0.00  0.00    +0.000 C 
BRANCH  28  29
ATOM     29  C   UNL     1      42.269  -2.808  13.299  0.00  0.00    +0.000 C 
BRANCH  29  30
ATOM     30  C   UNL     1      42.292  -2.704  11.791  0.00  0.00    +0.000 C 
BRANCH  30  31
ATOM     31  N   UNL     1      41.257  -3.484  11.151  0.00  0.00    +0.000 NA
ATOM     32  C   UNL     1      41.776  -4.115   9.949  0.00  0.00    +0.000 C 
ATOM     33  C   UNL     1      40.200  -2.568  10.761  0.00  0.00    +0.000 C 
ENDBRANCH  30  31
ENDBRANCH  29  30
ENDBRANCH  28  29
ENDBRANCH  27  28
ENDBRANCH   9  27
TORSDOF 8
ENDMDL
MODEL 8
REMARK VINA RESULT:      -7.0      2.334      5.567
REMARK  Name = 
REMARK  8 active torsions:
REMARK  status: ('A' for Active; 'I' for Inactive)
REMARK    1  A    between atoms: C_7  and  N_8
REMARK    2  A    between atoms: C_11  and  N_12
REMARK    3  A    between atoms: N_12  and  C_14
REMARK    4  A    between atoms: C_24  and  O_25
REMARK    5  A    between atoms: O_25  and  C_26
REMARK    6  A    between atoms: C_26  and  C_27
REMARK    7  A    between atoms: C_27  and  C_28
REMARK    8  A    between atoms: C_28  and  N_29
REMARK                            x       y       z     vdW  Elec       q    Type
REMARK                         _______ _______ _______ _____ _____    ______ ____
ROOT
ATOM      1  N   UNL     1      36.397   1.706  17.271  0.00  0.00    +0.000 NA
ATOM      2  C   UNL     1      37.351   2.503  16.559  0.00  0.00    +0.000 A 
ATOM      3  N   UNL     1      37.662   3.749  16.956  0.00  0.00    +0.000 NA
ATOM      4  C   UNL     1      38.549   4.546  16.334  0.00  0.00    +0.000 A 
ATOM      5  C   UNL     1      39.194   4.071  15.210  0.00  0.00    +0.000 A 
ATOM      6  C   UNL     1      40.114   4.864  14.542  0.00  0.00    +0.000 A 
ATOM      7  C   UNL     1      40.730   4.341  13.422  0.00  0.00    +0.000 A 
ATOM      8  C   UNL     1      40.412   3.054  13.009  0.00  0.00    +0.000 A 
ATOM      9  C   UNL     1      39.505   2.280  13.672  0.00  0.00    +0.000 A 
ATOM     10  C   UNL     1      38.875   2.786  14.797  0.00  0.00    +0.000 A 
ATOM     11  N   UNL     1      37.976   2.032  15.461  0.00  0.00    +0.000 NA
ENDROOT
BRANCH   1  18
ATOM     12  C   UNL     1      35.640  -0.102  19.256  0.00  0.00    +0.000 C 
ATOM     13  C   UNL     1      35.681  -0.538  17.821  0.00  0.00    +0.000 A 
ATOM     14  C   UNL     1      35.340  -1.838  17.496  0.00  0.00    +0.000 A 
ATOM     15  C   UNL     1      35.366  -2.268  16.185  0.00  0.00    +0.000 A 
ATOM     16  C   UNL     1      35.746  -1.353  15.228  0.00  0.00    +0.000 A 
ATOM     17  C   UNL     1      36.089  -0.043  15.551  0.00  0.00    +0.000 A 
ATOM     18  C   UNL     1      36.065   0.392  16.855  0.00  0.00    +0.000 A 
ENDBRANCH   1  18
BRANCH   4  19
ATOM     19  N   UNL     1      38.853   5.856  16.785  0.00  0.00    +0.000 N 
ATOM     20  C   UNL     1      38.145   6.970  16.208  0.00  0.00    +0.000 C 
BRANCH  19  21
ATOM     21  C   UNL     1      39.828   6.114  17.783  0.00  0.00    +0.000 A 
ATOM     22  C   UNL     1      41.123   6.364  17.427  0.00  0.00    +0.000 A 
ATOM     23  C   UNL     1      42.126   6.622  18.337  0.00  0.00    +0.000 A 
ATOM     24  C   UNL     1      41.766   6.621  19.670  0.00  0.00    +0.000 A 
ATOM     25  C   UNL     1      40.477   6.375  20.063  0.00  0.00    +0.000 A 
ATOM     26  C   UNL     1      39.483   6.115  19.119  0.00  0.00    +0.000 A 
ENDBRANCH  19  21
ENDBRANCH   4  19
BRANCH   9  27
ATOM     27  O   UNL     1      39.163   0.972  13.275  0.00  0.00    +0.000 OA
BRANCH  27  28
ATOM     28  C   UNL     1      39.953   0.417  12.228  0.00  0.00    +0.000 C 
BRANCH  28  29
ATOM     29  C   UNL     1      39.028  -0.009  11.101  0.00  0.00    +0.000 C 
BRANCH  29  30
ATOM     30  C   UNL     1      37.727   0.758  11.185  0.00  0.00    +0.000 C 
BRANCH  30  31
ATOM     31  N   UNL     1      37.458   1.552  10.007  0.00  0.00    +0.000 NA
ATOM     32  C   UNL     1      38.512   1.361   9.024  0.00  0.00    +0.000 C 
ATOM     33  C   UNL     1      37.465   2.946  10.412  0.00  0.00    +0.000 C 
ENDBRANCH  30  31
ENDBRANCH  29  30
ENDBRANCH  28  29
ENDBRANCH  27  28
ENDBRANCH   9  27
TORSDOF 8
ENDMDL
MODEL 9
REMARK VINA RESULT:      -6.9     26.219     28.552
REMARK  Name = 
REMARK  8 active torsions:
REMARK  status: ('A' for Active; 'I' for Inactive)
REMARK    1  A    between atoms: C_7  and  N_8
REMARK    2  A    between atoms: C_11  and  N_12
REMARK    3  A    between atoms: N_12  and  C_14
REMARK    4  A    between atoms: C_24  and  O_25
REMARK    5  A    between atoms: O_25  and  C_26
REMARK    6  A    between atoms: C_26  and  C_27
REMARK    7  A    between atoms: C_27  and  C_28
REMARK    8  A    between atoms: C_28  and  N_29
REMARK                            x       y       z     vdW  Elec       q    Type
REMARK                         _______ _______ _______ _____ _____    ______ ____
ROOT
ATOM      1  N   UNL     1      30.624  14.950  38.018  0.00  0.00    +0.000 NA
ATOM      2  C   UNL     1      29.208  15.160  37.978  0.00  0.00    +0.000 A 
ATOM      3  N   UNL     1      28.633  15.892  37.008  0.00  0.00    +0.000 NA
ATOM      4  C   UNL     1      27.311  16.124  36.914  0.00  0.00    +0.000 A 
ATOM      5  C   UNL     1      26.472  15.581  37.866  0.00  0.00    +0.000 A 
ATOM      6  C   UNL     1      25.105  15.799  37.801  0.00  0.00    +0.000 A 
ATOM      7  C   UNL     1      24.310  15.234  38.779  0.00  0.00    +0.000 A 
ATOM      8  C   UNL     1      24.900  14.476  39.782  0.00  0.00    +0.000 A 
ATOM      9  C   UNL     1      26.248  14.267  39.838  0.00  0.00    +0.000 A 
ATOM     10  C   UNL     1      27.062  14.825  38.867  0.00  0.00    +0.000 A 
ATOM     11  N   UNL     1      28.395  14.626  38.912  0.00  0.00    +0.000 NA
ENDROOT
BRANCH   1  18
ATOM     12  C   UNL     1      31.620  12.446  37.296  0.00  0.00    +0.000 C 
ATOM     13  C   UNL     1      31.745  12.922  38.713  0.00  0.00    +0.000 A 
ATOM     14  C   UNL     1      32.357  12.111  39.651  0.00  0.00    +0.000 A 
ATOM     15  C   UNL     1      32.489  12.522  40.961  0.00  0.00    +0.000 A 
ATOM     16  C   UNL     1      31.986  13.763  41.288  0.00  0.00    +0.000 A 
ATOM     17  C   UNL     1      31.369  14.583  40.346  0.00  0.00    +0.000 A 
ATOM     18  C   UNL     1      31.235  14.180  39.039  0.00  0.00    +0.000 A 
ENDBRANCH   1  18
BRANCH   4  19
ATOM     19  N   UNL     1      26.740  16.902  35.874  0.00  0.00    +0.000 N 
ATOM     20  C   UNL     1      26.760  18.337  35.991  0.00  0.00    +0.000 C 
BRANCH  19  21
ATOM     21  C   UNL     1      26.149  16.321  34.721  0.00  0.00    +0.000 A 
ATOM     22  C   UNL     1      26.378  15.009  34.422  0.00  0.00    +0.000 A 
ATOM     23  C   UNL     1      25.841  14.375  33.322  0.00  0.00    +0.000 A 
ATOM     24  C   UNL     1      25.031  15.138  32.502  0.00  0.00    +0.000 A 
ATOM     25  C   UNL     1      24.780  16.457  32.773  0.00  0.00    +0.000 A 
ATOM     26  C   UNL     1      25.339  17.072  33.894  0.00  0.00    +0.000 A 
ENDBRANCH  19  21
ENDBRANCH   4  19
BRANCH   9  27
ATOM     27  O   UNL     1      26.873  13.503  40.844  0.00  0.00    +0.000 OA
BRANCH  27  28
ATOM     28  C   UNL     1      26.565  12.113  40.847  0.00  0.00    +0.000 C 
BRANCH  28  29
ATOM     29  C   UNL     1      27.867  11.332  40.893  0.00  0.00    +0.000 C 
BRANCH  29  30
ATOM     30  C   UNL     1      27.579   9.848  40.868  0.00  0.00    +0.000 C 
BRANCH  30  31
ATOM     31  N   UNL     1      28.653   9.050  41.414  0.00  0.00    +0.000 NA
ATOM     32  C   UNL     1      28.837   9.357  42.823  0.00  0.00    +0.000 C 
ATOM     33  C   UNL     1      29.868   9.416  40.709  0.00  0.00    +0.000 C 
ENDBRANCH  30  31
ENDBRANCH  29  30
ENDBRANCH  28  29
ENDBRANCH  27  28
ENDBRANCH   9  27
TORSDOF 8
ENDMDL
MODEL 10
REMARK VINA RESULT:      -6.9      4.376      9.724
REMARK  Name = 
REMARK  8 active torsions:
REMARK  status: ('A' for Active; 'I' for Inactive)
REMARK    1  A    between atoms: C_7  and  N_8
REMARK    2  A    between atoms: C_11  and  N_12
REMARK    3  A    between atoms: N_12  and  C_14
REMARK    4  A    between atoms: C_24  and  O_25
REMARK    5  A    between atoms: O_25  and  C_26
REMARK    6  A    between atoms: C_26  and  C_27
REMARK    7  A    between atoms: C_27  and  C_28
REMARK    8  A    between atoms: C_28  and  N_29
REMARK                            x       y       z     vdW  Elec       q    Type
REMARK                         _______ _______ _______ _____ _____    ______ ____
ROOT
ATOM      1  N   UNL     1      36.119   7.460  13.430  0.00  0.00    +0.000 NA
ATOM      2  C   UNL     1      36.799   6.784  14.495  0.00  0.00    +0.000 A 
ATOM      3  N   UNL     1      37.079   5.470  14.428  0.00  0.00    +0.000 NA
ATOM      4  C   UNL     1      37.715   4.779  15.391  0.00  0.00    +0.000 A 
ATOM      5  C   UNL     1      38.117   5.446  16.531  0.00  0.00    +0.000 A 
ATOM      6  C   UNL     1      38.775   4.766  17.544  0.00  0.00    +0.000 A 
ATOM      7  C   UNL     1      39.155   5.480  18.664  0.00  0.00    +0.000 A 
ATOM      8  C   UNL     1      38.868   6.836  18.736  0.00  0.00    +0.000 A 
ATOM      9  C   UNL     1      38.220   7.497  17.734  0.00  0.00    +0.000 A 
ATOM     10  C   UNL     1      37.830   6.800  16.603  0.00  0.00    +0.000 A 
ATOM     11  N   UNL     1      37.188   7.442  15.605  0.00  0.00    +0.000 NA
ENDROOT
BRANCH   1  18
ATOM     12  C   UNL     1      33.622   8.175  14.448  0.00  0.00    +0.000 C 
ATOM     13  C   UNL     1      34.582   9.238  14.000  0.00  0.00    +0.000 A 
ATOM     14  C   UNL     1      34.216  10.568  14.099  0.00  0.00    +0.000 A 
ATOM     15  C   UNL     1      35.078  11.568  13.697  0.00  0.00    +0.000 A 
ATOM     16  C   UNL     1      36.303  11.184  13.198  0.00  0.00    +0.000 A 
ATOM     17  C   UNL     1      36.675   9.845  13.098  0.00  0.00    +0.000 A 
ATOM     18  C   UNL     1      35.821   8.844  13.496  0.00  0.00    +0.000 A 
ENDBRANCH   1  18
BRANCH   4  19
ATOM     19  N   UNL     1      37.995   3.393  15.284  0.00  0.00    +0.000 N 
ATOM     20  C   UNL     1      39.297   2.981  14.827  0.00  0.00    +0.000 C 
BRANCH  19  21
ATOM     21  C   UNL     1      37.040   2.393  15.608  0.00  0.00    +0.000 A 
ATOM     22  C   UNL     1      36.012   2.680  16.460  0.00  0.00    +0.000 A 
ATOM     23  C   UNL     1      35.048   1.764  16.823  0.00  0.00    +0.000 A 
ATOM     24  C   UNL     1      35.158   0.500  16.277  0.00  0.00    +0.000 A 
ATOM     25  C   UNL     1      36.178   0.178  15.419  0.00  0.00    +0.000 A 
ATOM     26  C   UNL     1      37.140   1.127  15.071  0.00  0.00    +0.000 A 
ENDBRANCH  19  21
ENDBRANCH   4  19
BRANCH   9  27
ATOM     27  O   UNL     1      37.917   8.872  17.781  0.00  0.00    +0.000 OA
BRANCH  27  28
ATOM     28  C   UNL     1      36.759   9.226  18.530  0.00  0.00    +0.000 C 
BRANCH  28  29
ATOM     29  C   UNL     1      35.823  10.012  17.628  0.00  0.00    +0.000 C 
BRANCH  29  30
ATOM     30  C   UNL     1      34.405   9.517  17.800  0.00  0.00    +0.000 C 
BRANCH  30  31
ATOM     31  N   UNL     1      33.410  10.507  17.453  0.00  0.00    +0.000 NA
ATOM     32  C   UNL     1      33.938  11.844  17.674  0.00  0.00    +0.000 C 
ATOM     33  C   UNL     1      32.278  10.316  18.340  0.00  0.00    +0.000 C 
ENDBRANCH  30  31
ENDBRANCH  29  30
ENDBRANCH  28  29
ENDBRANCH  27  28
ENDBRANCH   9  27
TORSDOF 8
ENDMDL
