MODEL 1
REMARK VINA RESULT:      -7.7      0.000      0.000
REMARK  Name = 
REMARK  6 active torsions:
REMARK  status: ('A' for Active; 'I' for Inactive)
REMARK    1  A    between atoms: O_2  and  C_3
REMARK    2  A    between atoms: C_7  and  C_8
REMARK    3  A    between atoms: C_18  and  O_19
REMARK    4  A    between atoms: O_19  and  C_20
REMARK    5  A    between atoms: C_20  and  C_21
REMARK    6  A    between atoms: C_29  and  O_30
REMARK                            x       y       z     vdW  Elec       q    Type
REMARK                         _______ _______ _______ _____ _____    ______ ____
ROOT
ATOM      1  C   UNL     1      38.496  -2.524  14.921  0.00  0.00    +0.000 C 
ATOM      2  N   UNL     1      38.065  -2.331  13.448  0.00  0.00    +0.000 NA
ATOM      3  C   UNL     1      39.091  -1.400  12.965  0.00  0.00    +0.000 C 
ATOM      4  C   UNL     1      39.429  -0.345  14.010  0.00  0.00    +0.000 C 
ATOM      5  C   UNL     1      38.257  -0.199  14.952  0.00  0.00    +0.000 A 
ATOM      6  C   UNL     1      37.677  -1.304  15.502  0.00  0.00    +0.000 A 
ATOM      7  N   UNL     1      36.717  -0.965  16.258  0.00  0.00    +0.000 NA
ATOM      8  C   UNL     1      36.583   0.373  16.273  0.00  0.00    +0.000 A 
ATOM      9  C   UNL     1      35.767   1.309  16.870  0.00  0.00    +0.000 A 
ATOM     10  C   UNL     1      35.951   2.656  16.625  0.00  0.00    +0.000 A 
ATOM     11  C   UNL     1      36.936   3.137  15.790  0.00  0.00    +0.000 A 
ATOM     12  C   UNL     1      37.753   2.209  15.191  0.00  0.00    +0.000 A 
ATOM     13  C   UNL     1      37.561   0.876  15.442  0.00  0.00    +0.000 A 
ENDROOT
BRANCH   1  18
ATOM     14  C   UNL     1      36.664  -5.466  16.553  0.00  0.00    +0.000 A 
ATOM     15  C   UNL     1      35.532  -5.526  15.750  0.00  0.00    +0.000 A 
ATOM     16  C   UNL     1      35.381  -4.621  14.716  0.00  0.00    +0.000 A 
ATOM     17  C   UNL     1      36.349  -3.669  14.489  0.00  0.00    +0.000 A 
ATOM     18  C   UNL     1      37.474  -3.663  15.341  0.00  0.00    +0.000 A 
ATOM     19  C   UNL     1      37.640  -4.508  16.326  0.00  0.00    +0.000 A 
BRANCH  14  21
ATOM     20  C   UNL     1      36.716  -7.758  17.337  0.00  0.00    +0.000 C 
ATOM     21  O   UNL     1      36.814  -6.369  17.584  0.00  0.00    +0.000 OA
ENDBRANCH  14  21
BRANCH  19  22
ATOM     22  O   UNL     1      38.724  -4.508  17.151  0.00  0.00    +0.000 OA
ATOM     23  C   UNL     1      38.772  -3.697  18.337  0.00  0.00    +0.000 C 
ENDBRANCH  19  22
ENDBRANCH   1  18
BRANCH  11  24
ATOM     24  O   UNL     1      37.159   4.459  15.515  0.00  0.00    +0.000 OA
BRANCH  24  25
ATOM     25  C   UNL     1      38.306   5.158  15.341  0.00  0.00    +0.000 C 
BRANCH  25  26
ATOM     26  C   UNL     1      39.073   5.499  16.546  0.00  0.00    +0.000 A 
ATOM     27  C   UNL     1      38.558   5.363  17.804  0.00  0.00    +0.000 A 
ATOM     28  C   UNL     1      39.321   5.697  18.892  0.00  0.00    +0.000 A 
ATOM     29  C   UNL     1      40.607   6.171  18.728  0.00  0.00    +0.000 A 
ATOM     30  C   UNL     1      41.130   6.309  17.463  0.00  0.00    +0.000 A 
ATOM     31  C   UNL     1      40.347   5.969  16.393  0.00  0.00    +0.000 A 
ENDBRANCH  25  26
ENDBRANCH  24  25
ENDBRANCH  11  24
TORSDOF 6
ENDMDL
MODEL 2
REMARK VINA RESULT:      -7.7     26.708     29.641
REMARK  Name = 
REMARK  6 active torsions:
REMARK  status: ('A' for Active; 'I' for Inactive)
REMARK    1  A    between atoms: O_2  and  C_3
REMARK    2  A    between atoms: C_7  and  C_8
REMARK    3  A    between atoms: C_18  and  O_19
REMARK    4  A    between atoms: O_19  and  C_20
REMARK    5  A    between atoms: C_20  and  C_21
REMARK    6  A    between atoms: C_29  and  O_30
REMARK                            x       y       z     vdW  Elec       q    Type
REMARK                         _______ _______ _______ _____ _____    ______ ____
ROOT
ATOM      1  C   UNL     1      28.185  12.368  41.682  0.00  0.00    +0.000 C 
ATOM      2  N   UNL     1      29.020  11.784  40.519  0.00  0.00    +0.000 NA
ATOM      3  C   UNL     1      29.951  12.885  40.247  0.00  0.00    +0.000 C 
ATOM      4  C   UNL     1      29.262  14.240  40.344  0.00  0.00    +0.000 C 
ATOM      5  C   UNL     1      27.781  14.052  40.111  0.00  0.00    +0.000 A 
ATOM      6  C   UNL     1      27.100  13.076  40.776  0.00  0.00    +0.000 A 
ATOM      7  N   UNL     1      25.878  13.085  40.439  0.00  0.00    +0.000 NA
ATOM      8  C   UNL     1      25.650  14.056  39.535  0.00  0.00    +0.000 A 
ATOM      9  C   UNL     1      24.582  14.549  38.818  0.00  0.00    +0.000 A 
ATOM     10  C   UNL     1      24.754  15.606  37.945  0.00  0.00    +0.000 A 
ATOM     11  C   UNL     1      25.972  16.217  37.740  0.00  0.00    +0.000 A 
ATOM     12  C   UNL     1      27.041  15.729  38.452  0.00  0.00    +0.000 A 
ATOM     13  C   UNL     1      26.858  14.681  39.315  0.00  0.00    +0.000 A 
ENDROOT
BRANCH   1  18
ATOM     14  C   UNL     1      25.910   9.755  43.316  0.00  0.00    +0.000 A 
ATOM     15  C   UNL     1      26.019   8.723  42.393  0.00  0.00    +0.000 A 
ATOM     16  C   UNL     1      26.808   8.893  41.271  0.00  0.00    +0.000 A 
ATOM     17  C   UNL     1      27.479  10.079  41.075  0.00  0.00    +0.000 A 
ATOM     18  C   UNL     1      27.326  11.087  42.051  0.00  0.00    +0.000 A 
ATOM     19  C   UNL     1      26.585  10.951  43.121  0.00  0.00    +0.000 A 
BRANCH  14  21
ATOM     20  C   UNL     1      23.922   8.841  44.357  0.00  0.00    +0.000 C 
ATOM     21  O   UNL     1      25.123   9.585  44.435  0.00  0.00    +0.000 OA
ENDBRANCH  14  21
BRANCH  19  22
ATOM     22  O   UNL     1      26.433  11.919  44.067  0.00  0.00    +0.000 OA
ATOM     23  C   UNL     1      25.330  12.839  44.038  0.00  0.00    +0.000 C 
ENDBRANCH  19  22
ENDBRANCH   1  18
BRANCH  11  24
ATOM     24  O   UNL     1      26.195  17.265  36.888  0.00  0.00    +0.000 OA
BRANCH  24  25
ATOM     25  C   UNL     1      26.777  17.319  35.667  0.00  0.00    +0.000 C 
BRANCH  25  26
ATOM     26  C   UNL     1      26.140  16.557  34.585  0.00  0.00    +0.000 A 
ATOM     27  C   UNL     1      25.297  17.137  33.680  0.00  0.00    +0.000 A 
ATOM     28  C   UNL     1      24.730  16.375  32.692  0.00  0.00    +0.000 A 
ATOM     29  C   UNL     1      25.005  15.026  32.602  0.00  0.00    +0.000 A 
ATOM     30  C   UNL     1      25.854  14.438  33.511  0.00  0.00    +0.000 A 
ATOM     31  C   UNL     1      26.406  15.220  34.489  0.00  0.00    +0.000 A 
ENDBRANCH  25  26
ENDBRANCH  24  25
ENDBRANCH  11  24
TORSDOF 6
ENDMDL
MODEL 3
REMARK VINA RESULT:      -7.5      3.983      6.679
REMARK  Name = 
REMARK  6 active torsions:
REMARK  status: ('A' for Active; 'I' for Inactive)
REMARK    1  A    between atoms: O_2  and  C_3
REMARK    2  A    between atoms: C_7  and  C_8
REMARK    3  A    between atoms: C_18  and  O_19
REMARK    4  A    between atoms: O_19  and  C_20
REMARK    5  A    between atoms: C_20  and  C_21
REMARK    6  A    between atoms: C_29  and  O_30
REMARK                            x       y       z     vdW  Elec       q    Type
REMARK                         _______ _______ _______ _____ _____    ______ ____
ROOT
ATOM      1  C   UNL     1      38.668   3.899  14.485  0.00  0.00    +0.000 C 
ATOM      2  N   UNL     1      38.279   5.243  13.826  0.00  0.00    +0.000 NA
ATOM      3  C   UNL     1      39.589   5.750  13.404  0.00  0.00    +0.000 C 
ATOM      4  C   UNL     1      40.662   5.471  14.448  0.00  0.00    +0.000 C 
ATOM      5  C   UNL     1      40.000   5.304  15.796  0.00  0.00    +0.000 A 
ATOM      6  C   UNL     1      38.919   4.483  15.932  0.00  0.00    +0.000 A 
ATOM      7  N   UNL     1      38.517   4.484  17.134  0.00  0.00    +0.000 NA
ATOM      8  C   UNL     1      39.286   5.294  17.885  0.00  0.00    +0.000 A 
ATOM      9  C   UNL     1      39.357   5.700  19.199  0.00  0.00    +0.000 A 
ATOM     10  C   UNL     1      40.336   6.586  19.606  0.00  0.00    +0.000 A 
ATOM     11  C   UNL     1      41.279   7.106  18.745  0.00  0.00    +0.000 A 
ATOM     12  C   UNL     1      41.213   6.704  17.433  0.00  0.00    +0.000 A 
ATOM     13  C   UNL     1      40.238   5.825  17.042  0.00  0.00    +0.000 A 
ENDROOT
BRANCH   1  18
ATOM     14  C   UNL     1      35.625   1.735  15.343  0.00  0.00    +0.000 A 
ATOM     15  C   UNL     1      34.602   2.636  15.078  0.00  0.00    +0.000 A 
ATOM     16  C   UNL     1      34.910   3.911  14.642  0.00  0.00    +0.000 A 
ATOM     17  C   UNL     1      36.226   4.279  14.473  0.00  0.00    +0.000 A 
ATOM     18  C   UNL     1      37.218   3.317  14.759  0.00  0.00    +0.000 A 
ATOM     19  C   UNL     1      36.951   2.104  15.174  0.00  0.00    +0.000 A 
BRANCH  14  21
ATOM     20  C   UNL     1      34.920   0.245  17.118  0.00  0.00    +0.000 C 
ATOM     21  O   UNL     1      35.316   0.464  15.778  0.00  0.00    +0.000 OA
ENDBRANCH  14  21
BRANCH  19  22
ATOM     22  O   UNL     1      37.903   1.170  15.450  0.00  0.00    +0.000 OA
ATOM     23  C   UNL     1      38.422   0.295  14.435  0.00  0.00    +0.000 C 
ENDBRANCH  19  22
ENDBRANCH   1  18
BRANCH  11  24
ATOM     24  O   UNL     1      42.267   7.985  19.096  0.00  0.00    +0.000 OA
BRANCH  24  25
ATOM     25  C   UNL     1      42.953   8.149  20.252  0.00  0.00    +0.000 C 
BRANCH  25  26
ATOM     26  C   UNL     1      43.837   7.053  20.670  0.00  0.00    +0.000 A 
ATOM     27  C   UNL     1      43.537   6.233  21.721  0.00  0.00    +0.000 A 
ATOM     28  C   UNL     1      44.401   5.226  22.066  0.00  0.00    +0.000 A 
ATOM     29  C   UNL     1      45.571   5.033  21.361  0.00  0.00    +0.000 A 
ATOM     30  C   UNL     1      45.876   5.857  20.302  0.00  0.00    +0.000 A 
ATOM     31  C   UNL     1      44.998   6.855  19.977  0.00  0.00    +0.000 A 
ENDBRANCH  25  26
ENDBRANCH  24  25
ENDBRANCH  11  24
TORSDOF 6
ENDMDL
MODEL 4
REMARK VINA RESULT:      -7.5      2.953      9.421
REMARK  Name = 
REMARK  6 active torsions:
REMARK  status: ('A' for Active; 'I' for Inactive)
REMARK    1  A    between atoms: O_2  and  C_3
REMARK    2  A    between atoms: C_7  and  C_8
REMARK    3  A    between atoms: C_18  and  O_19
REMARK    4  A    between atoms: O_19  and  C_20
REMARK    5  A    between atoms: C_20  and  C_21
REMARK    6  A    between atoms: C_29  and  O_30
REMARK                            x       y       z     vdW  Elec       q    Type
REMARK                         _______ _______ _______ _____ _____    ______ ____
ROOT
ATOM      1  C   UNL     1      39.029   6.283  16.102  0.00  0.00    +0.000 C 
ATOM      2  N   UNL     1      40.422   5.619  16.005  0.00  0.00    +0.000 NA
ATOM      3  C   UNL     1      40.511   5.338  14.568  0.00  0.00    +0.000 C 
ATOM      4  C   UNL     1      39.179   4.856  14.007  0.00  0.00    +0.000 C 
ATOM      5  C   UNL     1      38.362   4.264  15.131  0.00  0.00    +0.000 A 
ATOM      6  C   UNL     1      38.214   4.944  16.304  0.00  0.00    +0.000 A 
ATOM      7  N   UNL     1      37.498   4.277  17.110  0.00  0.00    +0.000 NA
ATOM      8  C   UNL     1      37.116   3.116  16.547  0.00  0.00    +0.000 A 
ATOM      9  C   UNL     1      36.367   2.014  16.894  0.00  0.00    +0.000 A 
ATOM     10  C   UNL     1      36.197   0.973  16.001  0.00  0.00    +0.000 A 
ATOM     11  C   UNL     1      36.753   0.972  14.740  0.00  0.00    +0.000 A 
ATOM     12  C   UNL     1      37.502   2.068  14.388  0.00  0.00    +0.000 A 
ATOM     13  C   UNL     1      37.662   3.094  15.282  0.00  0.00    +0.000 A 
ENDROOT
BRANCH   1  18
ATOM     14  C   UNL     1      38.474   7.942  19.510  0.00  0.00    +0.000 A 
ATOM     15  C   UNL     1      39.412   7.257  20.272  0.00  0.00    +0.000 A 
ATOM     16  C   UNL     1      40.189   6.280  19.680  0.00  0.00    +0.000 A 
ATOM     17  C   UNL     1      40.030   5.991  18.343  0.00  0.00    +0.000 A 
ATOM     18  C   UNL     1      39.059   6.724  17.626  0.00  0.00    +0.000 A 
ATOM     19  C   UNL     1      38.312   7.653  18.164  0.00  0.00    +0.000 A 
BRANCH  14  21
ATOM     20  C   UNL     1      38.300   9.922  20.897  0.00  0.00    +0.000 C 
ATOM     21  O   UNL     1      37.700   8.917  20.102  0.00  0.00    +0.000 OA
ENDBRANCH  14  21
BRANCH  19  22
ATOM     22  O   UNL     1      37.374   8.365  17.478  0.00  0.00    +0.000 OA
ATOM     23  C   UNL     1      37.722   9.526  16.706  0.00  0.00    +0.000 C 
ENDBRANCH  19  22
ENDBRANCH   1  18
BRANCH  11  24
ATOM     24  O   UNL     1      36.616  -0.032  13.820  0.00  0.00    +0.000 OA
BRANCH  24  25
ATOM     25  C   UNL     1      37.470  -1.002  13.416  0.00  0.00    +0.000 C 
BRANCH  25  26
ATOM     26  C   UNL     1      38.017  -1.888  14.452  0.00  0.00    +0.000 A 
ATOM     27  C   UNL     1      37.231  -2.739  15.176  0.00  0.00    +0.000 A 
ATOM     28  C   UNL     1      37.797  -3.543  16.131  0.00  0.00    +0.000 A 
ATOM     29  C   UNL     1      39.156  -3.500  16.367  0.00  0.00    +0.000 A 
ATOM     30  C   UNL     1      39.951  -2.644  15.641  0.00  0.00    +0.000 A 
ATOM     31  C   UNL     1      39.362  -1.852  14.694  0.00  0.00    +0.000 A 
ENDBRANCH  25  26
ENDBRANCH  24  25
ENDBRANCH  11  24
TORSDOF 6
ENDMDL
MODEL 5
REMARK VINA RESULT:      -7.5      2.556      8.877
REMARK  Name = 
REMARK  6 active torsions:
REMARK  status: ('A' for Active; 'I' for Inactive)
REMARK    1  A    between atoms: O_2  and  C_3
REMARK    2  A    between atoms: C_7  and  C_8
REMARK    3  A    between atoms: C_18  and  O_19
REMARK    4  A    between atoms: O_19  and  C_20
REMARK    5  A    between atoms: C_20  and  C_21
REMARK    6  A    between atoms: C_29  and  O_30
REMARK                            x       y       z     vdW  Elec       q    Type
REMARK                         _______ _______ _______ _____ _____    ______ ____
ROOT
ATOM      1  C   UNL     1      37.982   4.639  15.257  0.00  0.00    +0.000 C 
ATOM      2  N   UNL     1      39.366   3.965  15.104  0.00  0.00    +0.000 NA
ATOM      3  C   UNL     1      39.217   3.287  13.811  0.00  0.00    +0.000 C 
ATOM      4  C   UNL     1      37.831   2.675  13.654  0.00  0.00    +0.000 C 
ATOM      5  C   UNL     1      37.247   2.432  15.025  0.00  0.00    +0.000 A 
ATOM      6  C   UNL     1      37.273   3.418  15.967  0.00  0.00    +0.000 A 
ATOM      7  N   UNL     1      36.737   3.012  17.042  0.00  0.00    +0.000 NA
ATOM      8  C   UNL     1      36.315   1.741  16.904  0.00  0.00    +0.000 A 
ATOM      9  C   UNL     1      35.685   0.788  17.673  0.00  0.00    +0.000 A 
ATOM     10  C   UNL     1      35.410  -0.462  17.153  0.00  0.00    +0.000 A 
ATOM     11  C   UNL     1      35.739  -0.825  15.865  0.00  0.00    +0.000 A 
ATOM     12  C   UNL     1      36.368   0.122  15.092  0.00  0.00    +0.000 A 
ATOM     13  C   UNL     1      36.635   1.358  15.620  0.00  0.00    +0.000 A 
ENDROOT
BRANCH   1  18
ATOM     14  C   UNL     1      38.248   7.363  17.938  0.00  0.00    +0.000 A 
ATOM     15  C   UNL     1      38.929   6.667  18.928  0.00  0.00    +0.000 A 
ATOM     16  C   UNL     1      39.277   5.346  18.717  0.00  0.00    +0.000 A 
ATOM     17  C   UNL     1      38.947   4.730  17.531  0.00  0.00    +0.000 A 
ATOM     18  C   UNL     1      38.255   5.493  16.566  0.00  0.00    +0.000 A 
ATOM     19  C   UNL     1      37.915   6.745  16.742  0.00  0.00    +0.000 A 
BRANCH  14  21
ATOM     20  C   UNL     1      36.806   9.006  18.983  0.00  0.00    +0.000 C 
ATOM     21  O   UNL     1      37.901   8.681  18.149  0.00  0.00    +0.000 OA
ENDBRANCH  14  21
BRANCH  19  22
ATOM     22  O   UNL     1      37.248   7.487  15.815  0.00  0.00    +0.000 OA
ATOM     23  C   UNL     1      37.936   8.153  14.743  0.00  0.00    +0.000 C 
ENDBRANCH  19  22
ENDBRANCH   1  18
BRANCH  11  24
ATOM     24  O   UNL     1      35.490  -2.047  15.302  0.00  0.00    +0.000 OA
BRANCH  24  25
ATOM     25  C   UNL     1      36.235  -3.175  15.242  0.00  0.00    +0.000 C 
BRANCH  25  26
ATOM     26  C   UNL     1      37.669  -3.019  14.965  0.00  0.00    +0.000 A 
ATOM     27  C   UNL     1      38.612  -3.055  15.952  0.00  0.00    +0.000 A 
ATOM     28  C   UNL     1      39.937  -2.903  15.635  0.00  0.00    +0.000 A 
ATOM     29  C   UNL     1      40.327  -2.715  14.324  0.00  0.00    +0.000 A 
ATOM     30  C   UNL     1      39.380  -2.679  13.327  0.00  0.00    +0.000 A 
ATOM     31  C   UNL     1      38.064  -2.832  13.670  0.00  0.00    +0.000 A 
ENDBRANCH  25  26
ENDBRANCH  24  25
ENDBRANCH  11  24
TORSDOF 6
ENDMDL
MODEL 6
REMARK VINA RESULT:      -7.3      2.828      5.305
REMARK  Name = 
REMARK  6 active torsions:
REMARK  status: ('A' for Active; 'I' for Inactive)
REMARK    1  A    between atoms: O_2  and  C_3
REMARK    2  A    between atoms: C_7  and  C_8
REMARK    3  A    between atoms: C_18  and  O_19
REMARK    4  A    between atoms: O_19  and  C_20
REMARK    5  A    between atoms: C_20  and  C_21
REMARK    6  A    between atoms: C_29  and  O_30
REMARK                            x       y       z     vdW  Elec       q    Type
REMARK                         _______ _______ _______ _____ _____    ______ ____
ROOT
ATOM      1  C   UNL     1      36.691   3.072  14.643  0.00  0.00    +0.000 C 
ATOM      2  N   UNL     1      35.376   3.878  14.755  0.00  0.00    +0.000 NA
ATOM      3  C   UNL     1      35.699   5.073  13.967  0.00  0.00    +0.000 C 
ATOM      4  C   UNL     1      37.130   5.535  14.211  0.00  0.00    +0.000 C 
ATOM      5  C   UNL     1      37.583   5.028  15.560  0.00  0.00    +0.000 A 
ATOM      6  C   UNL     1      37.398   3.721  15.899  0.00  0.00    +0.000 A 
ATOM      7  N   UNL     1      37.845   3.502  17.066  0.00  0.00    +0.000 NA
ATOM      8  C   UNL     1      38.357   4.630  17.589  0.00  0.00    +0.000 A 
ATOM      9  C   UNL     1      38.963   5.026  18.762  0.00  0.00    +0.000 A 
ATOM     10  C   UNL     1      39.369   6.335  18.933  0.00  0.00    +0.000 A 
ATOM     11  C   UNL     1      39.198   7.304  17.968  0.00  0.00    +0.000 A 
ATOM     12  C   UNL     1      38.594   6.916  16.796  0.00  0.00    +0.000 A 
ATOM     13  C   UNL     1      38.197   5.614  16.638  0.00  0.00    +0.000 A 
ENDROOT
BRANCH   1  18
ATOM     14  C   UNL     1      36.206  -0.544  15.814  0.00  0.00    +0.000 A 
ATOM     15  C   UNL     1      35.160  -0.372  16.712  0.00  0.00    +0.000 A 
ATOM     16  C   UNL     1      34.644   0.892  16.925  0.00  0.00    +0.000 A 
ATOM     17  C   UNL     1      35.168   1.971  16.250  0.00  0.00    +0.000 A 
ATOM     18  C   UNL     1      36.230   1.729  15.351  0.00  0.00    +0.000 A 
ATOM     19  C   UNL     1      36.736   0.542  15.132  0.00  0.00    +0.000 A 
BRANCH  14  21
ATOM     20  C   UNL     1      35.907  -2.824  15.054  0.00  0.00    +0.000 C 
ATOM     21  O   UNL     1      36.720  -1.805  15.603  0.00  0.00    +0.000 OA
ENDBRANCH  14  21
BRANCH  19  22
ATOM     22  O   UNL     1      37.759   0.301  14.267  0.00  0.00    +0.000 OA
ATOM     23  C   UNL     1      39.134   0.397  14.676  0.00  0.00    +0.000 C 
ENDBRANCH  19  22
ENDBRANCH   1  18
BRANCH  11  24
ATOM     24  O   UNL     1      39.581   8.612  18.087  0.00  0.00    +0.000 OA
BRANCH  24  25
ATOM     25  C   UNL     1      40.805   9.183  18.184  0.00  0.00    +0.000 C 
BRANCH  25  26
ATOM     26  C   UNL     1      41.865   8.395  18.826  0.00  0.00    +0.000 A 
ATOM     27  C   UNL     1      42.050   8.384  20.180  0.00  0.00    +0.000 A 
ATOM     28  C   UNL     1      43.057   7.630  20.723  0.00  0.00    +0.000 A 
ATOM     29  C   UNL     1      43.886   6.879  19.914  0.00  0.00    +0.000 A 
ATOM     30  C   UNL     1      43.703   6.887  18.551  0.00  0.00    +0.000 A 
ATOM     31  C   UNL     1      42.690   7.650  18.033  0.00  0.00    +0.000 A 
ENDBRANCH  25  26
ENDBRANCH  24  25
ENDBRANCH  11  24
TORSDOF 6
ENDMDL
MODEL 7
REMARK VINA RESULT:      -7.3      3.329      5.564
REMARK  Name = 
REMARK  6 active torsions:
REMARK  status: ('A' for Active; 'I' for Inactive)
REMARK    1  A    between atoms: O_2  and  C_3
REMARK    2  A    between atoms: C_7  and  C_8
REMARK    3  A    between atoms: C_18  and  O_19
REMARK    4  A    between atoms: O_19  and  C_20
REMARK    5  A    between atoms: C_20  and  C_21
REMARK    6  A    between atoms: C_29  and  O_30
REMARK                            x       y       z     vdW  Elec       q    Type
REMARK                         _______ _______ _______ _____ _____    ______ ____
ROOT
ATOM      1  C   UNL     1      36.742   2.773  14.825  0.00  0.00    +0.000 C 
ATOM      2  N   UNL     1      35.390   3.521  14.885  0.00  0.00    +0.000 NA
ATOM      3  C   UNL     1      35.631   4.633  13.958  0.00  0.00    +0.000 C 
ATOM      4  C   UNL     1      37.041   5.190  14.105  0.00  0.00    +0.000 C 
ATOM      5  C   UNL     1      37.554   4.863  15.487  0.00  0.00    +0.000 A 
ATOM      6  C   UNL     1      37.445   3.595  15.977  0.00  0.00    +0.000 A 
ATOM      7  N   UNL     1      37.932   3.533  17.147  0.00  0.00    +0.000 NA
ATOM      8  C   UNL     1      38.398   4.738  17.524  0.00  0.00    +0.000 A 
ATOM      9  C   UNL     1      39.011   5.293  18.625  0.00  0.00    +0.000 A 
ATOM     10  C   UNL     1      39.352   6.632  18.636  0.00  0.00    +0.000 A 
ATOM     11  C   UNL     1      39.107   7.474  17.573  0.00  0.00    +0.000 A 
ATOM     12  C   UNL     1      38.495   6.926  16.471  0.00  0.00    +0.000 A 
ATOM     13  C   UNL     1      38.162   5.597  16.473  0.00  0.00    +0.000 A 
ENDROOT
BRANCH   1  18
ATOM     14  C   UNL     1      36.641  -0.612  16.616  0.00  0.00    +0.000 A 
ATOM     15  C   UNL     1      35.393  -0.531  17.222  0.00  0.00    +0.000 A 
ATOM     16  C   UNL     1      34.624   0.603  17.050  0.00  0.00    +0.000 A 
ATOM     17  C   UNL     1      35.096   1.644  16.282  0.00  0.00    +0.000 A 
ATOM     18  C   UNL     1      36.370   1.498  15.693  0.00  0.00    +0.000 A 
ATOM     19  C   UNL     1      37.118   0.434  15.841  0.00  0.00    +0.000 A 
BRANCH  14  21
ATOM     20  C   UNL     1      38.064  -1.982  18.018  0.00  0.00    +0.000 C 
ATOM     21  O   UNL     1      37.408  -1.745  16.788  0.00  0.00    +0.000 OA
ENDBRANCH  14  21
BRANCH  19  22
ATOM     22  O   UNL     1      38.348   0.287  15.276  0.00  0.00    +0.000 OA
ATOM     23  C   UNL     1      38.514  -0.262  13.958  0.00  0.00    +0.000 C 
ENDBRANCH  19  22
ENDBRANCH   1  18
BRANCH  11  24
ATOM     24  O   UNL     1      39.423   8.805  17.533  0.00  0.00    +0.000 OA
BRANCH  24  25
ATOM     25  C   UNL     1      38.732   9.904  17.916  0.00  0.00    +0.000 C 
BRANCH  25  26
ATOM     26  C   UNL     1      37.364  10.050  17.401  0.00  0.00    +0.000 A 
ATOM     27  C   UNL     1      36.267   9.669  18.121  0.00  0.00    +0.000 A 
ATOM     28  C   UNL     1      35.014   9.829  17.589  0.00  0.00    +0.000 A 
ATOM     29  C   UNL     1      34.851  10.372  16.331  0.00  0.00    +0.000 A 
ATOM     30  C   UNL     1      35.953  10.757  15.603  0.00  0.00    +0.000 A 
ATOM     31  C   UNL     1      37.193  10.587  16.156  0.00  0.00    +0.000 A 
ENDBRANCH  25  26
ENDBRANCH  24  25
ENDBRANCH  11  24
TORSDOF 6
ENDMDL
MODEL 8
REMARK VINA RESULT:      -7.3     25.140     28.099
REMARK  Name = 
REMARK  6 active torsions:
REMARK  status: ('A' for Active; 'I' for Inactive)
REMARK    1  A    between atoms: O_2  and  C_3
REMARK    2  A    between atoms: C_7  and  C_8
REMARK    3  A    between atoms: C_18  and  O_19
REMARK    4  A    between atoms: O_19  and  C_20
REMARK    5  A    between atoms: C_20  and  C_21
REMARK    6  A    between atoms: C_29  and  O_30
REMARK                            x       y       z     vdW  Elec       q    Type
REMARK                         _______ _______ _______ _____ _____    ______ ____
ROOT
ATOM      1  C   UNL     1      24.816  16.814  33.707  0.00  0.00    +0.000 C 
ATOM      2  N   UNL     1      25.074  16.128  32.346  0.00  0.00    +0.000 NA
ATOM      3  C   UNL     1      25.274  14.734  32.756  0.00  0.00    +0.000 C 
ATOM      4  C   UNL     1      26.082  14.639  34.044  0.00  0.00    +0.000 C 
ATOM      5  C   UNL     1      26.909  15.894  34.195  0.00  0.00    +0.000 A 
ATOM      6  C   UNL     1      26.332  17.119  34.036  0.00  0.00    +0.000 A 
ATOM      7  N   UNL     1      27.193  18.035  34.202  0.00  0.00    +0.000 NA
ATOM      8  C   UNL     1      28.395  17.501  34.483  0.00  0.00    +0.000 A 
ATOM      9  C   UNL     1      29.670  17.947  34.754  0.00  0.00    +0.000 A 
ATOM     10  C   UNL     1      30.689  17.048  35.002  0.00  0.00    +0.000 A 
ATOM     11  C   UNL     1      30.500  15.683  34.995  0.00  0.00    +0.000 A 
ATOM     12  C   UNL     1      29.231  15.231  34.726  0.00  0.00    +0.000 A 
ATOM     13  C   UNL     1      28.229  16.133  34.481  0.00  0.00    +0.000 A 
ENDROOT
BRANCH   1  18
ATOM     14  C   UNL     1      23.727  20.470  33.350  0.00  0.00    +0.000 A 
ATOM     15  C   UNL     1      23.798  20.613  31.970  0.00  0.00    +0.000 A 
ATOM     16  C   UNL     1      24.199  19.543  31.193  0.00  0.00    +0.000 A 
ATOM     17  C   UNL     1      24.525  18.346  31.789  0.00  0.00    +0.000 A 
ATOM     18  C   UNL     1      24.432  18.266  33.195  0.00  0.00    +0.000 A 
ATOM     19  C   UNL     1      24.055  19.265  33.952  0.00  0.00    +0.000 A 
BRANCH  14  21
ATOM     20  C   UNL     1      22.808  22.705  33.517  0.00  0.00    +0.000 C 
ATOM     21  O   UNL     1      23.326  21.538  34.124  0.00  0.00    +0.000 OA
ENDBRANCH  14  21
BRANCH  19  22
ATOM     22  O   UNL     1      23.962  19.195  35.309  0.00  0.00    +0.000 OA
ATOM     23  C   UNL     1      24.974  19.747  36.166  0.00  0.00    +0.000 C 
ENDBRANCH  19  22
ENDBRANCH   1  18
BRANCH  11  24
ATOM     24  O   UNL     1      31.473  14.751  35.234  0.00  0.00    +0.000 OA
BRANCH  24  25
ATOM     25  C   UNL     1      31.400  13.428  35.512  0.00  0.00    +0.000 C 
BRANCH  25  26
ATOM     26  C   UNL     1      32.268  12.917  36.581  0.00  0.00    +0.000 A 
ATOM     27  C   UNL     1      33.631  12.979  36.507  0.00  0.00    +0.000 A 
ATOM     28  C   UNL     1      34.391  12.485  37.535  0.00  0.00    +0.000 A 
ATOM     29  C   UNL     1      33.791  11.926  38.645  0.00  0.00    +0.000 A 
ATOM     30  C   UNL     1      32.419  11.862  38.723  0.00  0.00    +0.000 A 
ATOM     31  C   UNL     1      31.683  12.362  37.683  0.00  0.00    +0.000 A 
ENDBRANCH  25  26
ENDBRANCH  24  25
ENDBRANCH  11  24
TORSDOF 6
ENDMDL
MODEL 9
REMARK VINA RESULT:      -7.1      3.336      5.547
REMARK  Name = 
REMARK  6 active torsions:
REMARK  status: ('A' for Active; 'I' for Inactive)
REMARK    1  A    between atoms: O_2  and  C_3
REMARK    2  A    between atoms: C_7  and  C_8
REMARK    3  A    between atoms: C_18  and  O_19
REMARK    4  A    between atoms: O_19  and  C_20
REMARK    5  A    between atoms: C_20  and  C_21
REMARK    6  A    between atoms: C_29  and  O_30
REMARK                            x       y       z     vdW  Elec       q    Type
REMARK                         _______ _______ _______ _____ _____    ______ ____
ROOT
ATOM      1  C   UNL     1      36.756   2.755  14.803  0.00  0.00    +0.000 C 
ATOM      2  N   UNL     1      35.415   3.526  14.843  0.00  0.00    +0.000 NA
ATOM      3  C   UNL     1      35.681   4.620  13.902  0.00  0.00    +0.000 C 
ATOM      4  C   UNL     1      37.099   5.156  14.051  0.00  0.00    +0.000 C 
ATOM      5  C   UNL     1      37.597   4.841  15.441  0.00  0.00    +0.000 A 
ATOM      6  C   UNL     1      37.464   3.582  15.949  0.00  0.00    +0.000 A 
ATOM      7  N   UNL     1      37.942   3.529  17.122  0.00  0.00    +0.000 NA
ATOM      8  C   UNL     1      38.424   4.731  17.485  0.00  0.00    +0.000 A 
ATOM      9  C   UNL     1      39.039   5.293  18.583  0.00  0.00    +0.000 A 
ATOM     10  C   UNL     1      39.401   6.626  18.577  0.00  0.00    +0.000 A 
ATOM     11  C   UNL     1      39.177   7.457  17.500  0.00  0.00    +0.000 A 
ATOM     12  C   UNL     1      38.564   6.903  16.402  0.00  0.00    +0.000 A 
ATOM     13  C   UNL     1      38.210   5.580  16.421  0.00  0.00    +0.000 A 
ENDROOT
BRANCH   1  18
ATOM     14  C   UNL     1      36.595  -0.595  16.654  0.00  0.00    +0.000 A 
ATOM     15  C   UNL     1      35.335  -0.495  17.232  0.00  0.00    +0.000 A 
ATOM     16  C   UNL     1      34.576   0.640  17.021  0.00  0.00    +0.000 A 
ATOM     17  C   UNL     1      35.071   1.663  16.244  0.00  0.00    +0.000 A 
ATOM     18  C   UNL     1      36.357   1.499  15.687  0.00  0.00    +0.000 A 
ATOM     19  C   UNL     1      37.095   0.434  15.871  0.00  0.00    +0.000 A 
BRANCH  14  21
ATOM     20  C   UNL     1      36.920  -2.978  16.362  0.00  0.00    +0.000 C 
ATOM     21  O   UNL     1      37.351  -1.728  16.865  0.00  0.00    +0.000 OA
ENDBRANCH  14  21
BRANCH  19  22
ATOM     22  O   UNL     1      38.337   0.269  15.336  0.00  0.00    +0.000 OA
ATOM     23  C   UNL     1      38.530  -0.333  14.045  0.00  0.00    +0.000 C 
ENDBRANCH  19  22
ENDBRANCH   1  18
BRANCH  11  24
ATOM     24  O   UNL     1      39.516   8.782  17.443  0.00  0.00    +0.000 OA
BRANCH  24  25
ATOM     25  C   UNL     1      40.293   9.544  18.248  0.00  0.00    +0.000 C 
BRANCH  25  26
ATOM     26  C   UNL     1      39.609  10.434  19.196  0.00  0.00    +0.000 A 
ATOM     27  C   UNL     1      39.335  10.060  20.481  0.00  0.00    +0.000 A 
ATOM     28  C   UNL     1      38.693  10.931  21.322  0.00  0.00    +0.000 A 
ATOM     29  C   UNL     1      38.321  12.185  20.881  0.00  0.00    +0.000 A 
ATOM     30  C   UNL     1      38.595  12.565  19.588  0.00  0.00    +0.000 A 
ATOM     31  C   UNL     1      39.236  11.676  18.768  0.00  0.00    +0.000 A 
ENDBRANCH  25  26
ENDBRANCH  24  25
ENDBRANCH  11  24
TORSDOF 6
ENDMDL
MODEL 10
REMARK VINA RESULT:      -7.0      3.166      9.173
REMARK  Name = 
REMARK  6 active torsions:
REMARK  status: ('A' for Active; 'I' for Inactive)
REMARK    1  A    between atoms: O_2  and  C_3
REMARK    2  A    between atoms: C_7  and  C_8
REMARK    3  A    between atoms: C_18  and  O_19
REMARK    4  A    between atoms: O_19  and  C_20
REMARK    5  A    between atoms: C_20  and  C_21
REMARK    6  A    between atoms: C_29  and  O_30
REMARK                            x       y       z     vdW  Elec       q    Type
REMARK                         _______ _______ _______ _____ _____    ______ ____
ROOT
ATOM      1  C   UNL     1      36.647   4.676  13.145  0.00  0.00    +0.000 C 
ATOM      2  N   UNL     1      38.151   4.460  13.430  0.00  0.00    +0.000 NA
ATOM      3  C   UNL     1      38.452   3.321  12.555  0.00  0.00    +0.000 C 
ATOM      4  C   UNL     1      37.321   2.300  12.554  0.00  0.00    +0.000 C 
ATOM      5  C   UNL     1      36.531   2.445  13.833  0.00  0.00    +0.000 A 
ATOM      6  C   UNL     1      36.116   3.677  14.248  0.00  0.00    +0.000 A 
ATOM      7  N   UNL     1      35.475   3.580  15.337  0.00  0.00    +0.000 NA
ATOM      8  C   UNL     1      35.410   2.294  15.730  0.00  0.00    +0.000 A 
ATOM      9  C   UNL     1      34.878   1.574  16.776  0.00  0.00    +0.000 A 
ATOM     10  C   UNL     1      35.029   0.202  16.831  0.00  0.00    +0.000 A 
ATOM     11  C   UNL     1      35.705  -0.514  15.868  0.00  0.00    +0.000 A 
ATOM     12  C   UNL     1      36.240   0.198  14.821  0.00  0.00    +0.000 A 
ATOM     13  C   UNL     1      36.082   1.558  14.778  0.00  0.00    +0.000 A 
ENDROOT
BRANCH   1  18
ATOM     14  C   UNL     1      35.314   7.927  14.673  0.00  0.00    +0.000 A 
ATOM     15  C   UNL     1      36.385   8.272  15.487  0.00  0.00    +0.000 A 
ATOM     16  C   UNL     1      37.499   7.455  15.532  0.00  0.00    +0.000 A 
ATOM     17  C   UNL     1      37.540   6.307  14.773  0.00  0.00    +0.000 A 
ATOM     18  C   UNL     1      36.419   6.014  13.967  0.00  0.00    +0.000 A 
ATOM     19  C   UNL     1      35.353   6.771  13.908  0.00  0.00    +0.000 A 
BRANCH  14  21
ATOM     20  C   UNL     1      33.626   9.228  15.825  0.00  0.00    +0.000 C 
ATOM     21  O   UNL     1      34.203   8.743  14.629  0.00  0.00    +0.000 OA
ENDBRANCH  14  21
BRANCH  19  22
ATOM     22  O   UNL     1      34.268   6.494  13.132  0.00  0.00    +0.000 OA
ATOM     23  C   UNL     1      34.157   6.983  11.785  0.00  0.00    +0.000 C 
ENDBRANCH  19  22
ENDBRANCH   1  18
BRANCH  11  24
ATOM     24  O   UNL     1      35.884  -1.871  15.875  0.00  0.00    +0.000 OA
BRANCH  24  25
ATOM     25  C   UNL     1      36.371  -2.717  14.936  0.00  0.00    +0.000 C 
BRANCH  25  26
ATOM     26  C   UNL     1      37.826  -2.736  14.739  0.00  0.00    +0.000 A 
ATOM     27  C   UNL     1      38.703  -2.858  15.779  0.00  0.00    +0.000 A 
ATOM     28  C   UNL     1      40.052  -2.868  15.535  0.00  0.00    +0.000 A 
ATOM     29  C   UNL     1      40.532  -2.757  14.246  0.00  0.00    +0.000 A 
ATOM     30  C   UNL     1      39.652  -2.634  13.196  0.00  0.00    +0.000 A 
ATOM     31  C   UNL     1      38.310  -2.626  13.466  0.00  0.00    +0.000 A 
ENDBRANCH  25  26
ENDBRANCH  24  25
ENDBRANCH  11  24
TORSDOF 6
ENDMDL
