MODEL 1
REMARK VINA RESULT:      -8.2      0.000      0.000
REMARK  Name = 
REMARK  7 active torsions:
REMARK  status: ('A' for Active; 'I' for Inactive)
REMARK    1  A    between atoms: C_2  and  O_3
REMARK    2  A    between atoms: O_3  and  C_4
REMARK    3  A    between atoms: C_4  and  C_6
REMARK    4  A    between atoms: C_7  and  N_8
REMARK    5  A    between atoms: C_9  and  C_11
REMARK    6  A    between atoms: C_11  and  C_13
REMARK    7  A    between atoms: C_11  and  C_19
REMARK                            x       y       z     vdW  Elec       q    Type
REMARK                         _______ _______ _______ _____ _____    ______ ____
ROOT
ATOM      1  N   UNL     1      36.759   1.610  16.248  0.00  0.00    +0.000 NA
ATOM      2  C   UNL     1      36.861   0.427  15.444  0.00  0.00    +0.000 C 
ATOM      3  O   UNL     1      36.649   0.494  14.226  0.00  0.00    +0.000 OA
ENDROOT
BRANCH   1   5
ATOM      4  C   UNL     1      37.235   3.886  15.230  0.00  0.00    +0.000 A 
ATOM      5  C   UNL     1      36.406   2.848  15.584  0.00  0.00    +0.000 A 
ATOM      6  S   UNL     1      34.873   3.372  15.054  0.00  0.00    +0.000 S 
ATOM      7  C   UNL     1      35.309   4.875  14.404  0.00  0.00    +0.000 A 
ATOM      8  C   UNL     1      36.647   4.939  14.613  0.00  0.00    +0.000 A 
ATOM      9  C   UNL     1      37.312   6.213  14.113  0.00  0.00    +0.000 C 
ATOM     10  C   UNL     1      36.556   6.549  12.829  0.00  0.00    +0.000 C 
ATOM     11  C   UNL     1      37.245   7.670  12.125  0.00  0.00    +0.000 C 
ATOM     12  C   UNL     1      36.469   5.323  11.952  0.00  0.00    +0.000 C 
ATOM     13  O   UNL     1      35.296   6.973  13.246  0.00  0.00    +0.000 OA
ATOM     14  C   UNL     1      34.516   5.961  13.734  0.00  0.00    +0.000 C 
BRANCH   4  15
ATOM     15  C   UNL     1      38.691   3.794  15.537  0.00  0.00    +0.000 C 
ATOM     16  O   UNL     1      39.468   3.172  14.776  0.00  0.00    +0.000 OA
BRANCH  15  17
ATOM     17  O   UNL     1      39.241   4.382  16.657  0.00  0.00    +0.000 OA
BRANCH  17  19
ATOM     18  C   UNL     1      39.320   5.569  18.775  0.00  0.00    +0.000 C 
ATOM     19  C   UNL     1      38.497   4.798  17.770  0.00  0.00    +0.000 C 
ENDBRANCH  17  19
ENDBRANCH  15  17
ENDBRANCH   4  15
ENDBRANCH   1   5
BRANCH   2  20
ATOM     20  C   UNL     1      37.215  -0.863  16.055  0.00  0.00    +0.000 C 
ATOM     21  O   UNL     1      37.287  -0.712  17.449  0.00  0.00    +0.000 OA
BRANCH  20  22
ATOM     22  C   UNL     1      36.211  -1.928  15.794  0.00  0.00    +0.000 A 
ATOM     23  C   UNL     1      36.317  -2.834  14.762  0.00  0.00    +0.000 A 
ATOM     24  C   UNL     1      35.360  -3.818  14.544  0.00  0.00    +0.000 A 
ATOM     25  C   UNL     1      34.264  -3.886  15.396  0.00  0.00    +0.000 A 
ATOM     26  C   UNL     1      34.136  -2.996  16.433  0.00  0.00    +0.000 A 
ATOM     27  C   UNL     1      35.096  -2.029  16.630  0.00  0.00    +0.000 A 
ENDBRANCH  20  22
BRANCH  20  28
ATOM     28  C   UNL     1      38.582  -1.285  15.598  0.00  0.00    +0.000 A 
ATOM     29  C   UNL     1      39.332  -0.439  14.850  0.00  0.00    +0.000 A 
ATOM     30  C   UNL     1      40.584  -0.815  14.424  0.00  0.00    +0.000 A 
ATOM     31  C   UNL     1      41.116  -2.068  14.746  0.00  0.00    +0.000 A 
ATOM     32  C   UNL     1      40.318  -2.896  15.509  0.00  0.00    +0.000 A 
ATOM     33  C   UNL     1      39.067  -2.524  15.937  0.00  0.00    +0.000 A 
ENDBRANCH  20  28
ENDBRANCH   2  20
TORSDOF 7
ENDMDL
MODEL 2
REMARK VINA RESULT:      -8.2      2.389      7.731
REMARK  Name = 
REMARK  7 active torsions:
REMARK  status: ('A' for Active; 'I' for Inactive)
REMARK    1  A    between atoms: C_2  and  O_3
REMARK    2  A    between atoms: O_3  and  C_4
REMARK    3  A    between atoms: C_4  and  C_6
REMARK    4  A    between atoms: C_7  and  N_8
REMARK    5  A    between atoms: C_9  and  C_11
REMARK    6  A    between atoms: C_11  and  C_13
REMARK    7  A    between atoms: C_11  and  C_19
REMARK                            x       y       z     vdW  Elec       q    Type
REMARK                         _______ _______ _______ _____ _____    ______ ____
ROOT
ATOM      1  N   UNL     1      37.030   3.672  15.709  0.00  0.00    +0.000 NA
ATOM      2  C   UNL     1      37.844   4.249  16.739  0.00  0.00    +0.000 C 
ATOM      3  O   UNL     1      38.065   3.608  17.775  0.00  0.00    +0.000 OA
ENDROOT
BRANCH   1   5
ATOM      4  C   UNL     1      36.968   1.149  15.449  0.00  0.00    +0.000 A 
ATOM      5  C   UNL     1      36.496   2.344  15.934  0.00  0.00    +0.000 A 
ATOM      6  S   UNL     1      35.140   1.885  16.860  0.00  0.00    +0.000 S 
ATOM      7  C   UNL     1      35.199   0.210  16.615  0.00  0.00    +0.000 A 
ATOM      8  C   UNL     1      36.279   0.040  15.814  0.00  0.00    +0.000 A 
ATOM      9  C   UNL     1      36.571  -1.404  15.432  0.00  0.00    +0.000 C 
ATOM     10  C   UNL     1      36.208  -2.201  16.683  0.00  0.00    +0.000 C 
ATOM     11  C   UNL     1      36.642  -3.619  16.512  0.00  0.00    +0.000 C 
ATOM     12  C   UNL     1      36.855  -1.573  17.894  0.00  0.00    +0.000 C 
ATOM     13  O   UNL     1      34.818  -2.152  16.759  0.00  0.00    +0.000 OA
ATOM     14  C   UNL     1      34.336  -0.919  17.103  0.00  0.00    +0.000 C 
BRANCH   4  15
ATOM     15  C   UNL     1      38.176   1.141  14.575  0.00  0.00    +0.000 C 
ATOM     16  O   UNL     1      38.107   1.522  13.384  0.00  0.00    +0.000 OA
BRANCH  15  17
ATOM     17  O   UNL     1      39.407   0.719  15.032  0.00  0.00    +0.000 OA
BRANCH  17  19
ATOM     18  C   UNL     1      40.196  -1.578  15.105  0.00  0.00    +0.000 C 
ATOM     19  C   UNL     1      40.193  -0.248  14.389  0.00  0.00    +0.000 C 
ENDBRANCH  17  19
ENDBRANCH  15  17
ENDBRANCH   4  15
ENDBRANCH   1   5
BRANCH   2  20
ATOM     20  C   UNL     1      38.417   5.593  16.574  0.00  0.00    +0.000 C 
ATOM     21  O   UNL     1      37.469   6.429  15.962  0.00  0.00    +0.000 OA
BRANCH  20  22
ATOM     22  C   UNL     1      38.779   6.236  17.864  0.00  0.00    +0.000 A 
ATOM     23  C   UNL     1      39.813   5.801  18.665  0.00  0.00    +0.000 A 
ATOM     24  C   UNL     1      40.126   6.424  19.867  0.00  0.00    +0.000 A 
ATOM     25  C   UNL     1      39.371   7.519  20.271  0.00  0.00    +0.000 A 
ATOM     26  C   UNL     1      38.336   7.972  19.490  0.00  0.00    +0.000 A 
ATOM     27  C   UNL     1      38.043   7.340  18.303  0.00  0.00    +0.000 A 
ENDBRANCH  20  22
BRANCH  20  28
ATOM     28  C   UNL     1      39.598   5.533  15.649  0.00  0.00    +0.000 A 
ATOM     29  C   UNL     1      39.643   4.591  14.675  0.00  0.00    +0.000 A 
ATOM     30  C   UNL     1      40.720   4.525  13.823  0.00  0.00    +0.000 A 
ATOM     31  C   UNL     1      41.791   5.419  13.934  0.00  0.00    +0.000 A 
ATOM     32  C   UNL     1      41.702   6.361  14.939  0.00  0.00    +0.000 A 
ATOM     33  C   UNL     1      40.628   6.430  15.792  0.00  0.00    +0.000 A 
ENDBRANCH  20  28
ENDBRANCH   2  20
TORSDOF 7
ENDMDL
MODEL 3
REMARK VINA RESULT:      -7.8      1.982      2.897
REMARK  Name = 
REMARK  7 active torsions:
REMARK  status: ('A' for Active; 'I' for Inactive)
REMARK    1  A    between atoms: C_2  and  O_3
REMARK    2  A    between atoms: O_3  and  C_4
REMARK    3  A    between atoms: C_4  and  C_6
REMARK    4  A    between atoms: C_7  and  N_8
REMARK    5  A    between atoms: C_9  and  C_11
REMARK    6  A    between atoms: C_11  and  C_13
REMARK    7  A    between atoms: C_11  and  C_19
REMARK                            x       y       z     vdW  Elec       q    Type
REMARK                         _______ _______ _______ _____ _____    ______ ____
ROOT
ATOM      1  N   UNL     1      38.419   0.808  14.878  0.00  0.00    +0.000 NA
ATOM      2  C   UNL     1      37.849  -0.487  14.643  0.00  0.00    +0.000 C 
ATOM      3  O   UNL     1      36.827  -0.589  13.952  0.00  0.00    +0.000 OA
ENDROOT
BRANCH   1   5
ATOM      4  C   UNL     1      36.799   2.761  14.841  0.00  0.00    +0.000 A 
ATOM      5  C   UNL     1      37.761   1.953  14.284  0.00  0.00    +0.000 A 
ATOM      6  S   UNL     1      37.987   2.625  12.733  0.00  0.00    +0.000 S 
ATOM      7  C   UNL     1      36.873   3.898  12.824  0.00  0.00    +0.000 A 
ATOM      8  C   UNL     1      36.344   3.775  14.066  0.00  0.00    +0.000 A 
ATOM      9  C   UNL     1      35.293   4.816  14.420  0.00  0.00    +0.000 C 
ATOM     10  C   UNL     1      35.791   6.093  13.746  0.00  0.00    +0.000 C 
ATOM     11  C   UNL     1      34.953   7.247  14.185  0.00  0.00    +0.000 C 
ATOM     12  C   UNL     1      37.246   6.314  14.082  0.00  0.00    +0.000 C 
ATOM     13  O   UNL     1      35.605   5.883  12.382  0.00  0.00    +0.000 OA
ATOM     14  C   UNL     1      36.471   4.968  11.849  0.00  0.00    +0.000 C 
BRANCH   4  15
ATOM     15  C   UNL     1      36.326   2.483  16.228  0.00  0.00    +0.000 C 
ATOM     16  O   UNL     1      36.866   3.038  17.213  0.00  0.00    +0.000 OA
BRANCH  15  17
ATOM     17  O   UNL     1      35.287   1.613  16.486  0.00  0.00    +0.000 OA
BRANCH  17  19
ATOM     18  C   UNL     1      34.789  -0.716  16.967  0.00  0.00    +0.000 C 
ATOM     19  C   UNL     1      35.331   0.605  17.460  0.00  0.00    +0.000 C 
ENDBRANCH  17  19
ENDBRANCH  15  17
ENDBRANCH   4  15
ENDBRANCH   1   5
BRANCH   2  20
ATOM     20  C   UNL     1      38.468  -1.691  15.218  0.00  0.00    +0.000 C 
ATOM     21  O   UNL     1      38.934  -1.401  16.510  0.00  0.00    +0.000 OA
BRANCH  20  22
ATOM     22  C   UNL     1      37.519  -2.827  15.353  0.00  0.00    +0.000 A 
ATOM     23  C   UNL     1      36.398  -2.978  14.567  0.00  0.00    +0.000 A 
ATOM     24  C   UNL     1      35.529  -4.052  14.719  0.00  0.00    +0.000 A 
ATOM     25  C   UNL     1      35.804  -5.001  15.697  0.00  0.00    +0.000 A 
ATOM     26  C   UNL     1      36.915  -4.874  16.493  0.00  0.00    +0.000 A 
ATOM     27  C   UNL     1      37.762  -3.802  16.325  0.00  0.00    +0.000 A 
ENDBRANCH  20  22
BRANCH  20  28
ATOM     28  C   UNL     1      39.668  -2.083  14.405  0.00  0.00    +0.000 A 
ATOM     29  C   UNL     1      39.499  -2.670  13.195  0.00  0.00    +0.000 A 
ATOM     30  C   UNL     1      40.590  -3.035  12.442  0.00  0.00    +0.000 A 
ATOM     31  C   UNL     1      41.895  -2.814  12.898  0.00  0.00    +0.000 A 
ATOM     32  C   UNL     1      42.019  -2.214  14.135  0.00  0.00    +0.000 A 
ATOM     33  C   UNL     1      40.931  -1.848  14.889  0.00  0.00    +0.000 A 
ENDBRANCH  20  28
ENDBRANCH   2  20
TORSDOF 7
ENDMDL
MODEL 4
REMARK VINA RESULT:      -7.6      3.893      6.642
REMARK  Name = 
REMARK  7 active torsions:
REMARK  status: ('A' for Active; 'I' for Inactive)
REMARK    1  A    between atoms: C_2  and  O_3
REMARK    2  A    between atoms: O_3  and  C_4
REMARK    3  A    between atoms: C_4  and  C_6
REMARK    4  A    between atoms: C_7  and  N_8
REMARK    5  A    between atoms: C_9  and  C_11
REMARK    6  A    between atoms: C_11  and  C_13
REMARK    7  A    between atoms: C_11  and  C_19
REMARK                            x       y       z     vdW  Elec       q    Type
REMARK                         _______ _______ _______ _____ _____    ______ ____
ROOT
ATOM      1  N   UNL     1      39.259  -1.620  15.808  0.00  0.00    +0.000 NA
ATOM      2  C   UNL     1      38.082  -2.340  15.415  0.00  0.00    +0.000 C 
ATOM      3  O   UNL     1      38.022  -2.844  14.286  0.00  0.00    +0.000 OA
ENDROOT
BRANCH   1   5
ATOM      4  C   UNL     1      40.601  -0.488  13.975  0.00  0.00    +0.000 A 
ATOM      5  C   UNL     1      40.338  -1.517  14.847  0.00  0.00    +0.000 A 
ATOM      6  S   UNL     1      41.586  -2.632  14.524  0.00  0.00    +0.000 S 
ATOM      7  C   UNL     1      42.402  -1.783  13.307  0.00  0.00    +0.000 A 
ATOM      8  C   UNL     1      41.684  -0.641  13.176  0.00  0.00    +0.000 A 
ATOM      9  C   UNL     1      42.209   0.329  12.127  0.00  0.00    +0.000 C 
ATOM     10  C   UNL     1      43.728   0.192  12.221  0.00  0.00    +0.000 C 
ATOM     11  C   UNL     1      44.375   1.244  11.382  0.00  0.00    +0.000 C 
ATOM     12  C   UNL     1      44.162   0.299  13.663  0.00  0.00    +0.000 C 
ATOM     13  O   UNL     1      44.017  -1.062  11.689  0.00  0.00    +0.000 OA
ATOM     14  C   UNL     1      43.626  -2.097  12.494  0.00  0.00    +0.000 C 
BRANCH   4  15
ATOM     15  C   UNL     1      39.704   0.704  13.961  0.00  0.00    +0.000 C 
ATOM     16  O   UNL     1      39.641   1.471  14.949  0.00  0.00    +0.000 OA
BRANCH  15  17
ATOM     17  O   UNL     1      38.913   1.011  12.873  0.00  0.00    +0.000 OA
BRANCH  17  19
ATOM     18  C   UNL     1      36.718   0.648  11.898  0.00  0.00    +0.000 C 
ATOM     19  C   UNL     1      38.082   0.088  12.221  0.00  0.00    +0.000 C 
ENDBRANCH  17  19
ENDBRANCH  15  17
ENDBRANCH   4  15
ENDBRANCH   1   5
BRANCH   2  20
ATOM     20  C   UNL     1      36.950  -2.482  16.342  0.00  0.00    +0.000 C 
ATOM     21  O   UNL     1      37.431  -2.847  17.610  0.00  0.00    +0.000 OA
BRANCH  20  22
ATOM     22  C   UNL     1      36.184  -1.221  16.527  0.00  0.00    +0.000 A 
ATOM     23  C   UNL     1      35.424  -0.951  17.643  0.00  0.00    +0.000 A 
ATOM     24  C   UNL     1      34.718   0.238  17.785  0.00  0.00    +0.000 A 
ATOM     25  C   UNL     1      34.784   1.181  16.766  0.00  0.00    +0.000 A 
ATOM     26  C   UNL     1      35.536   0.936  15.643  0.00  0.00    +0.000 A 
ATOM     27  C   UNL     1      36.226  -0.249  15.524  0.00  0.00    +0.000 A 
ENDBRANCH  20  22
BRANCH  20  28
ATOM     28  C   UNL     1      36.053  -3.596  15.885  0.00  0.00    +0.000 A 
ATOM     29  C   UNL     1      36.275  -4.860  16.322  0.00  0.00    +0.000 A 
ATOM     30  C   UNL     1      35.461  -5.889  15.910  0.00  0.00    +0.000 A 
ATOM     31  C   UNL     1      34.392  -5.665  15.036  0.00  0.00    +0.000 A 
ATOM     32  C   UNL     1      34.204  -4.364  14.617  0.00  0.00    +0.000 A 
ATOM     33  C   UNL     1      35.014  -3.333  15.027  0.00  0.00    +0.000 A 
ENDBRANCH  20  28
ENDBRANCH   2  20
TORSDOF 7
ENDMDL
MODEL 5
REMARK VINA RESULT:      -7.5      1.762      7.868
REMARK  Name = 
REMARK  7 active torsions:
REMARK  status: ('A' for Active; 'I' for Inactive)
REMARK    1  A    between atoms: C_2  and  O_3
REMARK    2  A    between atoms: O_3  and  C_4
REMARK    3  A    between atoms: C_4  and  C_6
REMARK    4  A    between atoms: C_7  and  N_8
REMARK    5  A    between atoms: C_9  and  C_11
REMARK    6  A    between atoms: C_11  and  C_13
REMARK    7  A    between atoms: C_11  and  C_19
REMARK                            x       y       z     vdW  Elec       q    Type
REMARK                         _______ _______ _______ _____ _____    ______ ____
ROOT
ATOM      1  N   UNL     1      38.109   2.035  15.465  0.00  0.00    +0.000 NA
ATOM      2  C   UNL     1      37.528   3.294  15.100  0.00  0.00    +0.000 C 
ATOM      3  O   UNL     1      36.298   3.396  15.005  0.00  0.00    +0.000 OA
ENDROOT
BRANCH   1   5
ATOM      4  C   UNL     1      37.134  -0.267  15.028  0.00  0.00    +0.000 A 
ATOM      5  C   UNL     1      37.212   0.924  15.709  0.00  0.00    +0.000 A 
ATOM      6  S   UNL     1      36.004   0.773  16.903  0.00  0.00    +0.000 S 
ATOM      7  C   UNL     1      35.433  -0.775  16.519  0.00  0.00    +0.000 A 
ATOM      8  C   UNL     1      36.199  -1.146  15.463  0.00  0.00    +0.000 A 
ATOM      9  C   UNL     1      35.892  -2.529  14.906  0.00  0.00    +0.000 C 
ATOM     10  C   UNL     1      35.546  -3.359  16.141  0.00  0.00    +0.000 C 
ATOM     11  C   UNL     1      35.422  -4.796  15.755  0.00  0.00    +0.000 C 
ATOM     12  C   UNL     1      36.605  -3.166  17.200  0.00  0.00    +0.000 C 
ATOM     13  O   UNL     1      34.305  -2.889  16.563  0.00  0.00    +0.000 OA
ATOM     14  C   UNL     1      34.357  -1.638  17.114  0.00  0.00    +0.000 C 
BRANCH   4  15
ATOM     15  C   UNL     1      38.056  -0.516  13.883  0.00  0.00    +0.000 C 
ATOM     16  O   UNL     1      37.674  -0.342  12.703  0.00  0.00    +0.000 OA
BRANCH  15  17
ATOM     17  O   UNL     1      39.355  -0.942  14.070  0.00  0.00    +0.000 OA
BRANCH  17  19
ATOM     18  C   UNL     1      39.933  -2.814  15.506  0.00  0.00    +0.000 C 
ATOM     19  C   UNL     1      39.741  -2.289  14.103  0.00  0.00    +0.000 C 
ENDBRANCH  17  19
ENDBRANCH  15  17
ENDBRANCH   4  15
ENDBRANCH   1   5
BRANCH   2  20
ATOM     20  C   UNL     1      38.383   4.462  14.838  0.00  0.00    +0.000 C 
ATOM     21  O   UNL     1      39.457   4.077  14.020  0.00  0.00    +0.000 OA
BRANCH  20  22
ATOM     22  C   UNL     1      37.674   5.555  14.122  0.00  0.00    +0.000 A 
ATOM     23  C   UNL     1      36.962   6.546  14.762  0.00  0.00    +0.000 A 
ATOM     24  C   UNL     1      36.309   7.554  14.063  0.00  0.00    +0.000 A 
ATOM     25  C   UNL     1      36.378   7.559  12.675  0.00  0.00    +0.000 A 
ATOM     26  C   UNL     1      37.082   6.583  12.013  0.00  0.00    +0.000 A 
ATOM     27  C   UNL     1      37.721   5.594  12.726  0.00  0.00    +0.000 A 
ENDBRANCH  20  22
BRANCH  20  28
ATOM     28  C   UNL     1      38.977   4.957  16.125  0.00  0.00    +0.000 A 
ATOM     29  C   UNL     1      38.370   4.668  17.302  0.00  0.00    +0.000 A 
ATOM     30  C   UNL     1      38.904   5.116  18.487  0.00  0.00    +0.000 A 
ATOM     31  C   UNL     1      40.078   5.876  18.514  0.00  0.00    +0.000 A 
ATOM     32  C   UNL     1      40.662   6.146  17.293  0.00  0.00    +0.000 A 
ATOM     33  C   UNL     1      40.132   5.700  16.106  0.00  0.00    +0.000 A 
ENDBRANCH  20  28
ENDBRANCH   2  20
TORSDOF 7
ENDMDL
MODEL 6
REMARK VINA RESULT:      -7.4      2.361      4.404
REMARK  Name = 
REMARK  7 active torsions:
REMARK  status: ('A' for Active; 'I' for Inactive)
REMARK    1  A    between atoms: C_2  and  O_3
REMARK    2  A    between atoms: O_3  and  C_4
REMARK    3  A    between atoms: C_4  and  C_6
REMARK    4  A    between atoms: C_7  and  N_8
REMARK    5  A    between atoms: C_9  and  C_11
REMARK    6  A    between atoms: C_11  and  C_13
REMARK    7  A    between atoms: C_11  and  C_19
REMARK                            x       y       z     vdW  Elec       q    Type
REMARK                         _______ _______ _______ _____ _____    ______ ____
ROOT
ATOM      1  N   UNL     1      36.198  -0.889  14.930  0.00  0.00    +0.000 NA
ATOM      2  C   UNL     1      37.356  -1.731  15.009  0.00  0.00    +0.000 C 
ATOM      3  O   UNL     1      38.470  -1.267  14.732  0.00  0.00    +0.000 OA
ENDROOT
BRANCH   1   5
ATOM      4  C   UNL     1      36.172   1.627  15.257  0.00  0.00    +0.000 A 
ATOM      5  C   UNL     1      36.391   0.488  14.522  0.00  0.00    +0.000 A 
ATOM      6  S   UNL     1      36.942   1.087  13.024  0.00  0.00    +0.000 S 
ATOM      7  C   UNL     1      36.884   2.747  13.357  0.00  0.00    +0.000 A 
ATOM      8  C   UNL     1      36.435   2.802  14.635  0.00  0.00    +0.000 A 
ATOM      9  C   UNL     1      36.288   4.207  15.201  0.00  0.00    +0.000 C 
ATOM     10  C   UNL     1      37.459   4.978  14.594  0.00  0.00    +0.000 C 
ATOM     11  C   UNL     1      37.551   6.325  15.230  0.00  0.00    +0.000 C 
ATOM     12  C   UNL     1      38.737   4.196  14.781  0.00  0.00    +0.000 C 
ATOM     13  O   UNL     1      37.140   5.127  13.246  0.00  0.00    +0.000 OA
ATOM     14  C   UNL     1      37.218   3.960  12.536  0.00  0.00    +0.000 C 
BRANCH   4  15
ATOM     15  C   UNL     1      35.673   1.508  16.657  0.00  0.00    +0.000 C 
ATOM     16  O   UNL     1      34.464   1.695  16.924  0.00  0.00    +0.000 OA
BRANCH  15  17
ATOM     17  O   UNL     1      36.510   1.191  17.708  0.00  0.00    +0.000 OA
BRANCH  17  19
ATOM     18  C   UNL     1      35.216  -0.624  18.674  0.00  0.00    +0.000 C 
ATOM     19  C   UNL     1      36.078   0.595  18.901  0.00  0.00    +0.000 C 
ENDBRANCH  17  19
ENDBRANCH  15  17
ENDBRANCH   4  15
ENDBRANCH   1   5
BRANCH   2  20
ATOM     20  C   UNL     1      37.230  -3.138  15.416  0.00  0.00    +0.000 C 
ATOM     21  O   UNL     1      37.951  -3.947  14.523  0.00  0.00    +0.000 OA
BRANCH  20  22
ATOM     22  C   UNL     1      37.781  -3.406  16.771  0.00  0.00    +0.000 A 
ATOM     23  C   UNL     1      38.075  -4.670  17.234  0.00  0.00    +0.000 A 
ATOM     24  C   UNL     1      38.588  -4.887  18.507  0.00  0.00    +0.000 A 
ATOM     25  C   UNL     1      38.810  -3.793  19.335  0.00  0.00    +0.000 A 
ATOM     26  C   UNL     1      38.526  -2.523  18.896  0.00  0.00    +0.000 A 
ATOM     27  C   UNL     1      38.017  -2.331  17.632  0.00  0.00    +0.000 A 
ENDBRANCH  20  22
BRANCH  20  28
ATOM     28  C   UNL     1      35.794  -3.568  15.322  0.00  0.00    +0.000 A 
ATOM     29  C   UNL     1      34.902  -3.141  16.250  0.00  0.00    +0.000 A 
ATOM     30  C   UNL     1      33.585  -3.529  16.175  0.00  0.00    +0.000 A 
ATOM     31  C   UNL     1      33.130  -4.368  15.152  0.00  0.00    +0.000 A 
ATOM     32  C   UNL     1      34.073  -4.777  14.230  0.00  0.00    +0.000 A 
ATOM     33  C   UNL     1      35.389  -4.391  14.301  0.00  0.00    +0.000 A 
ENDBRANCH  20  28
ENDBRANCH   2  20
TORSDOF 7
ENDMDL
MODEL 7
REMARK VINA RESULT:      -7.4      2.176      7.813
REMARK  Name = 
REMARK  7 active torsions:
REMARK  status: ('A' for Active; 'I' for Inactive)
REMARK    1  A    between atoms: C_2  and  O_3
REMARK    2  A    between atoms: O_3  and  C_4
REMARK    3  A    between atoms: C_4  and  C_6
REMARK    4  A    between atoms: C_7  and  N_8
REMARK    5  A    between atoms: C_9  and  C_11
REMARK    6  A    between atoms: C_11  and  C_13
REMARK    7  A    between atoms: C_11  and  C_19
REMARK                            x       y       z     vdW  Elec       q    Type
REMARK                         _______ _______ _______ _____ _____    ______ ____
ROOT
ATOM      1  N   UNL     1      36.666   1.790  14.619  0.00  0.00    +0.000 NA
ATOM      2  C   UNL     1      37.794   2.593  14.996  0.00  0.00    +0.000 C 
ATOM      3  O   UNL     1      38.859   2.044  15.305  0.00  0.00    +0.000 OA
ENDROOT
BRANCH   1   5
ATOM      4  C   UNL     1      36.538  -0.535  15.629  0.00  0.00    +0.000 A 
ATOM      5  C   UNL     1      36.832   0.351  14.620  0.00  0.00    +0.000 A 
ATOM      6  S   UNL     1      37.435  -0.652  13.380  0.00  0.00    +0.000 S 
ATOM      7  C   UNL     1      37.303  -2.152  14.156  0.00  0.00    +0.000 A 
ATOM      8  C   UNL     1      36.789  -1.841  15.371  0.00  0.00    +0.000 A 
ATOM      9  C   UNL     1      36.562  -3.031  16.293  0.00  0.00    +0.000 C 
ATOM     10  C   UNL     1      36.114  -4.149  15.354  0.00  0.00    +0.000 C 
ATOM     11  C   UNL     1      35.660  -5.322  16.158  0.00  0.00    +0.000 C 
ATOM     12  C   UNL     1      35.015  -3.647  14.449  0.00  0.00    +0.000 C 
ATOM     13  O   UNL     1      37.253  -4.500  14.633  0.00  0.00    +0.000 OA
ATOM     14  C   UNL     1      37.634  -3.552  13.723  0.00  0.00    +0.000 C 
BRANCH   4  15
ATOM     15  C   UNL     1      35.975  -0.021  16.910  0.00  0.00    +0.000 C 
ATOM     16  O   UNL     1      34.743   0.170  17.038  0.00  0.00    +0.000 OA
BRANCH  15  17
ATOM     17  O   UNL     1      36.774   0.262  17.999  0.00  0.00    +0.000 OA
BRANCH  17  19
ATOM     18  C   UNL     1      37.289  -1.601  19.470  0.00  0.00    +0.000 C 
ATOM     19  C   UNL     1      36.581  -0.281  19.276  0.00  0.00    +0.000 C 
ENDBRANCH  17  19
ENDBRANCH  15  17
ENDBRANCH   4  15
ENDBRANCH   1   5
BRANCH   2  20
ATOM     20  C   UNL     1      37.693   4.060  15.016  0.00  0.00    +0.000 C 
ATOM     21  O   UNL     1      36.370   4.430  15.307  0.00  0.00    +0.000 OA
BRANCH  20  22
ATOM     22  C   UNL     1      38.548   4.690  16.056  0.00  0.00    +0.000 A 
ATOM     23  C   UNL     1      39.709   5.375  15.770  0.00  0.00    +0.000 A 
ATOM     24  C   UNL     1      40.488   5.953  16.766  0.00  0.00    +0.000 A 
ATOM     25  C   UNL     1      40.080   5.832  18.089  0.00  0.00    +0.000 A 
ATOM     26  C   UNL     1      38.927   5.154  18.400  0.00  0.00    +0.000 A 
ATOM     27  C   UNL     1      38.171   4.590  17.397  0.00  0.00    +0.000 A 
ENDBRANCH  20  22
BRANCH  20  28
ATOM     28  C   UNL     1      38.004   4.610  13.654  0.00  0.00    +0.000 A 
ATOM     29  C   UNL     1      37.369   5.726  13.219  0.00  0.00    +0.000 A 
ATOM     30  C   UNL     1      37.645   6.240  11.973  0.00  0.00    +0.000 A 
ATOM     31  C   UNL     1      38.578   5.632  11.126  0.00  0.00    +0.000 A 
ATOM     32  C   UNL     1      39.200   4.499  11.611  0.00  0.00    +0.000 A 
ATOM     33  C   UNL     1      38.928   3.984  12.855  0.00  0.00    +0.000 A 
ENDBRANCH  20  28
ENDBRANCH   2  20
TORSDOF 7
ENDMDL
MODEL 8
REMARK VINA RESULT:      -7.4      3.477      6.324
REMARK  Name = 
REMARK  7 active torsions:
REMARK  status: ('A' for Active; 'I' for Inactive)
REMARK    1  A    between atoms: C_2  and  O_3
REMARK    2  A    between atoms: O_3  and  C_4
REMARK    3  A    between atoms: C_4  and  C_6
REMARK    4  A    between atoms: C_7  and  N_8
REMARK    5  A    between atoms: C_9  and  C_11
REMARK    6  A    between atoms: C_11  and  C_13
REMARK    7  A    between atoms: C_11  and  C_19
REMARK                            x       y       z     vdW  Elec       q    Type
REMARK                         _______ _______ _______ _____ _____    ______ ____
ROOT
ATOM      1  N   UNL     1      38.413  -1.728  13.797  0.00  0.00    +0.000 NA
ATOM      2  C   UNL     1      38.558  -1.191  15.119  0.00  0.00    +0.000 C 
ATOM      3  O   UNL     1      39.624  -0.654  15.448  0.00  0.00    +0.000 OA
ENDROOT
BRANCH   1   5
ATOM      4  C   UNL     1      39.778  -0.639  11.955  0.00  0.00    +0.000 A 
ATOM      5  C   UNL     1      39.541  -1.613  12.895  0.00  0.00    +0.000 A 
ATOM      6  S   UNL     1      40.889  -2.644  12.741  0.00  0.00    +0.000 S 
ATOM      7  C   UNL     1      41.714  -1.831  11.504  0.00  0.00    +0.000 A 
ATOM      8  C   UNL     1      40.919  -0.766  11.235  0.00  0.00    +0.000 A 
ATOM      9  C   UNL     1      41.433   0.156  10.139  0.00  0.00    +0.000 C 
ATOM     10  C   UNL     1      42.949   0.153  10.332  0.00  0.00    +0.000 C 
ATOM     11  C   UNL     1      43.565   1.184   9.444  0.00  0.00    +0.000 C 
ATOM     12  C   UNL     1      43.280   0.412  11.782  0.00  0.00    +0.000 C 
ATOM     13  O   UNL     1      43.368  -1.111   9.926  0.00  0.00    +0.000 OA
ATOM     14  C   UNL     1      43.008  -2.107  10.793  0.00  0.00    +0.000 C 
BRANCH   4  15
ATOM     15  C   UNL     1      38.793   0.468  11.787  0.00  0.00    +0.000 C 
ATOM     16  O   UNL     1      38.026   0.498  10.797  0.00  0.00    +0.000 OA
BRANCH  15  17
ATOM     17  O   UNL     1      38.685   1.496  12.701  0.00  0.00    +0.000 OA
BRANCH  17  19
ATOM     18  C   UNL     1      39.412   2.831  14.596  0.00  0.00    +0.000 C 
ATOM     19  C   UNL     1      39.781   2.114  13.319  0.00  0.00    +0.000 C 
ENDBRANCH  17  19
ENDBRANCH  15  17
ENDBRANCH   4  15
ENDBRANCH   1   5
BRANCH   2  20
ATOM     20  C   UNL     1      37.451  -1.275  16.084  0.00  0.00    +0.000 C 
ATOM     21  O   UNL     1      37.972  -1.285  17.388  0.00  0.00    +0.000 OA
BRANCH  20  22
ATOM     22  C   UNL     1      36.522  -0.117  16.008  0.00  0.00    +0.000 A 
ATOM     23  C   UNL     1      36.365   0.657  14.879  0.00  0.00    +0.000 A 
ATOM     24  C   UNL     1      35.487   1.734  14.840  0.00  0.00    +0.000 A 
ATOM     25  C   UNL     1      34.748   2.037  15.977  0.00  0.00    +0.000 A 
ATOM     26  C   UNL     1      34.887   1.281  17.115  0.00  0.00    +0.000 A 
ATOM     27  C   UNL     1      35.762   0.218  17.131  0.00  0.00    +0.000 A 
ENDBRANCH  20  22
BRANCH  20  28
ATOM     28  C   UNL     1      36.716  -2.571  15.905  0.00  0.00    +0.000 A 
ATOM     29  C   UNL     1      35.534  -2.587  15.240  0.00  0.00    +0.000 A 
ATOM     30  C   UNL     1      34.850  -3.768  15.070  0.00  0.00    +0.000 A 
ATOM     31  C   UNL     1      35.347  -4.975  15.573  0.00  0.00    +0.000 A 
ATOM     32  C   UNL     1      36.553  -4.911  16.241  0.00  0.00    +0.000 A 
ATOM     33  C   UNL     1      37.240  -3.734  16.413  0.00  0.00    +0.000 A 
ENDBRANCH  20  28
ENDBRANCH   2  20
TORSDOF 7
ENDMDL
MODEL 9
REMARK VINA RESULT:      -7.1      2.630      4.497
REMARK  Name = 
REMARK  7 active torsions:
REMARK  status: ('A' for Active; 'I' for Inactive)
REMARK    1  A    between atoms: C_2  and  O_3
REMARK    2  A    between atoms: O_3  and  C_4
REMARK    3  A    between atoms: C_4  and  C_6
REMARK    4  A    between atoms: C_7  and  N_8
REMARK    5  A    between atoms: C_9  and  C_11
REMARK    6  A    between atoms: C_11  and  C_13
REMARK    7  A    between atoms: C_11  and  C_19
REMARK                            x       y       z     vdW  Elec       q    Type
REMARK                         _______ _______ _______ _____ _____    ______ ____
ROOT
ATOM      1  N   UNL     1      37.753   0.966  14.315  0.00  0.00    +0.000 NA
ATOM      2  C   UNL     1      38.762  -0.023  14.560  0.00  0.00    +0.000 C 
ATOM      3  O   UNL     1      39.842   0.316  15.061  0.00  0.00    +0.000 OA
ENDROOT
BRANCH   1   5
ATOM      4  C   UNL     1      37.455   3.110  15.639  0.00  0.00    +0.000 A 
ATOM      5  C   UNL     1      38.051   2.338  14.671  0.00  0.00    +0.000 A 
ATOM      6  S   UNL     1      39.219   3.382  14.000  0.00  0.00    +0.000 S 
ATOM      7  C   UNL     1      38.932   4.757  14.946  0.00  0.00    +0.000 A 
ATOM      8  C   UNL     1      37.927   4.374  15.771  0.00  0.00    +0.000 A 
ATOM      9  C   UNL     1      37.461   5.441  16.752  0.00  0.00    +0.000 C 
ATOM     10  C   UNL     1      38.742   6.183  17.130  0.00  0.00    +0.000 C 
ATOM     11  C   UNL     1      38.457   7.130  18.248  0.00  0.00    +0.000 C 
ATOM     12  C   UNL     1      39.813   5.190  17.514  0.00  0.00    +0.000 C 
ATOM     13  O   UNL     1      39.096   6.906  15.994  0.00  0.00    +0.000 OA
ATOM     14  C   UNL     1      39.557   6.123  14.972  0.00  0.00    +0.000 C 
BRANCH   4  15
ATOM     15  C   UNL     1      36.357   2.529  16.463  0.00  0.00    +0.000 C 
ATOM     16  O   UNL     1      35.165   2.861  16.267  0.00  0.00    +0.000 OA
BRANCH  15  17
ATOM     17  O   UNL     1      36.600   1.612  17.464  0.00  0.00    +0.000 OA
BRANCH  17  19
ATOM     18  C   UNL     1      35.824   0.023  19.130  0.00  0.00    +0.000 C 
ATOM     19  C   UNL     1      35.820   0.469  17.687  0.00  0.00    +0.000 C 
ENDBRANCH  17  19
ENDBRANCH  15  17
ENDBRANCH   4  15
ENDBRANCH   1   5
BRANCH   2  20
ATOM     20  C   UNL     1      38.523  -1.434  14.222  0.00  0.00    +0.000 C 
ATOM     21  O   UNL     1      37.324  -1.541  13.498  0.00  0.00    +0.000 OA
BRANCH  20  22
ATOM     22  C   UNL     1      39.589  -2.017  13.365  0.00  0.00    +0.000 A 
ATOM     23  C   UNL     1      39.496  -2.107  11.994  0.00  0.00    +0.000 A 
ATOM     24  C   UNL     1      40.511  -2.660  11.221  0.00  0.00    +0.000 A 
ATOM     25  C   UNL     1      41.652  -3.136  11.855  0.00  0.00    +0.000 A 
ATOM     26  C   UNL     1      41.769  -3.057  13.221  0.00  0.00    +0.000 A 
ATOM     27  C   UNL     1      40.752  -2.506  13.967  0.00  0.00    +0.000 A 
ENDBRANCH  20  22
BRANCH  20  28
ATOM     28  C   UNL     1      38.340  -2.236  15.478  0.00  0.00    +0.000 A 
ATOM     29  C   UNL     1      38.611  -1.672  16.681  0.00  0.00    +0.000 A 
ATOM     30  C   UNL     1      38.449  -2.396  17.838  0.00  0.00    +0.000 A 
ATOM     31  C   UNL     1      38.004  -3.722  17.810  0.00  0.00    +0.000 A 
ATOM     32  C   UNL     1      37.740  -4.254  16.564  0.00  0.00    +0.000 A 
ATOM     33  C   UNL     1      37.901  -3.534  15.405  0.00  0.00    +0.000 A 
ENDBRANCH  20  28
ENDBRANCH   2  20
TORSDOF 7
ENDMDL
MODEL 10
REMARK VINA RESULT:      -7.1     23.758     26.848
REMARK  Name = 
REMARK  7 active torsions:
REMARK  status: ('A' for Active; 'I' for Inactive)
REMARK    1  A    between atoms: C_2  and  O_3
REMARK    2  A    between atoms: O_3  and  C_4
REMARK    3  A    between atoms: C_4  and  C_6
REMARK    4  A    between atoms: C_7  and  N_8
REMARK    5  A    between atoms: C_9  and  C_11
REMARK    6  A    between atoms: C_11  and  C_13
REMARK    7  A    between atoms: C_11  and  C_19
REMARK                            x       y       z     vdW  Elec       q    Type
REMARK                         _______ _______ _______ _____ _____    ______ ____
ROOT
ATOM      1  N   UNL     1      28.745  16.263  34.929  0.00  0.00    +0.000 NA
ATOM      2  C   UNL     1      27.981  16.894  35.966  0.00  0.00    +0.000 C 
ATOM      3  O   UNL     1      28.556  17.590  36.812  0.00  0.00    +0.000 OA
ENDROOT
BRANCH   1   5
ATOM      4  C   UNL     1      31.161  15.638  35.390  0.00  0.00    +0.000 A 
ATOM      5  C   UNL     1      30.178  16.476  34.922  0.00  0.00    +0.000 A 
ATOM      6  S   UNL     1      31.052  17.816  34.334  0.00  0.00    +0.000 S 
ATOM      7  C   UNL     1      32.623  17.294  34.690  0.00  0.00    +0.000 A 
ATOM      8  C   UNL     1      32.436  16.079  35.262  0.00  0.00    +0.000 A 
ATOM      9  C   UNL     1      33.712  15.368  35.688  0.00  0.00    +0.000 C 
ATOM     10  C   UNL     1      34.723  15.738  34.604  0.00  0.00    +0.000 C 
ATOM     11  C   UNL     1      35.969  14.937  34.791  0.00  0.00    +0.000 C 
ATOM     12  C   UNL     1      34.120  15.501  33.240  0.00  0.00    +0.000 C 
ATOM     13  O   UNL     1      35.008  17.086  34.812  0.00  0.00    +0.000 OA
ATOM     14  C   UNL     1      33.974  17.917  34.480  0.00  0.00    +0.000 C 
BRANCH   4  15
ATOM     15  C   UNL     1      30.778  14.330  35.995  0.00  0.00    +0.000 C 
ATOM     16  O   UNL     1      30.708  13.295  35.292  0.00  0.00    +0.000 OA
BRANCH  15  17
ATOM     17  O   UNL     1      30.489  14.201  37.338  0.00  0.00    +0.000 OA
BRANCH  17  19
ATOM     18  C   UNL     1      31.559  12.368  38.520  0.00  0.00    +0.000 C 
ATOM     19  C   UNL     1      31.435  13.859  38.314  0.00  0.00    +0.000 C 
ENDBRANCH  17  19
ENDBRANCH  15  17
ENDBRANCH   4  15
ENDBRANCH   1   5
BRANCH   2  20
ATOM     20  C   UNL     1      26.522  16.718  36.030  0.00  0.00    +0.000 C 
ATOM     21  O   UNL     1      25.912  17.969  36.216  0.00  0.00    +0.000 OA
BRANCH  20  22
ATOM     22  C   UNL     1      25.948  16.146  34.784  0.00  0.00    +0.000 A 
ATOM     23  C   UNL     1      25.981  14.803  34.480  0.00  0.00    +0.000 A 
ATOM     24  C   UNL     1      25.436  14.299  33.305  0.00  0.00    +0.000 A 
ATOM     25  C   UNL     1      24.839  15.182  32.412  0.00  0.00    +0.000 A 
ATOM     26  C   UNL     1      24.792  16.525  32.693  0.00  0.00    +0.000 A 
ATOM     27  C   UNL     1      25.339  17.002  33.862  0.00  0.00    +0.000 A 
ENDBRANCH  20  22
BRANCH  20  28
ATOM     28  C   UNL     1      26.162  15.882  37.224  0.00  0.00    +0.000 A 
ATOM     29  C   UNL     1      24.859  15.713  37.559  0.00  0.00    +0.000 A 
ATOM     30  C   UNL     1      24.516  14.950  38.650  0.00  0.00    +0.000 A 
ATOM     31  C   UNL     1      25.491  14.333  39.441  0.00  0.00    +0.000 A 
ATOM     32  C   UNL     1      26.804  14.532  39.063  0.00  0.00    +0.000 A 
ATOM     33  C   UNL     1      27.150  15.293  37.973  0.00  0.00    +0.000 A 
ENDBRANCH  20  28
ENDBRANCH   2  20
TORSDOF 7
ENDMDL
