MODEL 1
REMARK VINA RESULT:      -8.1      0.000      0.000
REMARK  Name = 
REMARK  8 active torsions:
REMARK  status: ('A' for Active; 'I' for Inactive)
REMARK    1  A    between atoms: C_2  and  N_3
REMARK    2  A    between atoms: C_12  and  N_13
REMARK    3  A    between atoms: C_14  and  C_16
REMARK    4  A    between atoms: C_16  and  O_17
REMARK    5  A    between atoms: O_17  and  C_18
REMARK    6  A    between atoms: C_18  and  C_20
REMARK    7  A    between atoms: C_20  and  C_21
REMARK    8  A    between atoms: C_21  and  C_22
REMARK                            x       y       z     vdW  Elec       q    Type
REMARK                         _______ _______ _______ _____ _____    ______ ____
ROOT
ATOM      1  N   UNL     1      42.576   6.674  19.588  0.00  0.00    +0.000 N 
ATOM      2  C   UNL     1      43.522   6.823  18.634  0.00  0.00    +0.000 A 
ATOM      3  C   UNL     1      44.879   7.081  18.697  0.00  0.00    +0.000 A 
ATOM      4  C   UNL     1      45.611   7.183  17.536  0.00  0.00    +0.000 A 
ATOM      5  C   UNL     1      44.959   7.023  16.333  0.00  0.00    +0.000 A 
ATOM      6  C   UNL     1      43.606   6.765  16.286  0.00  0.00    +0.000 A 
ATOM      7  C   UNL     1      42.856   6.659  17.440  0.00  0.00    +0.000 A 
ATOM      8  C   UNL     1      41.517   6.413  17.665  0.00  0.00    +0.000 A 
ATOM      9  C   UNL     1      40.423   6.181  16.837  0.00  0.00    +0.000 A 
ATOM     10  C   UNL     1      39.161   5.959  17.352  0.00  0.00    +0.000 A 
ATOM     11  C   UNL     1      39.019   5.975  18.726  0.00  0.00    +0.000 A 
ATOM     12  C   UNL     1      40.107   6.207  19.540  0.00  0.00    +0.000 A 
ATOM     13  C   UNL     1      41.373   6.429  19.036  0.00  0.00    +0.000 A 
ENDROOT
BRANCH  10  14
ATOM     14  N   UNL     1      38.028   5.720  16.511  0.00  0.00    +0.000 NA
ATOM     15  C   UNL     1      37.798   4.386  16.077  0.00  0.00    +0.000 C 
ATOM     16  O   UNL     1      38.551   3.438  16.409  0.00  0.00    +0.000 OA
BRANCH  15  17
ATOM     17  C   UNL     1      36.637   4.089  15.204  0.00  0.00    +0.000 C 
BRANCH  17  18
ATOM     18  O   UNL     1      36.240   2.740  15.331  0.00  0.00    +0.000 OA
BRANCH  18  19
ATOM     19  C   UNL     1      35.220   2.343  16.163  0.00  0.00    +0.000 C 
ATOM     20  O   UNL     1      34.088   2.912  15.983  0.00  0.00    +0.000 OA
BRANCH  19  21
ATOM     21  C   UNL     1      35.277   1.349  17.231  0.00  0.00    +0.000 C 
BRANCH  21  22
ATOM     22  C   UNL     1      35.352  -0.070  16.795  0.00  0.00    +0.000 C 
BRANCH  22  23
ATOM     23  C   UNL     1      36.380  -0.867  17.495  0.00  0.00    +0.000 A 
ATOM     24  C   UNL     1      36.312  -1.046  18.840  0.00  0.00    +0.000 A 
ATOM     25  C   UNL     1      37.251  -1.784  19.529  0.00  0.00    +0.000 A 
ATOM     26  C   UNL     1      38.285  -2.349  18.804  0.00  0.00    +0.000 A 
ATOM     27  C   UNL     1      38.396  -2.197  17.456  0.00  0.00    +0.000 A 
ATOM     28  C   UNL     1      37.439  -1.453  16.797  0.00  0.00    +0.000 A 
ENDBRANCH  22  23
ENDBRANCH  21  22
ENDBRANCH  19  21
ENDBRANCH  18  19
ENDBRANCH  17  18
ENDBRANCH  15  17
ENDBRANCH  10  14
BRANCH   1  30
ATOM     29  C   UNL     1      43.527   5.506  21.497  0.00  0.00    +0.000 C 
ATOM     30  C   UNL     1      42.822   6.765  21.019  0.00  0.00    +0.000 C 
ENDBRANCH   1  30
TORSDOF 8
ENDMDL
MODEL 2
REMARK VINA RESULT:      -7.7      2.436      9.186
REMARK  Name = 
REMARK  8 active torsions:
REMARK  status: ('A' for Active; 'I' for Inactive)
REMARK    1  A    between atoms: C_2  and  N_3
REMARK    2  A    between atoms: C_12  and  N_13
REMARK    3  A    between atoms: C_14  and  C_16
REMARK    4  A    between atoms: C_16  and  O_17
REMARK    5  A    between atoms: O_17  and  C_18
REMARK    6  A    between atoms: C_18  and  C_20
REMARK    7  A    between atoms: C_20  and  C_21
REMARK    8  A    between atoms: C_21  and  C_22
REMARK                            x       y       z     vdW  Elec       q    Type
REMARK                         _______ _______ _______ _____ _____    ______ ____
ROOT
ATOM      1  N   UNL     1      37.462  -1.013  15.030  0.00  0.00    +0.000 N 
ATOM      2  C   UNL     1      36.356  -1.303  15.753  0.00  0.00    +0.000 A 
ATOM      3  C   UNL     1      35.733  -2.495  16.068  0.00  0.00    +0.000 A 
ATOM      4  C   UNL     1      34.594  -2.489  16.840  0.00  0.00    +0.000 A 
ATOM      5  C   UNL     1      34.105  -1.278  17.279  0.00  0.00    +0.000 A 
ATOM      6  C   UNL     1      34.738  -0.097  16.957  0.00  0.00    +0.000 A 
ATOM      7  C   UNL     1      35.881  -0.084  16.184  0.00  0.00    +0.000 A 
ATOM      8  C   UNL     1      36.690   0.938  15.728  0.00  0.00    +0.000 A 
ATOM      9  C   UNL     1      36.670   2.321  15.865  0.00  0.00    +0.000 A 
ATOM     10  C   UNL     1      37.636   3.119  15.282  0.00  0.00    +0.000 A 
ATOM     11  C   UNL     1      38.628   2.494  14.554  0.00  0.00    +0.000 A 
ATOM     12  C   UNL     1      38.641   1.121  14.422  0.00  0.00    +0.000 A 
ATOM     13  C   UNL     1      37.682   0.315  15.000  0.00  0.00    +0.000 A 
ENDROOT
BRANCH  10  14
ATOM     14  N   UNL     1      37.626   4.545  15.415  0.00  0.00    +0.000 NA
ATOM     15  C   UNL     1      38.183   5.101  16.599  0.00  0.00    +0.000 C 
ATOM     16  O   UNL     1      38.671   4.384  17.507  0.00  0.00    +0.000 OA
BRANCH  15  17
ATOM     17  C   UNL     1      38.195   6.572  16.782  0.00  0.00    +0.000 C 
BRANCH  17  18
ATOM     18  O   UNL     1      39.288   6.973  17.581  0.00  0.00    +0.000 OA
BRANCH  18  19
ATOM     19  C   UNL     1      39.131   7.663  18.759  0.00  0.00    +0.000 C 
ATOM     20  O   UNL     1      38.270   8.608  18.753  0.00  0.00    +0.000 OA
BRANCH  19  21
ATOM     21  C   UNL     1      39.836   7.444  20.020  0.00  0.00    +0.000 C 
BRANCH  21  22
ATOM     22  C   UNL     1      40.659   6.209  20.099  0.00  0.00    +0.000 C 
BRANCH  22  23
ATOM     23  C   UNL     1      42.113   6.440  19.977  0.00  0.00    +0.000 A 
ATOM     24  C   UNL     1      42.668   6.702  18.765  0.00  0.00    +0.000 A 
ATOM     25  C   UNL     1      44.020   6.923  18.612  0.00  0.00    +0.000 A 
ATOM     26  C   UNL     1      44.815   6.871  19.743  0.00  0.00    +0.000 A 
ATOM     27  C   UNL     1      44.305   6.611  20.978  0.00  0.00    +0.000 A 
ATOM     28  C   UNL     1      42.948   6.394  21.097  0.00  0.00    +0.000 A 
ENDBRANCH  22  23
ENDBRANCH  21  22
ENDBRANCH  19  21
ENDBRANCH  18  19
ENDBRANCH  17  18
ENDBRANCH  15  17
ENDBRANCH  10  14
BRANCH   1  30
ATOM     29  C   UNL     1      39.431  -2.414  15.303  0.00  0.00    +0.000 C 
ATOM     30  C   UNL     1      38.303  -2.002  14.372  0.00  0.00    +0.000 C 
ENDBRANCH   1  30
TORSDOF 8
ENDMDL
MODEL 3
REMARK VINA RESULT:      -7.6      3.437      8.318
REMARK  Name = 
REMARK  8 active torsions:
REMARK  status: ('A' for Active; 'I' for Inactive)
REMARK    1  A    between atoms: C_2  and  N_3
REMARK    2  A    between atoms: C_12  and  N_13
REMARK    3  A    between atoms: C_14  and  C_16
REMARK    4  A    between atoms: C_16  and  O_17
REMARK    5  A    between atoms: O_17  and  C_18
REMARK    6  A    between atoms: C_18  and  C_20
REMARK    7  A    between atoms: C_20  and  C_21
REMARK    8  A    between atoms: C_21  and  C_22
REMARK                            x       y       z     vdW  Elec       q    Type
REMARK                         _______ _______ _______ _____ _____    ______ ____
ROOT
ATOM      1  N   UNL     1      37.277  -1.610  16.975  0.00  0.00    +0.000 N 
ATOM      2  C   UNL     1      38.389  -1.866  16.251  0.00  0.00    +0.000 A 
ATOM      3  C   UNL     1      39.345  -2.861  16.326  0.00  0.00    +0.000 A 
ATOM      4  C   UNL     1      40.394  -2.872  15.437  0.00  0.00    +0.000 A 
ATOM      5  C   UNL     1      40.459  -1.877  14.486  0.00  0.00    +0.000 A 
ATOM      6  C   UNL     1      39.498  -0.891  14.422  0.00  0.00    +0.000 A 
ATOM      7  C   UNL     1      38.439  -0.864  15.307  0.00  0.00    +0.000 A 
ATOM      8  C   UNL     1      37.367  -0.008  15.455  0.00  0.00    +0.000 A 
ATOM      9  C   UNL     1      36.944   1.137  14.789  0.00  0.00    +0.000 A 
ATOM     10  C   UNL     1      35.798   1.811  15.165  0.00  0.00    +0.000 A 
ATOM     11  C   UNL     1      35.082   1.308  16.233  0.00  0.00    +0.000 A 
ATOM     12  C   UNL     1      35.508   0.172  16.890  0.00  0.00    +0.000 A 
ATOM     13  C   UNL     1      36.650  -0.509  16.522  0.00  0.00    +0.000 A 
ENDROOT
BRANCH  10  14
ATOM     14  N   UNL     1      35.353   2.991  14.488  0.00  0.00    +0.000 NA
ATOM     15  C   UNL     1      36.042   4.205  14.756  0.00  0.00    +0.000 C 
ATOM     16  O   UNL     1      37.008   4.262  15.555  0.00  0.00    +0.000 OA
BRANCH  15  17
ATOM     17  C   UNL     1      35.617   5.454  14.079  0.00  0.00    +0.000 C 
BRANCH  17  18
ATOM     18  O   UNL     1      36.610   6.452  14.187  0.00  0.00    +0.000 OA
BRANCH  18  19
ATOM     19  C   UNL     1      36.372   7.673  14.770  0.00  0.00    +0.000 C 
ATOM     20  O   UNL     1      35.494   8.411  14.204  0.00  0.00    +0.000 OA
BRANCH  19  21
ATOM     21  C   UNL     1      37.008   8.229  15.962  0.00  0.00    +0.000 C 
BRANCH  21  22
ATOM     22  C   UNL     1      38.215   7.512  16.450  0.00  0.00    +0.000 C 
BRANCH  22  23
ATOM     23  C   UNL     1      38.443   7.628  17.905  0.00  0.00    +0.000 A 
ATOM     24  C   UNL     1      37.770   8.555  18.634  0.00  0.00    +0.000 A 
ATOM     25  C   UNL     1      37.956   8.693  19.993  0.00  0.00    +0.000 A 
ATOM     26  C   UNL     1      38.862   7.849  20.610  0.00  0.00    +0.000 A 
ATOM     27  C   UNL     1      39.560   6.905  19.921  0.00  0.00    +0.000 A 
ATOM     28  C   UNL     1      39.351   6.793  18.562  0.00  0.00    +0.000 A 
ENDBRANCH  22  23
ENDBRANCH  21  22
ENDBRANCH  19  21
ENDBRANCH  18  19
ENDBRANCH  17  18
ENDBRANCH  15  17
ENDBRANCH  10  14
BRANCH   1  30
ATOM     29  C   UNL     1      37.409  -1.883  19.388  0.00  0.00    +0.000 C 
ATOM     30  C   UNL     1      36.815  -2.417  18.096  0.00  0.00    +0.000 C 
ENDBRANCH   1  30
TORSDOF 8
ENDMDL
MODEL 4
REMARK VINA RESULT:      -7.4      5.959      9.988
REMARK  Name = 
REMARK  8 active torsions:
REMARK  status: ('A' for Active; 'I' for Inactive)
REMARK    1  A    between atoms: C_2  and  N_3
REMARK    2  A    between atoms: C_12  and  N_13
REMARK    3  A    between atoms: C_14  and  C_16
REMARK    4  A    between atoms: C_16  and  O_17
REMARK    5  A    between atoms: O_17  and  C_18
REMARK    6  A    between atoms: C_18  and  C_20
REMARK    7  A    between atoms: C_20  and  C_21
REMARK    8  A    between atoms: C_21  and  C_22
REMARK                            x       y       z     vdW  Elec       q    Type
REMARK                         _______ _______ _______ _____ _____    ______ ____
ROOT
ATOM      1  N   UNL     1      42.636   6.642  17.433  0.00  0.00    +0.000 N 
ATOM      2  C   UNL     1      41.326   6.309  17.467  0.00  0.00    +0.000 A 
ATOM      3  C   UNL     1      40.391   6.097  16.472  0.00  0.00    +0.000 A 
ATOM      4  C   UNL     1      39.099   5.761  16.807  0.00  0.00    +0.000 A 
ATOM      5  C   UNL     1      38.777   5.644  18.141  0.00  0.00    +0.000 A 
ATOM      6  C   UNL     1      39.720   5.857  19.122  0.00  0.00    +0.000 A 
ATOM      7  C   UNL     1      41.020   6.196  18.805  0.00  0.00    +0.000 A 
ATOM      8  C   UNL     1      42.133   6.458  19.578  0.00  0.00    +0.000 A 
ATOM      9  C   UNL     1      42.376   6.484  20.947  0.00  0.00    +0.000 A 
ATOM     10  C   UNL     1      43.624   6.788  21.454  0.00  0.00    +0.000 A 
ATOM     11  C   UNL     1      44.631   7.068  20.551  0.00  0.00    +0.000 A 
ATOM     12  C   UNL     1      44.383   7.040  19.195  0.00  0.00    +0.000 A 
ATOM     13  C   UNL     1      43.140   6.737  18.677  0.00  0.00    +0.000 A 
ENDROOT
BRANCH  10  14
ATOM     14  N   UNL     1      43.886   6.819  22.861  0.00  0.00    +0.000 NA
ATOM     15  C   UNL     1      44.550   5.700  23.434  0.00  0.00    +0.000 C 
ATOM     16  O   UNL     1      44.901   4.710  22.747  0.00  0.00    +0.000 OA
BRANCH  15  17
ATOM     17  C   UNL     1      44.843   5.686  24.887  0.00  0.00    +0.000 C 
BRANCH  17  18
ATOM     18  O   UNL     1      43.774   6.240  25.624  0.00  0.00    +0.000 OA
BRANCH  18  19
ATOM     19  C   UNL     1      43.143   5.560  26.639  0.00  0.00    +0.000 C 
ATOM     20  O   UNL     1      43.306   4.291  26.658  0.00  0.00    +0.000 OA
BRANCH  19  21
ATOM     21  C   UNL     1      42.305   6.116  27.697  0.00  0.00    +0.000 C 
BRANCH  21  22
ATOM     22  C   UNL     1      41.979   5.198  28.820  0.00  0.00    +0.000 C 
BRANCH  22  23
ATOM     23  C   UNL     1      40.757   5.560  29.566  0.00  0.00    +0.000 A 
ATOM     24  C   UNL     1      40.315   4.775  30.582  0.00  0.00    +0.000 A 
ATOM     25  C   UNL     1      39.180   5.081  31.302  0.00  0.00    +0.000 A 
ATOM     26  C   UNL     1      38.487   6.227  30.958  0.00  0.00    +0.000 A 
ATOM     27  C   UNL     1      38.890   7.045  29.947  0.00  0.00    +0.000 A 
ATOM     28  C   UNL     1      40.030   6.711  29.247  0.00  0.00    +0.000 A 
ENDBRANCH  22  23
ENDBRANCH  21  22
ENDBRANCH  19  21
ENDBRANCH  18  19
ENDBRANCH  17  18
ENDBRANCH  15  17
ENDBRANCH  10  14
BRANCH   1  30
ATOM     29  C   UNL     1      43.410   8.351  15.885  0.00  0.00    +0.000 C 
ATOM     30  C   UNL     1      43.402   6.868  16.215  0.00  0.00    +0.000 C 
ENDBRANCH   1  30
TORSDOF 8
ENDMDL
MODEL 5
REMARK VINA RESULT:      -7.4      1.928      3.796
REMARK  Name = 
REMARK  8 active torsions:
REMARK  status: ('A' for Active; 'I' for Inactive)
REMARK    1  A    between atoms: C_2  and  N_3
REMARK    2  A    between atoms: C_12  and  N_13
REMARK    3  A    between atoms: C_14  and  C_16
REMARK    4  A    between atoms: C_16  and  O_17
REMARK    5  A    between atoms: O_17  and  C_18
REMARK    6  A    between atoms: C_18  and  C_20
REMARK    7  A    between atoms: C_20  and  C_21
REMARK    8  A    between atoms: C_21  and  C_22
REMARK                            x       y       z     vdW  Elec       q    Type
REMARK                         _______ _______ _______ _____ _____    ______ ____
ROOT
ATOM      1  N   UNL     1      40.930   6.555  16.200  0.00  0.00    +0.000 N 
ATOM      2  C   UNL     1      41.125   6.687  17.532  0.00  0.00    +0.000 A 
ATOM      3  C   UNL     1      42.062   7.380  18.275  0.00  0.00    +0.000 A 
ATOM      4  C   UNL     1      42.018   7.333  19.649  0.00  0.00    +0.000 A 
ATOM      5  C   UNL     1      41.026   6.588  20.248  0.00  0.00    +0.000 A 
ATOM      6  C   UNL     1      40.097   5.903  19.495  0.00  0.00    +0.000 A 
ATOM      7  C   UNL     1      40.127   5.938  18.115  0.00  0.00    +0.000 A 
ATOM      8  C   UNL     1      39.333   5.356  17.148  0.00  0.00    +0.000 A 
ATOM      9  C   UNL     1      38.219   4.524  17.183  0.00  0.00    +0.000 A 
ATOM     10  C   UNL     1      37.611   4.081  16.024  0.00  0.00    +0.000 A 
ATOM     11  C   UNL     1      38.149   4.494  14.821  0.00  0.00    +0.000 A 
ATOM     12  C   UNL     1      39.255   5.318  14.795  0.00  0.00    +0.000 A 
ATOM     13  C   UNL     1      39.869   5.767  15.946  0.00  0.00    +0.000 A 
ENDROOT
BRANCH  10  14
ATOM     14  N   UNL     1      36.464   3.224  16.047  0.00  0.00    +0.000 NA
ATOM     15  C   UNL     1      36.671   1.839  15.802  0.00  0.00    +0.000 C 
ATOM     16  O   UNL     1      37.810   1.365  15.572  0.00  0.00    +0.000 OA
BRANCH  15  17
ATOM     17  C   UNL     1      35.514   0.913  15.815  0.00  0.00    +0.000 C 
BRANCH  17  18
ATOM     18  O   UNL     1      35.050   0.698  17.131  0.00  0.00    +0.000 OA
BRANCH  18  19
ATOM     19  C   UNL     1      35.224  -0.493  17.793  0.00  0.00    +0.000 C 
ATOM     20  O   UNL     1      34.221  -1.286  17.806  0.00  0.00    +0.000 OA
BRANCH  19  21
ATOM     21  C   UNL     1      36.421  -0.960  18.487  0.00  0.00    +0.000 C 
BRANCH  21  22
ATOM     22  C   UNL     1      36.894  -2.322  18.125  0.00  0.00    +0.000 C 
BRANCH  22  23
ATOM     23  C   UNL     1      37.490  -2.420  16.777  0.00  0.00    +0.000 A 
ATOM     24  C   UNL     1      36.795  -2.989  15.759  0.00  0.00    +0.000 A 
ATOM     25  C   UNL     1      37.317  -3.098  14.487  0.00  0.00    +0.000 A 
ATOM     26  C   UNL     1      38.591  -2.604  14.268  0.00  0.00    +0.000 A 
ATOM     27  C   UNL     1      39.326  -2.026  15.257  0.00  0.00    +0.000 A 
ATOM     28  C   UNL     1      38.774  -1.933  16.518  0.00  0.00    +0.000 A 
ENDBRANCH  22  23
ENDBRANCH  21  22
ENDBRANCH  19  21
ENDBRANCH  18  19
ENDBRANCH  17  18
ENDBRANCH  15  17
ENDBRANCH  10  14
BRANCH   1  30
ATOM     29  C   UNL     1      42.881   6.240  14.783  0.00  0.00    +0.000 C 
ATOM     30  C   UNL     1      41.755   7.181  15.177  0.00  0.00    +0.000 C 
ENDBRANCH   1  30
TORSDOF 8
ENDMDL
MODEL 6
REMARK VINA RESULT:      -7.4      2.791      5.075
REMARK  Name = 
REMARK  8 active torsions:
REMARK  status: ('A' for Active; 'I' for Inactive)
REMARK    1  A    between atoms: C_2  and  N_3
REMARK    2  A    between atoms: C_12  and  N_13
REMARK    3  A    between atoms: C_14  and  C_16
REMARK    4  A    between atoms: C_16  and  O_17
REMARK    5  A    between atoms: O_17  and  C_18
REMARK    6  A    between atoms: C_18  and  C_20
REMARK    7  A    between atoms: C_20  and  C_21
REMARK    8  A    between atoms: C_21  and  C_22
REMARK                            x       y       z     vdW  Elec       q    Type
REMARK                         _______ _______ _______ _____ _____    ______ ____
ROOT
ATOM      1  N   UNL     1      39.431   5.463  15.353  0.00  0.00    +0.000 N 
ATOM      2  C   UNL     1      39.784   5.804  16.613  0.00  0.00    +0.000 A 
ATOM      3  C   UNL     1      40.728   6.681  17.113  0.00  0.00    +0.000 A 
ATOM      4  C   UNL     1      40.872   6.829  18.473  0.00  0.00    +0.000 A 
ATOM      5  C   UNL     1      40.059   6.089  19.304  0.00  0.00    +0.000 A 
ATOM      6  C   UNL     1      39.122   5.219  18.791  0.00  0.00    +0.000 A 
ATOM      7  C   UNL     1      38.964   5.057  17.429  0.00  0.00    +0.000 A 
ATOM      8  C   UNL     1      38.119   4.269  16.674  0.00  0.00    +0.000 A 
ATOM      9  C   UNL     1      37.121   3.351  16.980  0.00  0.00    +0.000 A 
ATOM     10  C   UNL     1      36.418   2.691  15.991  0.00  0.00    +0.000 A 
ATOM     11  C   UNL     1      36.742   2.973  14.679  0.00  0.00    +0.000 A 
ATOM     12  C   UNL     1      37.733   3.885  14.383  0.00  0.00    +0.000 A 
ATOM     13  C   UNL     1      38.441   4.551  15.362  0.00  0.00    +0.000 A 
ENDROOT
BRANCH  10  14
ATOM     14  N   UNL     1      35.389   1.742  16.294  0.00  0.00    +0.000 NA
ATOM     15  C   UNL     1      35.788   0.420  16.630  0.00  0.00    +0.000 C 
ATOM     16  O   UNL     1      36.995   0.076  16.665  0.00  0.00    +0.000 OA
BRANCH  15  17
ATOM     17  C   UNL     1      34.759  -0.597  16.950  0.00  0.00    +0.000 C 
BRANCH  17  18
ATOM     18  O   UNL     1      35.319  -1.893  16.981  0.00  0.00    +0.000 OA
BRANCH  18  19
ATOM     19  C   UNL     1      35.040  -2.845  16.030  0.00  0.00    +0.000 C 
ATOM     20  O   UNL     1      33.838  -3.280  16.001  0.00  0.00    +0.000 OA
BRANCH  19  21
ATOM     21  C   UNL     1      35.956  -3.419  15.049  0.00  0.00    +0.000 C 
BRANCH  21  22
ATOM     22  C   UNL     1      36.691  -2.447  14.198  0.00  0.00    +0.000 C 
BRANCH  22  23
ATOM     23  C   UNL     1      38.145  -2.395  14.454  0.00  0.00    +0.000 A 
ATOM     24  C   UNL     1      38.683  -3.070  15.502  0.00  0.00    +0.000 A 
ATOM     25  C   UNL     1      40.035  -3.046  15.772  0.00  0.00    +0.000 A 
ATOM     26  C   UNL     1      40.847  -2.302  14.934  0.00  0.00    +0.000 A 
ATOM     27  C   UNL     1      40.354  -1.608  13.872  0.00  0.00    +0.000 A 
ATOM     28  C   UNL     1      38.996  -1.653  13.630  0.00  0.00    +0.000 A 
ENDBRANCH  22  23
ENDBRANCH  21  22
ENDBRANCH  19  21
ENDBRANCH  18  19
ENDBRANCH  17  18
ENDBRANCH  15  17
ENDBRANCH  10  14
BRANCH   1  30
ATOM     29  C   UNL     1      41.130   5.074  13.658  0.00  0.00    +0.000 C 
ATOM     30  C   UNL     1      40.036   6.009  14.147  0.00  0.00    +0.000 C 
ENDBRANCH   1  30
TORSDOF 8
ENDMDL
MODEL 7
REMARK VINA RESULT:      -7.4      5.583      8.145
REMARK  Name = 
REMARK  8 active torsions:
REMARK  status: ('A' for Active; 'I' for Inactive)
REMARK    1  A    between atoms: C_2  and  N_3
REMARK    2  A    between atoms: C_12  and  N_13
REMARK    3  A    between atoms: C_14  and  C_16
REMARK    4  A    between atoms: C_16  and  O_17
REMARK    5  A    between atoms: O_17  and  C_18
REMARK    6  A    between atoms: C_18  and  C_20
REMARK    7  A    between atoms: C_20  and  C_21
REMARK    8  A    between atoms: C_21  and  C_22
REMARK                            x       y       z     vdW  Elec       q    Type
REMARK                         _______ _______ _______ _____ _____    ______ ____
ROOT
ATOM      1  N   UNL     1      41.398  -2.440  12.100  0.00  0.00    +0.000 N 
ATOM      2  C   UNL     1      42.530  -1.763  12.396  0.00  0.00    +0.000 A 
ATOM      3  C   UNL     1      43.754  -1.665  11.761  0.00  0.00    +0.000 A 
ATOM      4  C   UNL     1      44.747  -0.884  12.304  0.00  0.00    +0.000 A 
ATOM      5  C   UNL     1      44.487  -0.215  13.480  0.00  0.00    +0.000 A 
ATOM      6  C   UNL     1      43.262  -0.321  14.102  0.00  0.00    +0.000 A 
ATOM      7  C   UNL     1      42.253  -1.100  13.571  0.00  0.00    +0.000 A 
ATOM      8  C   UNL     1      40.965  -1.371  13.986  0.00  0.00    +0.000 A 
ATOM      9  C   UNL     1      40.196  -0.975  15.075  0.00  0.00    +0.000 A 
ATOM     10  C   UNL     1      38.897  -1.416  15.240  0.00  0.00    +0.000 A 
ATOM     11  C   UNL     1      38.384  -2.269  14.284  0.00  0.00    +0.000 A 
ATOM     12  C   UNL     1      39.153  -2.658  13.207  0.00  0.00    +0.000 A 
ATOM     13  C   UNL     1      40.451  -2.223  13.031  0.00  0.00    +0.000 A 
ENDROOT
BRANCH  10  14
ATOM     14  N   UNL     1      38.096  -1.017  16.357  0.00  0.00    +0.000 NA
ATOM     15  C   UNL     1      38.152  -1.818  17.530  0.00  0.00    +0.000 C 
ATOM     16  O   UNL     1      38.872  -2.844  17.603  0.00  0.00    +0.000 OA
BRANCH  15  17
ATOM     17  C   UNL     1      37.339  -1.445  18.712  0.00  0.00    +0.000 C 
BRANCH  17  18
ATOM     18  O   UNL     1      36.709  -0.196  18.521  0.00  0.00    +0.000 OA
BRANCH  18  19
ATOM     19  C   UNL     1      35.479  -0.070  17.920  0.00  0.00    +0.000 C 
ATOM     20  O   UNL     1      34.658  -1.033  18.103  0.00  0.00    +0.000 OA
BRANCH  19  21
ATOM     21  C   UNL     1      35.001   1.035  17.094  0.00  0.00    +0.000 C 
BRANCH  21  22
ATOM     22  C   UNL     1      36.011   2.065  16.736  0.00  0.00    +0.000 C 
BRANCH  22  23
ATOM     23  C   UNL     1      36.667   1.845  15.432  0.00  0.00    +0.000 A 
ATOM     24  C   UNL     1      36.038   1.141  14.456  0.00  0.00    +0.000 A 
ATOM     25  C   UNL     1      36.617   0.916  13.226  0.00  0.00    +0.000 A 
ATOM     26  C   UNL     1      37.881   1.434  13.003  0.00  0.00    +0.000 A 
ATOM     27  C   UNL     1      38.552   2.146  13.951  0.00  0.00    +0.000 A 
ATOM     28  C   UNL     1      37.943   2.353  15.171  0.00  0.00    +0.000 A 
ENDBRANCH  22  23
ENDBRANCH  21  22
ENDBRANCH  19  21
ENDBRANCH  18  19
ENDBRANCH  17  18
ENDBRANCH  15  17
ENDBRANCH  10  14
BRANCH   1  30
ATOM     29  C   UNL     1      40.574  -2.491   9.812  0.00  0.00    +0.000 C 
ATOM     30  C   UNL     1      41.224  -3.289  10.930  0.00  0.00    +0.000 C 
ENDBRANCH   1  30
TORSDOF 8
ENDMDL
MODEL 8
REMARK VINA RESULT:      -7.4      0.905      2.431
REMARK  Name = 
REMARK  8 active torsions:
REMARK  status: ('A' for Active; 'I' for Inactive)
REMARK    1  A    between atoms: C_2  and  N_3
REMARK    2  A    between atoms: C_12  and  N_13
REMARK    3  A    between atoms: C_14  and  C_16
REMARK    4  A    between atoms: C_16  and  O_17
REMARK    5  A    between atoms: O_17  and  C_18
REMARK    6  A    between atoms: C_18  and  C_20
REMARK    7  A    between atoms: C_20  and  C_21
REMARK    8  A    between atoms: C_21  and  C_22
REMARK                            x       y       z     vdW  Elec       q    Type
REMARK                         _______ _______ _______ _____ _____    ______ ____
ROOT
ATOM      1  N   UNL     1      43.660   6.936  17.578  0.00  0.00    +0.000 N 
ATOM      2  C   UNL     1      43.681   6.802  18.924  0.00  0.00    +0.000 A 
ATOM      3  C   UNL     1      44.683   6.961  19.862  0.00  0.00    +0.000 A 
ATOM      4  C   UNL     1      44.413   6.752  21.195  0.00  0.00    +0.000 A 
ATOM      5  C   UNL     1      43.134   6.389  21.556  0.00  0.00    +0.000 A 
ATOM      6  C   UNL     1      42.144   6.236  20.609  0.00  0.00    +0.000 A 
ATOM      7  C   UNL     1      42.398   6.440  19.267  0.00  0.00    +0.000 A 
ATOM      8  C   UNL     1      41.603   6.354  18.143  0.00  0.00    +0.000 A 
ATOM      9  C   UNL     1      40.267   6.036  17.924  0.00  0.00    +0.000 A 
ATOM     10  C   UNL     1      39.724   6.029  16.654  0.00  0.00    +0.000 A 
ATOM     11  C   UNL     1      40.557   6.350  15.600  0.00  0.00    +0.000 A 
ATOM     12  C   UNL     1      41.881   6.665  15.825  0.00  0.00    +0.000 A 
ATOM     13  C   UNL     1      42.434   6.675  17.089  0.00  0.00    +0.000 A 
ENDROOT
BRANCH  10  14
ATOM     14  N   UNL     1      38.351   5.702  16.415  0.00  0.00    +0.000 NA
ATOM     15  C   UNL     1      38.047   4.367  16.033  0.00  0.00    +0.000 C 
ATOM     16  O   UNL     1      38.937   3.492  15.903  0.00  0.00    +0.000 OA
BRANCH  15  17
ATOM     17  C   UNL     1      36.639   3.981  15.775  0.00  0.00    +0.000 C 
BRANCH  17  18
ATOM     18  O   UNL     1      36.436   2.607  16.028  0.00  0.00    +0.000 OA
BRANCH  18  19
ATOM     19  C   UNL     1      35.212   2.091  16.380  0.00  0.00    +0.000 C 
ATOM     20  O   UNL     1      34.187   2.696  15.914  0.00  0.00    +0.000 OA
BRANCH  19  21
ATOM     21  C   UNL     1      34.945   0.932  17.228  0.00  0.00    +0.000 C 
BRANCH  21  22
ATOM     22  C   UNL     1      35.298  -0.391  16.652  0.00  0.00    +0.000 C 
BRANCH  22  23
ATOM     23  C   UNL     1      36.367  -1.105  17.379  0.00  0.00    +0.000 A 
ATOM     24  C   UNL     1      36.348  -1.174  18.735  0.00  0.00    +0.000 A 
ATOM     25  C   UNL     1      37.328  -1.831  19.448  0.00  0.00    +0.000 A 
ATOM     26  C   UNL     1      38.352  -2.430  18.737  0.00  0.00    +0.000 A 
ATOM     27  C   UNL     1      38.415  -2.387  17.377  0.00  0.00    +0.000 A 
ATOM     28  C   UNL     1      37.418  -1.721  16.694  0.00  0.00    +0.000 A 
ENDBRANCH  22  23
ENDBRANCH  21  22
ENDBRANCH  19  21
ENDBRANCH  18  19
ENDBRANCH  17  18
ENDBRANCH  15  17
ENDBRANCH  10  14
BRANCH   1  30
ATOM     29  C   UNL     1      44.683   8.771  16.352  0.00  0.00    +0.000 C 
ATOM     30  C   UNL     1      44.807   7.314  16.766  0.00  0.00    +0.000 C 
ENDBRANCH   1  30
TORSDOF 8
ENDMDL
MODEL 9
REMARK VINA RESULT:      -7.3      5.420      7.465
REMARK  Name = 
REMARK  8 active torsions:
REMARK  status: ('A' for Active; 'I' for Inactive)
REMARK    1  A    between atoms: C_2  and  N_3
REMARK    2  A    between atoms: C_12  and  N_13
REMARK    3  A    between atoms: C_14  and  C_16
REMARK    4  A    between atoms: C_16  and  O_17
REMARK    5  A    between atoms: O_17  and  C_18
REMARK    6  A    between atoms: C_18  and  C_20
REMARK    7  A    between atoms: C_20  and  C_21
REMARK    8  A    between atoms: C_21  and  C_22
REMARK                            x       y       z     vdW  Elec       q    Type
REMARK                         _______ _______ _______ _____ _____    ______ ____
ROOT
ATOM      1  N   UNL     1      36.944   4.439  12.375  0.00  0.00    +0.000 N 
ATOM      2  C   UNL     1      37.109   3.518  11.399  0.00  0.00    +0.000 A 
ATOM      3  C   UNL     1      37.219   3.622  10.026  0.00  0.00    +0.000 A 
ATOM      4  C   UNL     1      37.383   2.487   9.264  0.00  0.00    +0.000 A 
ATOM      5  C   UNL     1      37.433   1.269   9.904  0.00  0.00    +0.000 A 
ATOM      6  C   UNL     1      37.322   1.180  11.275  0.00  0.00    +0.000 A 
ATOM      7  C   UNL     1      37.157   2.307  12.055  0.00  0.00    +0.000 A 
ATOM      8  C   UNL     1      37.024   2.490  13.416  0.00  0.00    +0.000 A 
ATOM      9  C   UNL     1      37.002   1.632  14.510  0.00  0.00    +0.000 A 
ATOM     10  C   UNL     1      36.850   2.107  15.798  0.00  0.00    +0.000 A 
ATOM     11  C   UNL     1      36.717   3.471  15.966  0.00  0.00    +0.000 A 
ATOM     12  C   UNL     1      36.738   4.316  14.876  0.00  0.00    +0.000 A 
ATOM     13  C   UNL     1      36.890   3.853  13.585  0.00  0.00    +0.000 A 
ENDROOT
BRANCH  10  14
ATOM     14  N   UNL     1      36.826   1.234  16.933  0.00  0.00    +0.000 NA
ATOM     15  C   UNL     1      35.556   0.837  17.433  0.00  0.00    +0.000 C 
ATOM     16  O   UNL     1      34.482   1.228  16.913  0.00  0.00    +0.000 OA
BRANCH  15  17
ATOM     17  C   UNL     1      35.480  -0.066  18.606  0.00  0.00    +0.000 C 
BRANCH  17  18
ATOM     18  O   UNL     1      35.994  -1.344  18.297  0.00  0.00    +0.000 OA
BRANCH  18  19
ATOM     19  C   UNL     1      37.342  -1.606  18.238  0.00  0.00    +0.000 C 
ATOM     20  O   UNL     1      38.055  -1.122  19.183  0.00  0.00    +0.000 OA
BRANCH  19  21
ATOM     21  C   UNL     1      38.057  -2.370  17.220  0.00  0.00    +0.000 C 
BRANCH  21  22
ATOM     22  C   UNL     1      37.499  -2.304  15.844  0.00  0.00    +0.000 C 
BRANCH  22  23
ATOM     23  C   UNL     1      38.428  -1.754  14.837  0.00  0.00    +0.000 A 
ATOM     24  C   UNL     1      39.442  -0.933  15.213  0.00  0.00    +0.000 A 
ATOM     25  C   UNL     1      40.330  -0.401  14.302  0.00  0.00    +0.000 A 
ATOM     26  C   UNL     1      40.161  -0.730  12.969  0.00  0.00    +0.000 A 
ATOM     27  C   UNL     1      39.160  -1.549  12.544  0.00  0.00    +0.000 A 
ATOM     28  C   UNL     1      38.289  -2.064  13.481  0.00  0.00    +0.000 A 
ENDBRANCH  22  23
ENDBRANCH  21  22
ENDBRANCH  19  21
ENDBRANCH  18  19
ENDBRANCH  17  18
ENDBRANCH  15  17
ENDBRANCH  10  14
BRANCH   1  30
ATOM     29  C   UNL     1      35.379   6.262  12.002  0.00  0.00    +0.000 C 
ATOM     30  C   UNL     1      36.840   5.873  12.150  0.00  0.00    +0.000 C 
ENDBRANCH   1  30
TORSDOF 8
ENDMDL
MODEL 10
REMARK VINA RESULT:      -7.1      2.414      3.780
REMARK  Name = 
REMARK  8 active torsions:
REMARK  status: ('A' for Active; 'I' for Inactive)
REMARK    1  A    between atoms: C_2  and  N_3
REMARK    2  A    between atoms: C_12  and  N_13
REMARK    3  A    between atoms: C_14  and  C_16
REMARK    4  A    between atoms: C_16  and  O_17
REMARK    5  A    between atoms: O_17  and  C_18
REMARK    6  A    between atoms: C_18  and  C_20
REMARK    7  A    between atoms: C_20  and  C_21
REMARK    8  A    between atoms: C_21  and  C_22
REMARK                            x       y       z     vdW  Elec       q    Type
REMARK                         _______ _______ _______ _____ _____    ______ ____
ROOT
ATOM      1  N   UNL     1      41.107   8.865  18.438  0.00  0.00    +0.000 N 
ATOM      2  C   UNL     1      40.351   9.460  19.388  0.00  0.00    +0.000 A 
ATOM      3  C   UNL     1      40.467  10.664  20.056  0.00  0.00    +0.000 A 
ATOM      4  C   UNL     1      39.527  11.020  20.995  0.00  0.00    +0.000 A 
ATOM      5  C   UNL     1      38.486  10.153  21.243  0.00  0.00    +0.000 A 
ATOM      6  C   UNL     1      38.382   8.955  20.569  0.00  0.00    +0.000 A 
ATOM      7  C   UNL     1      39.316   8.582  19.623  0.00  0.00    +0.000 A 
ATOM      8  C   UNL     1      39.441   7.463  18.824  0.00  0.00    +0.000 A 
ATOM      9  C   UNL     1      38.695   6.301  18.663  0.00  0.00    +0.000 A 
ATOM     10  C   UNL     1      39.069   5.321  17.764  0.00  0.00    +0.000 A 
ATOM     11  C   UNL     1      40.216   5.534  17.025  0.00  0.00    +0.000 A 
ATOM     12  C   UNL     1      40.951   6.689  17.191  0.00  0.00    +0.000 A 
ATOM     13  C   UNL     1      40.587   7.674  18.086  0.00  0.00    +0.000 A 
ENDROOT
BRANCH  10  14
ATOM     14  N   UNL     1      38.309   4.120  17.589  0.00  0.00    +0.000 NA
ATOM     15  C   UNL     1      37.437   4.048  16.469  0.00  0.00    +0.000 C 
ATOM     16  O   UNL     1      37.322   4.994  15.651  0.00  0.00    +0.000 OA
BRANCH  15  17
ATOM     17  C   UNL     1      36.629   2.826  16.246  0.00  0.00    +0.000 C 
BRANCH  17  18
ATOM     18  O   UNL     1      36.835   1.887  17.280  0.00  0.00    +0.000 OA
BRANCH  18  19
ATOM     19  C   UNL     1      36.040   0.778  17.444  0.00  0.00    +0.000 C 
ATOM     20  O   UNL     1      35.815   0.415  18.650  0.00  0.00    +0.000 OA
BRANCH  19  21
ATOM     21  C   UNL     1      35.422  -0.037  16.402  0.00  0.00    +0.000 C 
BRANCH  21  22
ATOM     22  C   UNL     1      36.339  -0.563  15.357  0.00  0.00    +0.000 C 
BRANCH  22  23
ATOM     23  C   UNL     1      37.241  -1.635  15.825  0.00  0.00    +0.000 A 
ATOM     24  C   UNL     1      38.583  -1.530  15.644  0.00  0.00    +0.000 A 
ATOM     25  C   UNL     1      39.457  -2.509  16.067  0.00  0.00    +0.000 A 
ATOM     26  C   UNL     1      38.925  -3.623  16.692  0.00  0.00    +0.000 A 
ATOM     27  C   UNL     1      37.586  -3.773  16.895  0.00  0.00    +0.000 A 
ATOM     28  C   UNL     1      36.740  -2.774  16.460  0.00  0.00    +0.000 A 
ENDBRANCH  22  23
ENDBRANCH  21  22
ENDBRANCH  19  21
ENDBRANCH  18  19
ENDBRANCH  17  18
ENDBRANCH  15  17
ENDBRANCH  10  14
BRANCH   1  30
ATOM     29  C   UNL     1      43.524   8.982  18.683  0.00  0.00    +0.000 C 
ATOM     30  C   UNL     1      42.321   9.433  17.871  0.00  0.00    +0.000 C 
ENDBRANCH   1  30
TORSDOF 8
ENDMDL
