MODEL 1
REMARK VINA RESULT:      -7.3      0.000      0.000
REMARK  Name = 
REMARK  7 active torsions:
REMARK  status: ('A' for Active; 'I' for Inactive)
REMARK    1  A    between atoms: C_2  and  O_3
REMARK    2  A    between atoms: O_3  and  C_4
REMARK    3  A    between atoms: C_7  and  N_8
REMARK    4  A    between atoms: C_11  and  N_12
REMARK    5  A    between atoms: N_12  and  C_13
REMARK    6  A    between atoms: C_19  and  S_20
REMARK    7  A    between atoms: S_20  and  C_21
REMARK                            x       y       z     vdW  Elec       q    Type
REMARK                         _______ _______ _______ _____ _____    ______ ____
ROOT
ATOM      1  N   UNL     1      38.136   3.705  16.015  0.00  0.00    +0.000 N 
ATOM      2  C   UNL     1      38.871   3.204  14.899  0.00  0.00    +0.000 C 
ATOM      3  O   UNL     1      39.945   3.719  14.437  0.00  0.00    +0.000 OA
ATOM      4  C   UNL     1      38.196   2.019  14.383  0.00  0.00    +0.000 C 
ATOM      5  C   UNL     1      37.125   1.800  15.120  0.00  0.00    +0.000 C 
ATOM      6  C   UNL     1      37.039   2.808  16.138  0.00  0.00    +0.000 C 
ATOM      7  O   UNL     1      36.160   2.958  17.052  0.00  0.00    +0.000 OA
ENDROOT
BRANCH   1  11
ATOM      8  C   UNL     1      39.027   7.115  18.390  0.00  0.00    +0.000 A 
ATOM      9  C   UNL     1      38.571   7.238  17.095  0.00  0.00    +0.000 A 
ATOM     10  C   UNL     1      38.282   6.129  16.324  0.00  0.00    +0.000 A 
ATOM     11  C   UNL     1      38.437   4.847  16.819  0.00  0.00    +0.000 A 
ATOM     12  C   UNL     1      38.894   4.731  18.117  0.00  0.00    +0.000 A 
ATOM     13  C   UNL     1      39.186   5.843  18.895  0.00  0.00    +0.000 A 
BRANCH   8  14
ATOM     14  O   UNL     1      39.316   8.231  19.162  0.00  0.00    +0.000 OA
BRANCH  14  16
ATOM     15  C   UNL     1      37.361   8.898  20.299  0.00  0.00    +0.000 C 
ATOM     16  C   UNL     1      38.804   8.446  20.439  0.00  0.00    +0.000 C 
ENDBRANCH  14  16
ENDBRANCH   8  14
ENDBRANCH   1  11
BRANCH   4  17
ATOM     17  N   UNL     1      38.668   1.276  13.271  0.00  0.00    +0.000 NA
BRANCH  17  18
ATOM     18  C   UNL     1      39.214  -0.019  13.487  0.00  0.00    +0.000 A 
ATOM     19  C   UNL     1      40.116  -0.252  14.504  0.00  0.00    +0.000 A 
ATOM     20  C   UNL     1      40.654  -1.503  14.724  0.00  0.00    +0.000 A 
ATOM     21  C   UNL     1      40.299  -2.562  13.927  0.00  0.00    +0.000 A 
ATOM     22  C   UNL     1      39.391  -2.362  12.892  0.00  0.00    +0.000 A 
ATOM     23  C   UNL     1      38.867  -1.094  12.694  0.00  0.00    +0.000 A 
ENDBRANCH  17  18
ENDBRANCH   4  17
BRANCH   5  24
ATOM     24  S   UNL     1      35.944   0.476  14.917  0.00  0.00    +0.000 S 
BRANCH  24  25
ATOM     25  C   UNL     1      36.569  -1.078  15.526  0.00  0.00    +0.000 A 
ATOM     26  C   UNL     1      36.260  -2.286  14.913  0.00  0.00    +0.000 A 
ATOM     27  C   UNL     1      36.763  -3.472  15.410  0.00  0.00    +0.000 A 
ATOM     28  C   UNL     1      37.582  -3.517  16.521  0.00  0.00    +0.000 A 
ATOM     29  C   UNL     1      38.099  -4.827  17.017  0.00  0.00    +0.000 C 
ATOM     30  C   UNL     1      37.890  -2.319  17.129  0.00  0.00    +0.000 A 
ATOM     31  C   UNL     1      37.386  -1.127  16.632  0.00  0.00    +0.000 A 
ENDBRANCH  24  25
ENDBRANCH   5  24
TORSDOF 7
ENDMDL
MODEL 2
REMARK VINA RESULT:      -7.1      3.485      8.540
REMARK  Name = 
REMARK  7 active torsions:
REMARK  status: ('A' for Active; 'I' for Inactive)
REMARK    1  A    between atoms: C_2  and  O_3
REMARK    2  A    between atoms: O_3  and  C_4
REMARK    3  A    between atoms: C_7  and  N_8
REMARK    4  A    between atoms: C_11  and  N_12
REMARK    5  A    between atoms: N_12  and  C_13
REMARK    6  A    between atoms: C_19  and  S_20
REMARK    7  A    between atoms: S_20  and  C_21
REMARK                            x       y       z     vdW  Elec       q    Type
REMARK                         _______ _______ _______ _____ _____    ______ ____
ROOT
ATOM      1  N   UNL     1      36.270   2.396  15.370  0.00  0.00    +0.000 N 
ATOM      2  C   UNL     1      35.381   3.464  15.040  0.00  0.00    +0.000 C 
ATOM      3  O   UNL     1      34.111   3.357  14.941  0.00  0.00    +0.000 OA
ATOM      4  C   UNL     1      36.158   4.680  14.838  0.00  0.00    +0.000 C 
ATOM      5  C   UNL     1      37.431   4.393  15.027  0.00  0.00    +0.000 C 
ATOM      6  C   UNL     1      37.557   3.001  15.356  0.00  0.00    +0.000 C 
ATOM      7  O   UNL     1      38.609   2.325  15.613  0.00  0.00    +0.000 OA
ENDROOT
BRANCH   1  11
ATOM      8  C   UNL     1      35.290  -1.659  16.179  0.00  0.00    +0.000 A 
ATOM      9  C   UNL     1      36.093  -1.310  15.114  0.00  0.00    +0.000 A 
ATOM     10  C   UNL     1      36.410   0.008  14.852  0.00  0.00    +0.000 A 
ATOM     11  C   UNL     1      35.936   1.035  15.648  0.00  0.00    +0.000 A 
ATOM     12  C   UNL     1      35.133   0.678  16.713  0.00  0.00    +0.000 A 
ATOM     13  C   UNL     1      34.813  -0.645  16.980  0.00  0.00    +0.000 A 
BRANCH   8  14
ATOM     14  O   UNL     1      34.974  -2.985  16.441  0.00  0.00    +0.000 OA
BRANCH  14  16
ATOM     15  C   UNL     1      33.615  -4.297  15.030  0.00  0.00    +0.000 C 
ATOM     16  C   UNL     1      35.032  -4.000  15.489  0.00  0.00    +0.000 C 
ENDBRANCH  14  16
ENDBRANCH   8  14
ENDBRANCH   1  11
BRANCH   4  17
ATOM     17  N   UNL     1      35.578   5.927  14.496  0.00  0.00    +0.000 NA
BRANCH  17  18
ATOM     18  C   UNL     1      35.278   6.201  13.133  0.00  0.00    +0.000 A 
ATOM     19  C   UNL     1      34.144   6.902  12.780  0.00  0.00    +0.000 A 
ATOM     20  C   UNL     1      33.840   7.174  11.462  0.00  0.00    +0.000 A 
ATOM     21  C   UNL     1      34.672   6.750  10.456  0.00  0.00    +0.000 A 
ATOM     22  C   UNL     1      35.825   6.041  10.778  0.00  0.00    +0.000 A 
ATOM     23  C   UNL     1      36.104   5.781  12.110  0.00  0.00    +0.000 A 
ENDBRANCH  17  18
ENDBRANCH   4  17
BRANCH   5  24
ATOM     24  S   UNL     1      38.809   5.523  14.902  0.00  0.00    +0.000 S 
BRANCH  24  25
ATOM     25  C   UNL     1      39.595   5.796  16.477  0.00  0.00    +0.000 A 
ATOM     26  C   UNL     1      40.904   6.251  16.577  0.00  0.00    +0.000 A 
ATOM     27  C   UNL     1      41.482   6.454  17.815  0.00  0.00    +0.000 A 
ATOM     28  C   UNL     1      40.802   6.220  18.994  0.00  0.00    +0.000 A 
ATOM     29  C   UNL     1      41.475   6.456  20.306  0.00  0.00    +0.000 C 
ATOM     30  C   UNL     1      39.503   5.769  18.896  0.00  0.00    +0.000 A 
ATOM     31  C   UNL     1      38.920   5.564  17.655  0.00  0.00    +0.000 A 
ENDBRANCH  24  25
ENDBRANCH   5  24
TORSDOF 7
ENDMDL
MODEL 3
REMARK VINA RESULT:      -6.8      4.138      7.828
REMARK  Name = 
REMARK  7 active torsions:
REMARK  status: ('A' for Active; 'I' for Inactive)
REMARK    1  A    between atoms: C_2  and  O_3
REMARK    2  A    between atoms: O_3  and  C_4
REMARK    3  A    between atoms: C_7  and  N_8
REMARK    4  A    between atoms: C_11  and  N_12
REMARK    5  A    between atoms: N_12  and  C_13
REMARK    6  A    between atoms: C_19  and  S_20
REMARK    7  A    between atoms: S_20  and  C_21
REMARK                            x       y       z     vdW  Elec       q    Type
REMARK                         _______ _______ _______ _____ _____    ______ ____
ROOT
ATOM      1  N   UNL     1      36.208   5.170  14.185  0.00  0.00    +0.000 N 
ATOM      2  C   UNL     1      35.763   4.024  14.911  0.00  0.00    +0.000 C 
ATOM      3  O   UNL     1      34.706   3.355  14.651  0.00  0.00    +0.000 OA
ATOM      4  C   UNL     1      36.708   3.750  15.986  0.00  0.00    +0.000 C 
ATOM      5  C   UNL     1      37.667   4.654  15.933  0.00  0.00    +0.000 C 
ATOM      6  C   UNL     1      37.408   5.553  14.844  0.00  0.00    +0.000 C 
ATOM      7  O   UNL     1      38.087   6.561  14.452  0.00  0.00    +0.000 OA
ENDROOT
BRANCH   1  11
ATOM      8  C   UNL     1      34.372   6.994  10.814  0.00  0.00    +0.000 A 
ATOM      9  C   UNL     1      35.521   6.242  10.690  0.00  0.00    +0.000 A 
ATOM     10  C   UNL     1      36.117   5.650  11.786  0.00  0.00    +0.000 A 
ATOM     11  C   UNL     1      35.585   5.786  13.056  0.00  0.00    +0.000 A 
ATOM     12  C   UNL     1      34.434   6.539  13.173  0.00  0.00    +0.000 A 
ATOM     13  C   UNL     1      33.832   7.135  12.073  0.00  0.00    +0.000 A 
BRANCH   8  14
ATOM     14  O   UNL     1      33.775   7.587   9.710  0.00  0.00    +0.000 OA
BRANCH  14  16
ATOM     15  C   UNL     1      33.446   6.460   7.665  0.00  0.00    +0.000 C 
ATOM     16  C   UNL     1      34.272   7.492   8.413  0.00  0.00    +0.000 C 
ENDBRANCH  14  16
ENDBRANCH   8  14
ENDBRANCH   1  11
BRANCH   4  17
ATOM     17  N   UNL     1      36.560   2.675  16.899  0.00  0.00    +0.000 NA
BRANCH  17  18
ATOM     18  C   UNL     1      36.408   1.355  16.393  0.00  0.00    +0.000 A 
ATOM     19  C   UNL     1      35.433   0.512  16.885  0.00  0.00    +0.000 A 
ATOM     20  C   UNL     1      35.274  -0.771  16.405  0.00  0.00    +0.000 A 
ATOM     21  C   UNL     1      36.092  -1.248  15.411  0.00  0.00    +0.000 A 
ATOM     22  C   UNL     1      37.086  -0.424  14.893  0.00  0.00    +0.000 A 
ATOM     23  C   UNL     1      37.223   0.861  15.395  0.00  0.00    +0.000 A 
ENDBRANCH  17  18
ENDBRANCH   4  17
BRANCH   5  24
ATOM     24  S   UNL     1      39.077   4.778  17.023  0.00  0.00    +0.000 S 
BRANCH  24  25
ATOM     25  C   UNL     1      38.907   6.116  18.187  0.00  0.00    +0.000 A 
ATOM     26  C   UNL     1      37.994   7.146  17.996  0.00  0.00    +0.000 A 
ATOM     27  C   UNL     1      37.888   8.167  18.920  0.00  0.00    +0.000 A 
ATOM     28  C   UNL     1      38.669   8.216  20.058  0.00  0.00    +0.000 A 
ATOM     29  C   UNL     1      38.513   9.344  21.024  0.00  0.00    +0.000 C 
ATOM     30  C   UNL     1      39.574   7.194  20.249  0.00  0.00    +0.000 A 
ATOM     31  C   UNL     1      39.683   6.169  19.324  0.00  0.00    +0.000 A 
ENDBRANCH  24  25
ENDBRANCH   5  24
TORSDOF 7
ENDMDL
MODEL 4
REMARK VINA RESULT:      -6.7      1.230      3.292
REMARK  Name = 
REMARK  7 active torsions:
REMARK  status: ('A' for Active; 'I' for Inactive)
REMARK    1  A    between atoms: C_2  and  O_3
REMARK    2  A    between atoms: O_3  and  C_4
REMARK    3  A    between atoms: C_7  and  N_8
REMARK    4  A    between atoms: C_11  and  N_12
REMARK    5  A    between atoms: N_12  and  C_13
REMARK    6  A    between atoms: C_19  and  S_20
REMARK    7  A    between atoms: S_20  and  C_21
REMARK                            x       y       z     vdW  Elec       q    Type
REMARK                         _______ _______ _______ _____ _____    ______ ____
ROOT
ATOM      1  N   UNL     1      38.039   3.734  15.916  0.00  0.00    +0.000 N 
ATOM      2  C   UNL     1      37.187   2.620  16.183  0.00  0.00    +0.000 C 
ATOM      3  O   UNL     1      36.524   2.445  17.261  0.00  0.00    +0.000 OA
ATOM      4  C   UNL     1      37.202   1.727  15.031  0.00  0.00    +0.000 C 
ATOM      5  C   UNL     1      38.000   2.245  14.118  0.00  0.00    +0.000 C 
ATOM      6  C   UNL     1      38.543   3.479  14.611  0.00  0.00    +0.000 C 
ATOM      7  O   UNL     1      39.352   4.288  14.043  0.00  0.00    +0.000 OA
ENDROOT
BRANCH   1  11
ATOM      8  C   UNL     1      38.862   7.055  18.437  0.00  0.00    +0.000 A 
ATOM      9  C   UNL     1      38.349   7.222  17.169  0.00  0.00    +0.000 A 
ATOM     10  C   UNL     1      38.082   6.142  16.350  0.00  0.00    +0.000 A 
ATOM     11  C   UNL     1      38.318   4.846  16.769  0.00  0.00    +0.000 A 
ATOM     12  C   UNL     1      38.832   4.685  18.041  0.00  0.00    +0.000 A 
ATOM     13  C   UNL     1      39.101   5.768  18.866  0.00  0.00    +0.000 A 
BRANCH   8  14
ATOM     14  O   UNL     1      39.128   8.142  19.258  0.00  0.00    +0.000 OA
BRANCH  14  16
ATOM     15  C   UNL     1      38.514   9.583  21.020  0.00  0.00    +0.000 C 
ATOM     16  C   UNL     1      38.878   8.162  20.627  0.00  0.00    +0.000 C 
ENDBRANCH  14  16
ENDBRANCH   8  14
ENDBRANCH   1  11
BRANCH   4  17
ATOM     17  N   UNL     1      36.459   0.522  14.970  0.00  0.00    +0.000 NA
BRANCH  17  18
ATOM     18  C   UNL     1      37.136  -0.718  15.134  0.00  0.00    +0.000 A 
ATOM     19  C   UNL     1      36.874  -1.788  14.305  0.00  0.00    +0.000 A 
ATOM     20  C   UNL     1      37.522  -2.997  14.453  0.00  0.00    +0.000 A 
ATOM     21  C   UNL     1      38.459  -3.165  15.442  0.00  0.00    +0.000 A 
ATOM     22  C   UNL     1      38.748  -2.106  16.296  0.00  0.00    +0.000 A 
ATOM     23  C   UNL     1      38.080  -0.903  16.123  0.00  0.00    +0.000 A 
ENDBRANCH  17  18
ENDBRANCH   4  17
BRANCH   5  24
ATOM     24  S   UNL     1      38.376   1.553  12.514  0.00  0.00    +0.000 S 
BRANCH  24  25
ATOM     25  C   UNL     1      39.431   0.123  12.633  0.00  0.00    +0.000 A 
ATOM     26  C   UNL     1      40.452   0.037  13.572  0.00  0.00    +0.000 A 
ATOM     27  C   UNL     1      41.250  -1.088  13.637  0.00  0.00    +0.000 A 
ATOM     28  C   UNL     1      41.079  -2.165  12.789  0.00  0.00    +0.000 A 
ATOM     29  C   UNL     1      41.971  -3.356  12.903  0.00  0.00    +0.000 C 
ATOM     30  C   UNL     1      40.066  -2.081  11.857  0.00  0.00    +0.000 A 
ATOM     31  C   UNL     1      39.263  -0.953  11.790  0.00  0.00    +0.000 A 
ENDBRANCH  24  25
ENDBRANCH   5  24
TORSDOF 7
ENDMDL
MODEL 5
REMARK VINA RESULT:      -6.6      3.403      8.372
REMARK  Name = 
REMARK  7 active torsions:
REMARK  status: ('A' for Active; 'I' for Inactive)
REMARK    1  A    between atoms: C_2  and  O_3
REMARK    2  A    between atoms: O_3  and  C_4
REMARK    3  A    between atoms: C_7  and  N_8
REMARK    4  A    between atoms: C_11  and  N_12
REMARK    5  A    between atoms: N_12  and  C_13
REMARK    6  A    between atoms: C_19  and  S_20
REMARK    7  A    between atoms: S_20  and  C_21
REMARK                            x       y       z     vdW  Elec       q    Type
REMARK                         _______ _______ _______ _____ _____    ______ ____
ROOT
ATOM      1  N   UNL     1      37.548   2.943  15.041  0.00  0.00    +0.000 N 
ATOM      2  C   UNL     1      37.325   3.686  13.841  0.00  0.00    +0.000 C 
ATOM      3  O   UNL     1      37.055   3.175  12.702  0.00  0.00    +0.000 OA
ATOM      4  C   UNL     1      37.457   5.108  14.135  0.00  0.00    +0.000 C 
ATOM      5  C   UNL     1      37.740   5.240  15.416  0.00  0.00    +0.000 C 
ATOM      6  C   UNL     1      37.808   3.940  16.021  0.00  0.00    +0.000 C 
ATOM      7  O   UNL     1      38.055   3.627  17.235  0.00  0.00    +0.000 OA
ENDROOT
BRANCH   1  11
ATOM      8  C   UNL     1      37.433  -1.274  15.554  0.00  0.00    +0.000 A 
ATOM      9  C   UNL     1      36.398  -0.467  15.977  0.00  0.00    +0.000 A 
ATOM     10  C   UNL     1      36.436   0.903  15.810  0.00  0.00    +0.000 A 
ATOM     11  C   UNL     1      37.516   1.525  15.210  0.00  0.00    +0.000 A 
ATOM     12  C   UNL     1      38.549   0.712  14.788  0.00  0.00    +0.000 A 
ATOM     13  C   UNL     1      38.514  -0.666  14.954  0.00  0.00    +0.000 A 
BRANCH   8  14
ATOM     14  O   UNL     1      37.391  -2.650  15.722  0.00  0.00    +0.000 OA
BRANCH  14  16
ATOM     15  C   UNL     1      38.616  -3.539  17.530  0.00  0.00    +0.000 C 
ATOM     16  C   UNL     1      37.235  -3.278  16.956  0.00  0.00    +0.000 C 
ENDBRANCH  14  16
ENDBRANCH   8  14
ENDBRANCH   1  11
BRANCH   4  17
ATOM     17  N   UNL     1      37.296   6.123  13.159  0.00  0.00    +0.000 NA
BRANCH  17  18
ATOM     18  C   UNL     1      35.985   6.464  12.725  0.00  0.00    +0.000 A 
ATOM     19  C   UNL     1      35.701   6.641  11.387  0.00  0.00    +0.000 A 
ATOM     20  C   UNL     1      34.435   6.973  10.952  0.00  0.00    +0.000 A 
ATOM     21  C   UNL     1      33.412   7.136  11.853  0.00  0.00    +0.000 A 
ATOM     22  C   UNL     1      33.664   6.964  13.210  0.00  0.00    +0.000 A 
ATOM     23  C   UNL     1      34.946   6.631  13.618  0.00  0.00    +0.000 A 
ENDBRANCH  17  18
ENDBRANCH   4  17
BRANCH   5  24
ATOM     24  S   UNL     1      38.005   6.772  16.297  0.00  0.00    +0.000 S 
BRANCH  24  25
ATOM     25  C   UNL     1      39.285   6.624  17.526  0.00  0.00    +0.000 A 
ATOM     26  C   UNL     1      40.628   6.525  17.182  0.00  0.00    +0.000 A 
ATOM     27  C   UNL     1      41.595   6.413  18.161  0.00  0.00    +0.000 A 
ATOM     28  C   UNL     1      41.284   6.393  19.507  0.00  0.00    +0.000 A 
ATOM     29  C   UNL     1      42.369   6.270  20.525  0.00  0.00    +0.000 C 
ATOM     30  C   UNL     1      39.952   6.493  19.850  0.00  0.00    +0.000 A 
ATOM     31  C   UNL     1      38.979   6.605  18.869  0.00  0.00    +0.000 A 
ENDBRANCH  24  25
ENDBRANCH   5  24
TORSDOF 7
ENDMDL
MODEL 6
REMARK VINA RESULT:      -6.5      3.046      4.899
REMARK  Name = 
REMARK  7 active torsions:
REMARK  status: ('A' for Active; 'I' for Inactive)
REMARK    1  A    between atoms: C_2  and  O_3
REMARK    2  A    between atoms: O_3  and  C_4
REMARK    3  A    between atoms: C_7  and  N_8
REMARK    4  A    between atoms: C_11  and  N_12
REMARK    5  A    between atoms: N_12  and  C_13
REMARK    6  A    between atoms: C_19  and  S_20
REMARK    7  A    between atoms: S_20  and  C_21
REMARK                            x       y       z     vdW  Elec       q    Type
REMARK                         _______ _______ _______ _____ _____    ______ ____
ROOT
ATOM      1  N   UNL     1      38.348   5.171  16.599  0.00  0.00    +0.000 N 
ATOM      2  C   UNL     1      38.071   5.557  15.252  0.00  0.00    +0.000 C 
ATOM      3  O   UNL     1      38.530   6.603  14.680  0.00  0.00    +0.000 OA
ATOM      4  C   UNL     1      37.188   4.566  14.649  0.00  0.00    +0.000 C 
ATOM      5  C   UNL     1      36.934   3.637  15.549  0.00  0.00    +0.000 C 
ATOM      6  C   UNL     1      37.622   3.960  16.767  0.00  0.00    +0.000 C 
ATOM      7  O   UNL     1      37.642   3.325  17.876  0.00  0.00    +0.000 OA
ENDROOT
BRANCH   1  11
ATOM      8  C   UNL     1      40.798   7.188  19.425  0.00  0.00    +0.000 A 
ATOM      9  C   UNL     1      41.339   6.538  18.337  0.00  0.00    +0.000 A 
ATOM     10  C   UNL     1      40.541   5.882  17.419  0.00  0.00    +0.000 A 
ATOM     11  C   UNL     1      39.165   5.852  17.553  0.00  0.00    +0.000 A 
ATOM     12  C   UNL     1      38.630   6.505  18.645  0.00  0.00    +0.000 A 
ATOM     13  C   UNL     1      39.428   7.165  19.569  0.00  0.00    +0.000 A 
BRANCH   8  14
ATOM     14  O   UNL     1      41.602   7.846  20.345  0.00  0.00    +0.000 OA
BRANCH  14  16
ATOM     15  C   UNL     1      43.195   6.550  21.503  0.00  0.00    +0.000 C 
ATOM     16  C   UNL     1      42.973   7.638  20.468  0.00  0.00    +0.000 C 
ENDBRANCH  14  16
ENDBRANCH   8  14
ENDBRANCH   1  11
BRANCH   4  17
ATOM     17  N   UNL     1      36.719   4.650  13.314  0.00  0.00    +0.000 NA
BRANCH  17  18
ATOM     18  C   UNL     1      35.662   5.550  13.008  0.00  0.00    +0.000 A 
ATOM     19  C   UNL     1      35.548   6.116  11.755  0.00  0.00    +0.000 A 
ATOM     20  C   UNL     1      34.529   6.991  11.443  0.00  0.00    +0.000 A 
ATOM     21  C   UNL     1      33.588   7.324  12.386  0.00  0.00    +0.000 A 
ATOM     22  C   UNL     1      33.672   6.772  13.660  0.00  0.00    +0.000 A 
ATOM     23  C   UNL     1      34.708   5.896  13.944  0.00  0.00    +0.000 A 
ENDBRANCH  17  18
ENDBRANCH   4  17
BRANCH   5  24
ATOM     24  S   UNL     1      35.905   2.193  15.331  0.00  0.00    +0.000 S 
BRANCH  24  25
ATOM     25  C   UNL     1      36.769   0.688  15.736  0.00  0.00    +0.000 A 
ATOM     26  C   UNL     1      37.863   0.248  15.001  0.00  0.00    +0.000 A 
ATOM     27  C   UNL     1      38.510  -0.923  15.343  0.00  0.00    +0.000 A 
ATOM     28  C   UNL     1      38.111  -1.702  16.412  0.00  0.00    +0.000 A 
ATOM     29  C   UNL     1      38.847  -2.959  16.738  0.00  0.00    +0.000 C 
ATOM     30  C   UNL     1      37.026  -1.265  17.142  0.00  0.00    +0.000 A 
ATOM     31  C   UNL     1      36.375  -0.091  16.801  0.00  0.00    +0.000 A 
ENDBRANCH  24  25
ENDBRANCH   5  24
TORSDOF 7
ENDMDL
MODEL 7
REMARK VINA RESULT:      -6.5      3.139      9.362
REMARK  Name = 
REMARK  7 active torsions:
REMARK  status: ('A' for Active; 'I' for Inactive)
REMARK    1  A    between atoms: C_2  and  O_3
REMARK    2  A    between atoms: O_3  and  C_4
REMARK    3  A    between atoms: C_7  and  N_8
REMARK    4  A    between atoms: C_11  and  N_12
REMARK    5  A    between atoms: N_12  and  C_13
REMARK    6  A    between atoms: C_19  and  S_20
REMARK    7  A    between atoms: S_20  and  C_21
REMARK                            x       y       z     vdW  Elec       q    Type
REMARK                         _______ _______ _______ _____ _____    ______ ____
ROOT
ATOM      1  N   UNL     1      36.866   3.716  15.709  0.00  0.00    +0.000 N 
ATOM      2  C   UNL     1      37.875   4.374  16.476  0.00  0.00    +0.000 C 
ATOM      3  O   UNL     1      38.504   3.855  17.460  0.00  0.00    +0.000 OA
ATOM      4  C   UNL     1      38.064   5.720  15.951  0.00  0.00    +0.000 C 
ATOM      5  C   UNL     1      37.237   5.888  14.937  0.00  0.00    +0.000 C 
ATOM      6  C   UNL     1      36.476   4.687  14.746  0.00  0.00    +0.000 C 
ATOM      7  O   UNL     1      35.573   4.433  13.878  0.00  0.00    +0.000 OA
ENDROOT
BRANCH   1  11
ATOM      8  C   UNL     1      35.365  -0.227  16.225  0.00  0.00    +0.000 A 
ATOM      9  C   UNL     1      34.827   0.844  16.906  0.00  0.00    +0.000 A 
ATOM     10  C   UNL     1      35.316   2.125  16.738  0.00  0.00    +0.000 A 
ATOM     11  C   UNL     1      36.366   2.388  15.878  0.00  0.00    +0.000 A 
ATOM     12  C   UNL     1      36.901   1.311  15.199  0.00  0.00    +0.000 A 
ATOM     13  C   UNL     1      36.412   0.022  15.365  0.00  0.00    +0.000 A 
BRANCH   8  14
ATOM     14  O   UNL     1      34.872  -1.512  16.396  0.00  0.00    +0.000 OA
BRANCH  14  16
ATOM     15  C   UNL     1      34.867  -3.554  15.216  0.00  0.00    +0.000 C 
ATOM     16  C   UNL     1      35.623  -2.667  16.189  0.00  0.00    +0.000 C 
ENDBRANCH  14  16
ENDBRANCH   8  14
ENDBRANCH   1  11
BRANCH   4  17
ATOM     17  N   UNL     1      38.997   6.642  16.488  0.00  0.00    +0.000 NA
BRANCH  17  18
ATOM     18  C   UNL     1      38.808   7.126  17.812  0.00  0.00    +0.000 A 
ATOM     19  C   UNL     1      39.632   6.723  18.842  0.00  0.00    +0.000 A 
ATOM     20  C   UNL     1      39.459   7.183  20.131  0.00  0.00    +0.000 A 
ATOM     21  C   UNL     1      38.450   8.066  20.424  0.00  0.00    +0.000 A 
ATOM     22  C   UNL     1      37.601   8.493  19.409  0.00  0.00    +0.000 A 
ATOM     23  C   UNL     1      37.798   8.014  18.123  0.00  0.00    +0.000 A 
ENDBRANCH  17  18
ENDBRANCH   4  17
BRANCH   5  24
ATOM     24  S   UNL     1      37.060   7.358  13.938  0.00  0.00    +0.000 S 
BRANCH  24  25
ATOM     25  C   UNL     1      36.018   8.575  14.717  0.00  0.00    +0.000 A 
ATOM     26  C   UNL     1      34.643   8.406  14.825  0.00  0.00    +0.000 A 
ATOM     27  C   UNL     1      33.865   9.369  15.437  0.00  0.00    +0.000 A 
ATOM     28  C   UNL     1      34.403  10.528  15.962  0.00  0.00    +0.000 A 
ATOM     29  C   UNL     1      33.516  11.537  16.613  0.00  0.00    +0.000 C 
ATOM     30  C   UNL     1      35.768  10.696  15.856  0.00  0.00    +0.000 A 
ATOM     31  C   UNL     1      36.550   9.731  15.243  0.00  0.00    +0.000 A 
ENDBRANCH  24  25
ENDBRANCH   5  24
TORSDOF 7
ENDMDL
MODEL 8
REMARK VINA RESULT:      -6.4     26.957     28.738
REMARK  Name = 
REMARK  7 active torsions:
REMARK  status: ('A' for Active; 'I' for Inactive)
REMARK    1  A    between atoms: C_2  and  O_3
REMARK    2  A    between atoms: O_3  and  C_4
REMARK    3  A    between atoms: C_7  and  N_8
REMARK    4  A    between atoms: C_11  and  N_12
REMARK    5  A    between atoms: N_12  and  C_13
REMARK    6  A    between atoms: C_19  and  S_20
REMARK    7  A    between atoms: S_20  and  C_21
REMARK                            x       y       z     vdW  Elec       q    Type
REMARK                         _______ _______ _______ _____ _____    ______ ____
ROOT
ATOM      1  N   UNL     1      26.457  15.246  38.278  0.00  0.00    +0.000 N 
ATOM      2  C   UNL     1      27.756  15.320  38.868  0.00  0.00    +0.000 C 
ATOM      3  O   UNL     1      28.778  15.862  38.326  0.00  0.00    +0.000 OA
ATOM      4  C   UNL     1      27.717  14.679  40.176  0.00  0.00    +0.000 C 
ATOM      5  C   UNL     1      26.491  14.241  40.386  0.00  0.00    +0.000 C 
ATOM      6  C   UNL     1      25.675  14.563  39.249  0.00  0.00    +0.000 C 
ATOM      7  O   UNL     1      24.437  14.318  39.050  0.00  0.00    +0.000 OA
ENDROOT
BRANCH   1  11
ATOM      8  C   UNL     1      25.225  16.751  34.499  0.00  0.00    +0.000 A 
ATOM      9  C   UNL     1      25.054  17.480  35.656  0.00  0.00    +0.000 A 
ATOM     10  C   UNL     1      25.454  16.990  36.884  0.00  0.00    +0.000 A 
ATOM     11  C   UNL     1      26.046  15.746  37.004  0.00  0.00    +0.000 A 
ATOM     12  C   UNL     1      26.215  15.021  35.841  0.00  0.00    +0.000 A 
ATOM     13  C   UNL     1      25.814  15.510  34.606  0.00  0.00    +0.000 A 
BRANCH   8  14
ATOM     14  O   UNL     1      24.822  17.246  33.267  0.00  0.00    +0.000 OA
BRANCH  14  16
ATOM     15  C   UNL     1      24.128  18.733  31.574  0.00  0.00    +0.000 C 
ATOM     16  C   UNL     1      24.389  18.553  33.059  0.00  0.00    +0.000 C 
ENDBRANCH  14  16
ENDBRANCH   8  14
ENDBRANCH   1  11
BRANCH   4  17
ATOM     17  N   UNL     1      28.845  14.580  41.028  0.00  0.00    +0.000 NA
BRANCH  17  18
ATOM     18  C   UNL     1      29.585  13.365  41.058  0.00  0.00    +0.000 A 
ATOM     19  C   UNL     1      29.895  12.692  39.895  0.00  0.00    +0.000 A 
ATOM     20  C   UNL     1      30.610  11.512  39.909  0.00  0.00    +0.000 A 
ATOM     21  C   UNL     1      31.038  10.973  41.096  0.00  0.00    +0.000 A 
ATOM     22  C   UNL     1      30.742  11.627  42.288  0.00  0.00    +0.000 A 
ATOM     23  C   UNL     1      30.022  12.810  42.244  0.00  0.00    +0.000 A 
ENDBRANCH  17  18
ENDBRANCH   4  17
BRANCH   5  24
ATOM     24  S   UNL     1      25.899  13.380  41.834  0.00  0.00    +0.000 S 
BRANCH  24  25
ATOM     25  C   UNL     1      26.625  11.761  41.994  0.00  0.00    +0.000 A 
ATOM     26  C   UNL     1      26.953  11.221  43.231  0.00  0.00    +0.000 A 
ATOM     27  C   UNL     1      27.514   9.962  43.319  0.00  0.00    +0.000 A 
ATOM     28  C   UNL     1      27.773   9.190  42.203  0.00  0.00    +0.000 A 
ATOM     29  C   UNL     1      28.380   7.835  42.355  0.00  0.00    +0.000 C 
ATOM     30  C   UNL     1      27.446   9.725  40.975  0.00  0.00    +0.000 A 
ATOM     31  C   UNL     1      26.884  10.988  40.884  0.00  0.00    +0.000 A 
ENDBRANCH  24  25
ENDBRANCH   5  24
TORSDOF 7
ENDMDL
MODEL 9
REMARK VINA RESULT:      -6.4      3.973      9.143
REMARK  Name = 
REMARK  7 active torsions:
REMARK  status: ('A' for Active; 'I' for Inactive)
REMARK    1  A    between atoms: C_2  and  O_3
REMARK    2  A    between atoms: O_3  and  C_4
REMARK    3  A    between atoms: C_7  and  N_8
REMARK    4  A    between atoms: C_11  and  N_12
REMARK    5  A    between atoms: N_12  and  C_13
REMARK    6  A    between atoms: C_19  and  S_20
REMARK    7  A    between atoms: S_20  and  C_21
REMARK                            x       y       z     vdW  Elec       q    Type
REMARK                         _______ _______ _______ _____ _____    ______ ____
ROOT
ATOM      1  N   UNL     1      36.211  -2.566  15.247  0.00  0.00    +0.000 N 
ATOM      2  C   UNL     1      36.055  -1.452  16.127  0.00  0.00    +0.000 C 
ATOM      3  O   UNL     1      35.279  -1.422  17.141  0.00  0.00    +0.000 OA
ATOM      4  C   UNL     1      36.920  -0.369  15.676  0.00  0.00    +0.000 C 
ATOM      5  C   UNL     1      37.565  -0.776  14.600  0.00  0.00    +0.000 C 
ATOM      6  C   UNL     1      37.166  -2.120  14.291  0.00  0.00    +0.000 C 
ATOM      7  O   UNL     1      37.551  -2.876  13.337  0.00  0.00    +0.000 OA
ENDROOT
BRANCH   1  11
ATOM      8  C   UNL     1      34.278  -6.344  15.464  0.00  0.00    +0.000 A 
ATOM      9  C   UNL     1      35.464  -6.102  16.123  0.00  0.00    +0.000 A 
ATOM     10  C   UNL     1      36.092  -4.874  16.052  0.00  0.00    +0.000 A 
ATOM     11  C   UNL     1      35.556  -3.833  15.315  0.00  0.00    +0.000 A 
ATOM     12  C   UNL     1      34.367  -4.082  14.658  0.00  0.00    +0.000 A 
ATOM     13  C   UNL     1      33.734  -5.315  14.727  0.00  0.00    +0.000 A 
BRANCH   8  14
ATOM     14  O   UNL     1      33.650  -7.579  15.538  0.00  0.00    +0.000 OA
BRANCH  14  16
ATOM     15  C   UNL     1      31.549  -8.110  16.468  0.00  0.00    +0.000 C 
ATOM     16  C   UNL     1      33.051  -8.078  16.692  0.00  0.00    +0.000 C 
ENDBRANCH  14  16
ENDBRANCH   8  14
ENDBRANCH   1  11
BRANCH   4  17
ATOM     17  N   UNL     1      37.004   0.885  16.332  0.00  0.00    +0.000 NA
BRANCH  17  18
ATOM     18  C   UNL     1      36.299   1.996  15.793  0.00  0.00    +0.000 A 
ATOM     19  C   UNL     1      36.959   2.994  15.107  0.00  0.00    +0.000 A 
ATOM     20  C   UNL     1      36.288   4.078  14.580  0.00  0.00    +0.000 A 
ATOM     21  C   UNL     1      34.928   4.191  14.726  0.00  0.00    +0.000 A 
ATOM     22  C   UNL     1      34.231   3.202  15.412  0.00  0.00    +0.000 A 
ATOM     23  C   UNL     1      34.931   2.125  15.931  0.00  0.00    +0.000 A 
ENDBRANCH  17  18
ENDBRANCH   4  17
BRANCH   5  24
ATOM     24  S   UNL     1      38.750   0.162  13.648  0.00  0.00    +0.000 S 
BRANCH  24  25
ATOM     25  C   UNL     1      40.424  -0.363  13.959  0.00  0.00    +0.000 A 
ATOM     26  C   UNL     1      40.718  -1.629  14.451  0.00  0.00    +0.000 A 
ATOM     27  C   UNL     1      42.027  -2.004  14.679  0.00  0.00    +0.000 A 
ATOM     28  C   UNL     1      43.091  -1.158  14.433  0.00  0.00    +0.000 A 
ATOM     29  C   UNL     1      44.488  -1.615  14.697  0.00  0.00    +0.000 C 
ATOM     30  C   UNL     1      42.800   0.098  13.943  0.00  0.00    +0.000 A 
ATOM     31  C   UNL     1      41.487   0.477  13.715  0.00  0.00    +0.000 A 
ENDBRANCH  24  25
ENDBRANCH   5  24
TORSDOF 7
ENDMDL
MODEL 10
REMARK VINA RESULT:      -6.3      3.492      5.594
REMARK  Name = 
REMARK  7 active torsions:
REMARK  status: ('A' for Active; 'I' for Inactive)
REMARK    1  A    between atoms: C_2  and  O_3
REMARK    2  A    between atoms: O_3  and  C_4
REMARK    3  A    between atoms: C_7  and  N_8
REMARK    4  A    between atoms: C_11  and  N_12
REMARK    5  A    between atoms: N_12  and  C_13
REMARK    6  A    between atoms: C_19  and  S_20
REMARK    7  A    between atoms: S_20  and  C_21
REMARK                            x       y       z     vdW  Elec       q    Type
REMARK                         _______ _______ _______ _____ _____    ______ ____
ROOT
ATOM      1  N   UNL     1      38.714   5.839  16.376  0.00  0.00    +0.000 N 
ATOM      2  C   UNL     1      37.829   6.813  15.823  0.00  0.00    +0.000 C 
ATOM      3  O   UNL     1      37.862   8.064  16.079  0.00  0.00    +0.000 OA
ATOM      4  C   UNL     1      36.892   6.145  14.927  0.00  0.00    +0.000 C 
ATOM      5  C   UNL     1      37.173   4.857  14.923  0.00  0.00    +0.000 C 
ATOM      6  C   UNL     1      38.284   4.613  15.798  0.00  0.00    +0.000 C 
ATOM      7  O   UNL     1      38.865   3.510  16.076  0.00  0.00    +0.000 OA
ENDROOT
BRANCH   1  11
ATOM      8  C   UNL     1      41.881   6.475  19.138  0.00  0.00    +0.000 A 
ATOM      9  C   UNL     1      40.591   6.237  19.563  0.00  0.00    +0.000 A 
ATOM     10  C   UNL     1      39.562   6.031  18.664  0.00  0.00    +0.000 A 
ATOM     11  C   UNL     1      39.784   6.053  17.299  0.00  0.00    +0.000 A 
ATOM     12  C   UNL     1      41.078   6.292  16.881  0.00  0.00    +0.000 A 
ATOM     13  C   UNL     1      42.114   6.499  17.781  0.00  0.00    +0.000 A 
BRANCH   8  14
ATOM     14  O   UNL     1      42.912   6.681  20.044  0.00  0.00    +0.000 OA
BRANCH  14  16
ATOM     15  C   UNL     1      44.230   5.483  21.588  0.00  0.00    +0.000 C 
ATOM     16  C   UNL     1      42.910   6.193  21.348  0.00  0.00    +0.000 C 
ENDBRANCH  14  16
ENDBRANCH   8  14
ENDBRANCH   1  11
BRANCH   4  17
ATOM     17  N   UNL     1      35.876   6.828  14.213  0.00  0.00    +0.000 NA
BRANCH  17  18
ATOM     18  C   UNL     1      36.006   6.985  12.806  0.00  0.00    +0.000 A 
ATOM     19  C   UNL     1      37.126   7.572  12.255  0.00  0.00    +0.000 A 
ATOM     20  C   UNL     1      37.266   7.732  10.892  0.00  0.00    +0.000 A 
ATOM     21  C   UNL     1      36.281   7.303  10.038  0.00  0.00    +0.000 A 
ATOM     22  C   UNL     1      35.138   6.706  10.560  0.00  0.00    +0.000 A 
ATOM     23  C   UNL     1      35.025   6.559  11.933  0.00  0.00    +0.000 A 
ENDBRANCH  17  18
ENDBRANCH   4  17
BRANCH   5  24
ATOM     24  S   UNL     1      36.329   3.585  13.995  0.00  0.00    +0.000 S 
BRANCH  24  25
ATOM     25  C   UNL     1      35.868   2.202  15.020  0.00  0.00    +0.000 A 
ATOM     26  C   UNL     1      35.088   2.359  16.159  0.00  0.00    +0.000 A 
ATOM     27  C   UNL     1      34.748   1.265  16.930  0.00  0.00    +0.000 A 
ATOM     28  C   UNL     1      35.158  -0.016  16.615  0.00  0.00    +0.000 A 
ATOM     29  C   UNL     1      34.762  -1.164  17.484  0.00  0.00    +0.000 C 
ATOM     30  C   UNL     1      35.932  -0.172  15.485  0.00  0.00    +0.000 A 
ATOM     31  C   UNL     1      36.275   0.924  14.709  0.00  0.00    +0.000 A 
ENDBRANCH  24  25
ENDBRANCH   5  24
TORSDOF 7
ENDMDL
