MODEL 1
REMARK VINA RESULT:      -6.0      0.000      0.000
REMARK  Name = 
REMARK  2 active torsions:
REMARK  status: ('A' for Active; 'I' for Inactive)
REMARK    1  A    between atoms: C_5  and  C_6
REMARK    2  A    between atoms: C_12  and  O_13
REMARK                            x       y       z     vdW  Elec       q    Type
REMARK                         _______ _______ _______ _____ _____    ______ ____
ROOT
ATOM      1  C   UNL     1      29.097  24.717  22.162  0.00  0.00    +0.000 A 
ATOM      2  C   UNL     1      27.968  23.889  22.042  0.00  0.00    +0.000 A 
ATOM      3  N   UNL     1      28.039  22.932  22.973  0.00  0.00    +0.000 NA
ATOM      4  C   UNL     1      29.144  23.076  23.706  0.00  0.00    +0.000 A 
ATOM      5  C   UNL     1      29.715  22.420  24.773  0.00  0.00    +0.000 A 
ATOM      6  C   UNL     1      30.898  22.844  25.331  0.00  0.00    +0.000 A 
ATOM      7  C   UNL     1      31.573  23.964  24.832  0.00  0.00    +0.000 A 
ATOM      8  C   UNL     1      30.991  24.612  23.758  0.00  0.00    +0.000 A 
ATOM      9  C   UNL     1      29.806  24.188  23.201  0.00  0.00    +0.000 A 
ENDROOT
BRANCH   1  14
ATOM     10  C   UNL     1      30.548  28.166  17.301  0.00  0.00    +0.000 C 
ATOM     11  N   UNL     1      30.496  26.883  17.987  0.00  0.00    +0.000 NA
ATOM     12  C   UNL     1      29.967  26.843  19.316  0.00  0.00    +0.000 A 
ATOM     13  N   UNL     1      29.831  25.763  20.066  0.00  0.00    +0.000 NA
ATOM     14  C   UNL     1      29.321  25.852  21.251  0.00  0.00    +0.000 A 
ATOM     15  C   UNL     1      28.940  27.113  21.668  0.00  0.00    +0.000 A 
ATOM     16  C   UNL     1      28.336  27.514  22.988  0.00  0.00    +0.000 C 
ATOM     17  S   UNL     1      29.348  28.070  20.313  0.00  0.00    +0.000 S 
ENDBRANCH   1  14
BRANCH   7  18
ATOM     18  O   UNL     1      32.756  24.365  25.419  0.00  0.00    +0.000 OA
ATOM     19  C   UNL     1      33.983  24.511  24.757  0.00  0.00    +0.000 C 
ENDBRANCH   7  18
TORSDOF 2
ENDMDL
MODEL 2
REMARK VINA RESULT:      -6.0     33.763     36.446
REMARK  Name = 
REMARK  2 active torsions:
REMARK  status: ('A' for Active; 'I' for Inactive)
REMARK    1  A    between atoms: C_5  and  C_6
REMARK    2  A    between atoms: C_12  and  O_13
REMARK                            x       y       z     vdW  Elec       q    Type
REMARK                         _______ _______ _______ _____ _____    ______ ____
ROOT
ATOM      1  C   UNL     1      17.976  -7.976  27.351  0.00  0.00    +0.000 A 
ATOM      2  C   UNL     1      17.204  -6.806  27.253  0.00  0.00    +0.000 A 
ATOM      3  N   UNL     1      17.905  -5.886  26.581  0.00  0.00    +0.000 NA
ATOM      4  C   UNL     1      19.095  -6.375  26.224  0.00  0.00    +0.000 A 
ATOM      5  C   UNL     1      20.188  -5.908  25.530  0.00  0.00    +0.000 A 
ATOM      6  C   UNL     1      21.293  -6.696  25.311  0.00  0.00    +0.000 A 
ATOM      7  C   UNL     1      21.350  -8.011  25.788  0.00  0.00    +0.000 A 
ATOM      8  C   UNL     1      20.247  -8.467  26.486  0.00  0.00    +0.000 A 
ATOM      9  C   UNL     1      19.141  -7.678  26.704  0.00  0.00    +0.000 A 
ENDROOT
BRANCH   1  14
ATOM     10  C   UNL     1      16.658 -12.113  31.683  0.00  0.00    +0.000 C 
ATOM     11  N   UNL     1      17.307 -10.887  31.244  0.00  0.00    +0.000 NA
ATOM     12  C   UNL     1      17.178 -10.502  29.871  0.00  0.00    +0.000 A 
ATOM     13  N   UNL     1      17.686  -9.414  29.318  0.00  0.00    +0.000 NA
ATOM     14  C   UNL     1      17.485  -9.166  28.065  0.00  0.00    +0.000 A 
ATOM     15  C   UNL     1      16.729 -10.086  27.365  0.00  0.00    +0.000 A 
ATOM     16  C   UNL     1      16.349 -10.063  25.908  0.00  0.00    +0.000 C 
ATOM     17  S   UNL     1      16.366 -11.237  28.574  0.00  0.00    +0.000 S 
ENDBRANCH   1  14
BRANCH   7  18
ATOM     18  O   UNL     1      22.473  -8.776  25.545  0.00  0.00    +0.000 OA
ATOM     19  C   UNL     1      23.445  -8.507  24.571  0.00  0.00    +0.000 C 
ENDBRANCH   7  18
TORSDOF 2
ENDMDL
MODEL 3
REMARK VINA RESULT:      -5.9     10.442     13.149
REMARK  Name = 
REMARK  2 active torsions:
REMARK  status: ('A' for Active; 'I' for Inactive)
REMARK    1  A    between atoms: C_5  and  C_6
REMARK    2  A    between atoms: C_12  and  O_13
REMARK                            x       y       z     vdW  Elec       q    Type
REMARK                         _______ _______ _______ _____ _____    ______ ____
ROOT
ATOM      1  C   UNL     1      32.743  20.867  10.261  0.00  0.00    +0.000 A 
ATOM      2  C   UNL     1      32.419  20.475   8.951  0.00  0.00    +0.000 A 
ATOM      3  N   UNL     1      31.109  20.664   8.760  0.00  0.00    +0.000 NA
ATOM      4  C   UNL     1      30.544  21.161   9.862  0.00  0.00    +0.000 A 
ATOM      5  C   UNL     1      29.278  21.552  10.234  0.00  0.00    +0.000 A 
ATOM      6  C   UNL     1      29.017  22.056  11.486  0.00  0.00    +0.000 A 
ATOM      7  C   UNL     1      30.035  22.190  12.438  0.00  0.00    +0.000 A 
ATOM      8  C   UNL     1      31.302  21.790  12.054  0.00  0.00    +0.000 A 
ATOM      9  C   UNL     1      31.562  21.286  10.800  0.00  0.00    +0.000 A 
ENDROOT
BRANCH   1  14
ATOM     10  C   UNL     1      37.952  18.727  12.692  0.00  0.00    +0.000 C 
ATOM     11  N   UNL     1      36.557  18.559  12.313  0.00  0.00    +0.000 NA
ATOM     12  C   UNL     1      35.873  19.672  11.729  0.00  0.00    +0.000 A 
ATOM     13  N   UNL     1      34.618  19.682  11.312  0.00  0.00    +0.000 NA
ATOM     14  C   UNL     1      34.115  20.749  10.783  0.00  0.00    +0.000 A 
ATOM     15  C   UNL     1      34.950  21.845  10.687  0.00  0.00    +0.000 A 
ATOM     16  C   UNL     1      34.635  23.210  10.133  0.00  0.00    +0.000 C 
ATOM     17  S   UNL     1      36.398  21.246  11.367  0.00  0.00    +0.000 S 
ENDBRANCH   1  14
BRANCH   7  18
ATOM     18  O   UNL     1      29.739  22.704  13.685  0.00  0.00    +0.000 OA
ATOM     19  C   UNL     1      28.733  23.640  13.960  0.00  0.00    +0.000 C 
ENDBRANCH   7  18
TORSDOF 2
ENDMDL
MODEL 4
REMARK VINA RESULT:      -5.7      4.224      6.710
REMARK  Name = 
REMARK  2 active torsions:
REMARK  status: ('A' for Active; 'I' for Inactive)
REMARK    1  A    between atoms: C_5  and  C_6
REMARK    2  A    between atoms: C_12  and  O_13
REMARK                            x       y       z     vdW  Elec       q    Type
REMARK                         _______ _______ _______ _____ _____    ______ ____
ROOT
ATOM      1  C   UNL     1      28.282  23.205  25.884  0.00  0.00    +0.000 A 
ATOM      2  C   UNL     1      27.015  22.859  26.386  0.00  0.00    +0.000 A 
ATOM      3  N   UNL     1      26.131  22.908  25.384  0.00  0.00    +0.000 NA
ATOM      4  C   UNL     1      26.733  23.262  24.247  0.00  0.00    +0.000 A 
ATOM      5  C   UNL     1      26.345  23.454  22.941  0.00  0.00    +0.000 A 
ATOM      6  C   UNL     1      27.245  23.815  21.966  0.00  0.00    +0.000 A 
ATOM      7  C   UNL     1      28.599  24.003  22.266  0.00  0.00    +0.000 A 
ATOM      8  C   UNL     1      28.976  23.810  23.583  0.00  0.00    +0.000 A 
ATOM      9  C   UNL     1      28.075  23.449  24.557  0.00  0.00    +0.000 A 
ENDROOT
BRANCH   1  14
ATOM     10  C   UNL     1      33.134  21.743  29.341  0.00  0.00    +0.000 C 
ATOM     11  N   UNL     1      31.973  21.369  28.547  0.00  0.00    +0.000 NA
ATOM     12  C   UNL     1      31.170  22.411  27.983  0.00  0.00    +0.000 A 
ATOM     13  N   UNL     1      30.100  22.244  27.225  0.00  0.00    +0.000 NA
ATOM     14  C   UNL     1      29.465  23.270  26.758  0.00  0.00    +0.000 A 
ATOM     15  C   UNL     1      29.964  24.513  27.095  0.00  0.00    +0.000 A 
ATOM     16  C   UNL     1      29.428  25.866  26.711  0.00  0.00    +0.000 C 
ATOM     17  S   UNL     1      31.313  24.101  28.060  0.00  0.00    +0.000 S 
ENDBRANCH   1  14
BRANCH   7  18
ATOM     18  O   UNL     1      29.477  24.361  21.263  0.00  0.00    +0.000 OA
ATOM     19  C   UNL     1      29.487  25.592  20.592  0.00  0.00    +0.000 C 
ENDBRANCH   7  18
TORSDOF 2
ENDMDL
MODEL 5
REMARK VINA RESULT:      -5.7     33.903     36.522
REMARK  Name = 
REMARK  2 active torsions:
REMARK  status: ('A' for Active; 'I' for Inactive)
REMARK    1  A    between atoms: C_5  and  C_6
REMARK    2  A    between atoms: C_12  and  O_13
REMARK                            x       y       z     vdW  Elec       q    Type
REMARK                         _______ _______ _______ _____ _____    ______ ____
ROOT
ATOM      1  C   UNL     1      17.782  -8.048  27.072  0.00  0.00    +0.000 A 
ATOM      2  C   UNL     1      17.032  -6.860  27.091  0.00  0.00    +0.000 A 
ATOM      3  N   UNL     1      17.787  -5.869  26.603  0.00  0.00    +0.000 NA
ATOM      4  C   UNL     1      18.991  -6.328  26.258  0.00  0.00    +0.000 A 
ATOM      5  C   UNL     1      20.134  -5.791  25.710  0.00  0.00    +0.000 A 
ATOM      6  C   UNL     1      21.242  -6.563  25.453  0.00  0.00    +0.000 A 
ATOM      7  C   UNL     1      21.252  -7.933  25.741  0.00  0.00    +0.000 A 
ATOM      8  C   UNL     1      20.100  -8.460  26.295  0.00  0.00    +0.000 A 
ATOM      9  C   UNL     1      18.991  -7.687  26.551  0.00  0.00    +0.000 A 
ENDROOT
BRANCH   1  14
ATOM     10  C   UNL     1      14.646 -13.288  27.649  0.00  0.00    +0.000 C 
ATOM     11  N   UNL     1      14.960 -12.061  26.933  0.00  0.00    +0.000 NA
ATOM     12  C   UNL     1      15.925 -11.169  27.502  0.00  0.00    +0.000 A 
ATOM     13  N   UNL     1      16.336 -10.029  26.974  0.00  0.00    +0.000 NA
ATOM     14  C   UNL     1      17.230  -9.316  27.578  0.00  0.00    +0.000 A 
ATOM     15  C   UNL     1      17.709  -9.809  28.776  0.00  0.00    +0.000 A 
ATOM     16  C   UNL     1      18.732  -9.192  29.693  0.00  0.00    +0.000 C 
ATOM     17  S   UNL     1      16.832 -11.266  28.934  0.00  0.00    +0.000 S 
ENDBRANCH   1  14
BRANCH   7  18
ATOM     18  O   UNL     1      22.380  -8.680  25.466  0.00  0.00    +0.000 OA
ATOM     19  C   UNL     1      23.186  -8.544  24.327  0.00  0.00    +0.000 C 
ENDBRANCH   7  18
TORSDOF 2
ENDMDL
MODEL 6
REMARK VINA RESULT:      -5.6     33.458     35.605
REMARK  Name = 
REMARK  2 active torsions:
REMARK  status: ('A' for Active; 'I' for Inactive)
REMARK    1  A    between atoms: C_5  and  C_6
REMARK    2  A    between atoms: C_12  and  O_13
REMARK                            x       y       z     vdW  Elec       q    Type
REMARK                         _______ _______ _______ _____ _____    ______ ____
ROOT
ATOM      1  C   UNL     1      21.212  -7.813  25.408  0.00  0.00    +0.000 A 
ATOM      2  C   UNL     1      21.560  -6.568  24.856  0.00  0.00    +0.000 A 
ATOM      3  N   UNL     1      20.631  -5.671  25.204  0.00  0.00    +0.000 NA
ATOM      4  C   UNL     1      19.689  -6.244  25.956  0.00  0.00    +0.000 A 
ATOM      5  C   UNL     1      18.540  -5.827  26.589  0.00  0.00    +0.000 A 
ATOM      6  C   UNL     1      17.768  -6.693  27.327  0.00  0.00    +0.000 A 
ATOM      7  C   UNL     1      18.123  -8.040  27.464  0.00  0.00    +0.000 A 
ATOM      8  C   UNL     1      19.277  -8.448  26.821  0.00  0.00    +0.000 A 
ATOM      9  C   UNL     1      20.049  -7.580  26.083  0.00  0.00    +0.000 A 
ENDROOT
BRANCH   1  14
ATOM     10  C   UNL     1      25.334 -12.323  25.951  0.00  0.00    +0.000 C 
ATOM     11  N   UNL     1      24.743 -11.073  26.404  0.00  0.00    +0.000 NA
ATOM     12  C   UNL     1      23.662 -10.517  25.646  0.00  0.00    +0.000 A 
ATOM     13  N   UNL     1      23.005  -9.406  25.931  0.00  0.00    +0.000 NA
ATOM     14  C   UNL     1      22.031  -9.014  25.175  0.00  0.00    +0.000 A 
ATOM     15  C   UNL     1      21.735  -9.809  24.085  0.00  0.00    +0.000 A 
ATOM     16  C   UNL     1      20.674  -9.594  23.037  0.00  0.00    +0.000 C 
ATOM     17  S   UNL     1      22.886 -11.061  24.238  0.00  0.00    +0.000 S 
ENDBRANCH   1  14
BRANCH   7  18
ATOM     18  O   UNL     1      17.328  -8.881  28.217  0.00  0.00    +0.000 OA
ATOM     19  C   UNL     1      17.749  -9.606  29.341  0.00  0.00    +0.000 C 
ENDBRANCH   7  18
TORSDOF 2
ENDMDL
MODEL 7
REMARK VINA RESULT:      -5.4     23.362     25.475
REMARK  Name = 
REMARK  2 active torsions:
REMARK  status: ('A' for Active; 'I' for Inactive)
REMARK    1  A    between atoms: C_5  and  C_6
REMARK    2  A    between atoms: C_12  and  O_13
REMARK                            x       y       z     vdW  Elec       q    Type
REMARK                         _______ _______ _______ _____ _____    ______ ____
ROOT
ATOM      1  C   UNL     1      16.497  10.538  38.160  0.00  0.00    +0.000 A 
ATOM      2  C   UNL     1      15.398  10.829  38.987  0.00  0.00    +0.000 A 
ATOM      3  N   UNL     1      14.437  11.384  38.241  0.00  0.00    +0.000 NA
ATOM      4  C   UNL     1      14.829  11.477  36.969  0.00  0.00    +0.000 A 
ATOM      5  C   UNL     1      14.275  11.934  35.795  0.00  0.00    +0.000 A 
ATOM      6  C   UNL     1      14.959  11.873  34.604  0.00  0.00    +0.000 A 
ATOM      7  C   UNL     1      16.252  11.343  34.538  0.00  0.00    +0.000 A 
ATOM      8  C   UNL     1      16.799  10.891  35.725  0.00  0.00    +0.000 A 
ATOM      9  C   UNL     1      16.114  10.951  36.917  0.00  0.00    +0.000 A 
ENDROOT
BRANCH   1  14
ATOM     10  C   UNL     1      20.583   6.689  40.632  0.00  0.00    +0.000 C 
ATOM     11  N   UNL     1      19.225   7.023  40.231  0.00  0.00    +0.000 NA
ATOM     12  C   UNL     1      18.984   8.311  39.654  0.00  0.00    +0.000 A 
ATOM     13  N   UNL     1      17.819   8.762  39.220  0.00  0.00    +0.000 NA
ATOM     14  C   UNL     1      17.731   9.943  38.700  0.00  0.00    +0.000 A 
ATOM     15  C   UNL     1      18.898  10.678  38.631  0.00  0.00    +0.000 A 
ATOM     16  C   UNL     1      19.090  12.072  38.094  0.00  0.00    +0.000 C 
ATOM     17  S   UNL     1      20.032   9.604  39.323  0.00  0.00    +0.000 S 
ENDBRANCH   1  14
BRANCH   7  18
ATOM     18  O   UNL     1      16.909  11.293  33.325  0.00  0.00    +0.000 OA
ATOM     19  C   UNL     1      16.426  10.669  32.165  0.00  0.00    +0.000 C 
ENDBRANCH   7  18
TORSDOF 2
ENDMDL
MODEL 8
REMARK VINA RESULT:      -5.3     24.750     26.562
REMARK  Name = 
REMARK  2 active torsions:
REMARK  status: ('A' for Active; 'I' for Inactive)
REMARK    1  A    between atoms: C_5  and  C_6
REMARK    2  A    between atoms: C_12  and  O_13
REMARK                            x       y       z     vdW  Elec       q    Type
REMARK                         _______ _______ _______ _____ _____    ______ ____
ROOT
ATOM      1  C   UNL     1      33.829   3.799  35.117  0.00  0.00    +0.000 A 
ATOM      2  C   UNL     1      33.678   4.303  33.813  0.00  0.00    +0.000 A 
ATOM      3  N   UNL     1      33.559   3.273  32.968  0.00  0.00    +0.000 NA
ATOM      4  C   UNL     1      33.619   2.116  33.631  0.00  0.00    +0.000 A 
ATOM      5  C   UNL     1      33.543   0.783  33.300  0.00  0.00    +0.000 A 
ATOM      6  C   UNL     1      33.627  -0.204  34.255  0.00  0.00    +0.000 A 
ATOM      7  C   UNL     1      33.795   0.113  35.608  0.00  0.00    +0.000 A 
ATOM      8  C   UNL     1      33.873   1.456  35.927  0.00  0.00    +0.000 A 
ATOM      9  C   UNL     1      33.788   2.442  34.971  0.00  0.00    +0.000 A 
ENDROOT
BRANCH   1  14
ATOM     10  C   UNL     1      32.943   7.059  40.236  0.00  0.00    +0.000 C 
ATOM     11  N   UNL     1      32.454   6.194  39.173  0.00  0.00    +0.000 NA
ATOM     12  C   UNL     1      33.368   5.792  38.148  0.00  0.00    +0.000 A 
ATOM     13  N   UNL     1      33.092   4.998  37.128  0.00  0.00    +0.000 NA
ATOM     14  C   UNL     1      34.013   4.693  36.272  0.00  0.00    +0.000 A 
ATOM     15  C   UNL     1      35.263   5.237  36.487  0.00  0.00    +0.000 A 
ATOM     16  C   UNL     1      36.508   5.068  35.656  0.00  0.00    +0.000 C 
ATOM     17  S   UNL     1      35.012   6.146  37.912  0.00  0.00    +0.000 S 
ENDBRANCH   1  14
BRANCH   7  18
ATOM     18  O   UNL     1      33.871  -0.902  36.541  0.00  0.00    +0.000 OA
ATOM     19  C   UNL     1      33.446  -0.813  37.874  0.00  0.00    +0.000 C 
ENDBRANCH   7  18
TORSDOF 2
ENDMDL
MODEL 9
REMARK VINA RESULT:      -5.3     29.108     31.946
REMARK  Name = 
REMARK  2 active torsions:
REMARK  status: ('A' for Active; 'I' for Inactive)
REMARK    1  A    between atoms: C_5  and  C_6
REMARK    2  A    between atoms: C_12  and  O_13
REMARK                            x       y       z     vdW  Elec       q    Type
REMARK                         _______ _______ _______ _____ _____    ______ ____
ROOT
ATOM      1  C   UNL     1      33.680  -5.018  33.914  0.00  0.00    +0.000 A 
ATOM      2  C   UNL     1      34.333  -5.740  34.928  0.00  0.00    +0.000 A 
ATOM      3  N   UNL     1      34.953  -4.874  35.738  0.00  0.00    +0.000 NA
ATOM      4  C   UNL     1      34.748  -3.621  35.325  0.00  0.00    +0.000 A 
ATOM      5  C   UNL     1      35.114  -2.367  35.756  0.00  0.00    +0.000 A 
ATOM      6  C   UNL     1      34.713  -1.231  35.093  0.00  0.00    +0.000 A 
ATOM      7  C   UNL     1      33.912  -1.307  33.947  0.00  0.00    +0.000 A 
ATOM      8  C   UNL     1      33.554  -2.573  33.522  0.00  0.00    +0.000 A 
ATOM      9  C   UNL     1      33.956  -3.709  34.187  0.00  0.00    +0.000 A 
ENDROOT
BRANCH   1  14
ATOM     10  C   UNL     1      29.236  -7.620  30.582  0.00  0.00    +0.000 C 
ATOM     11  N   UNL     1      29.716  -7.005  31.809  0.00  0.00    +0.000 NA
ATOM     12  C   UNL     1      31.091  -6.610  31.880  0.00  0.00    +0.000 A 
ATOM     13  N   UNL     1      31.679  -6.023  32.908  0.00  0.00    +0.000 NA
ATOM     14  C   UNL     1      32.929  -5.698  32.845  0.00  0.00    +0.000 A 
ATOM     15  C   UNL     1      33.589  -5.998  31.670  0.00  0.00    +0.000 A 
ATOM     16  C   UNL     1      35.033  -5.751  31.323  0.00  0.00    +0.000 C 
ATOM     17  S   UNL     1      32.349  -6.725  30.746  0.00  0.00    +0.000 S 
ENDBRANCH   1  14
BRANCH   7  18
ATOM     18  O   UNL     1      33.523  -0.146  33.309  0.00  0.00    +0.000 OA
ATOM     19  C   UNL     1      34.279   0.549  32.354  0.00  0.00    +0.000 C 
ENDBRANCH   7  18
TORSDOF 2
ENDMDL
MODEL 10
REMARK VINA RESULT:      -5.3     23.269     25.125
REMARK  Name = 
REMARK  2 active torsions:
REMARK  status: ('A' for Active; 'I' for Inactive)
REMARK    1  A    between atoms: C_5  and  C_6
REMARK    2  A    between atoms: C_12  and  O_13
REMARK                            x       y       z     vdW  Elec       q    Type
REMARK                         _______ _______ _______ _____ _____    ______ ____
ROOT
ATOM      1  C   UNL     1      17.282  11.479  37.106  0.00  0.00    +0.000 A 
ATOM      2  C   UNL     1      16.850  12.291  36.043  0.00  0.00    +0.000 A 
ATOM      3  N   UNL     1      15.522  12.429  36.124  0.00  0.00    +0.000 NA
ATOM      4  C   UNL     1      15.046  11.760  37.176  0.00  0.00    +0.000 A 
ATOM      5  C   UNL     1      13.808  11.560  37.743  0.00  0.00    +0.000 A 
ATOM      6  C   UNL     1      13.649  10.801  38.879  0.00  0.00    +0.000 A 
ATOM      7  C   UNL     1      14.746  10.200  39.506  0.00  0.00    +0.000 A 
ATOM      8  C   UNL     1      15.985  10.407  38.926  0.00  0.00    +0.000 A 
ATOM      9  C   UNL     1      16.143  11.166  37.789  0.00  0.00    +0.000 A 
ENDROOT
BRANCH   1  14
ATOM     10  C   UNL     1      23.145  11.324  38.903  0.00  0.00    +0.000 C 
ATOM     11  N   UNL     1      21.829  11.945  38.892  0.00  0.00    +0.000 NA
ATOM     12  C   UNL     1      20.797  11.340  38.106  0.00  0.00    +0.000 A 
ATOM     13  N   UNL     1      19.549  11.763  38.004  0.00  0.00    +0.000 NA
ATOM     14  C   UNL     1      18.700  11.118  37.272  0.00  0.00    +0.000 A 
ATOM     15  C   UNL     1      19.171   9.993  36.623  0.00  0.00    +0.000 A 
ATOM     16  C   UNL     1      18.420   9.066  35.705  0.00  0.00    +0.000 C 
ATOM     17  S   UNL     1      20.804   9.956  37.124  0.00  0.00    +0.000 S 
ENDBRANCH   1  14
BRANCH   7  18
ATOM     18  O   UNL     1      14.552   9.450  40.649  0.00  0.00    +0.000 OA
ATOM     19  C   UNL     1      15.540   8.709  41.312  0.00  0.00    +0.000 C 
ENDBRANCH   7  18
TORSDOF 2
ENDMDL
