MODEL 1
REMARK VINA RESULT:      -6.1      0.000      0.000
REMARK  Name = 
REMARK  3 active torsions:
REMARK  status: ('A' for Active; 'I' for Inactive)
REMARK    1  A    between atoms: C_4  and  C_5
REMARK    2  A    between atoms: C_13  and  N_14
REMARK    3  A    between atoms: N_14  and  C_15
REMARK                            x       y       z     vdW  Elec       q    Type
REMARK                         _______ _______ _______ _____ _____    ______ ____
ROOT
ATOM      1  C   UNL     1      26.916  23.446  26.404  0.00  0.00    +0.000 A 
ATOM      2  N   UNL     1      25.919  23.064  25.568  0.00  0.00    +0.000 NA
ATOM      3  C   UNL     1      26.243  23.292  24.288  0.00  0.00    +0.000 A 
ATOM      4  C   UNL     1      25.576  23.078  23.079  0.00  0.00    +0.000 A 
ATOM      5  N   UNL     1      26.170  23.416  21.935  0.00  0.00    +0.000 NA
ATOM      6  C   UNL     1      27.394  23.953  21.960  0.00  0.00    +0.000 A 
ATOM      7  C   UNL     1      28.026  24.152  23.151  0.00  0.00    +0.000 A 
ATOM      8  N   UNL     1      27.465  23.828  24.312  0.00  0.00    +0.000 N 
ATOM      9  C   UNL     1      27.911  23.939  25.611  0.00  0.00    +0.000 A 
ENDROOT
BRANCH   1  13
ATOM     10  C   UNL     1      27.228  22.467  30.003  0.00  0.00    +0.000 A 
ATOM     11  C   UNL     1      26.398  23.459  30.442  0.00  0.00    +0.000 A 
ATOM     12  S   UNL     1      25.978  24.246  28.991  0.00  0.00    +0.000 S 
ATOM     13  C   UNL     1      26.877  23.283  27.875  0.00  0.00    +0.000 A 
ATOM     14  C   UNL     1      27.463  22.389  28.699  0.00  0.00    +0.000 A 
ENDBRANCH   1  13
BRANCH   9  15
ATOM     15  N   UNL     1      29.135  24.499  25.955  0.00  0.00    +0.000 NA
BRANCH  15  16
ATOM     16  C   UNL     1      30.297  23.969  26.547  0.00  0.00    +0.000 C 
ATOM     17  C   UNL     1      30.639  22.576  26.012  0.00  0.00    +0.000 C 
ATOM     18  C   UNL     1      31.289  22.796  24.669  0.00  0.00    +0.000 C 
ATOM     19  C   UNL     1      31.443  24.291  24.496  0.00  0.00    +0.000 C 
ATOM     20  C   UNL     1      31.479  24.781  25.928  0.00  0.00    +0.000 C 
ENDBRANCH  15  16
ENDBRANCH   9  15
TORSDOF 3
ENDMDL
MODEL 2
REMARK VINA RESULT:      -5.8      2.288      4.455
REMARK  Name = 
REMARK  3 active torsions:
REMARK  status: ('A' for Active; 'I' for Inactive)
REMARK    1  A    between atoms: C_4  and  C_5
REMARK    2  A    between atoms: C_13  and  N_14
REMARK    3  A    between atoms: N_14  and  C_15
REMARK                            x       y       z     vdW  Elec       q    Type
REMARK                         _______ _______ _______ _____ _____    ______ ____
ROOT
ATOM      1  C   UNL     1      29.886  22.866  26.319  0.00  0.00    +0.000 A 
ATOM      2  N   UNL     1      30.049  22.957  24.976  0.00  0.00    +0.000 NA
ATOM      3  C   UNL     1      28.870  23.070  24.349  0.00  0.00    +0.000 A 
ATOM      4  C   UNL     1      28.508  23.192  23.006  0.00  0.00    +0.000 A 
ATOM      5  N   UNL     1      27.219  23.288  22.680  0.00  0.00    +0.000 NA
ATOM      6  C   UNL     1      26.292  23.266  23.643  0.00  0.00    +0.000 A 
ATOM      7  C   UNL     1      26.669  23.147  24.947  0.00  0.00    +0.000 A 
ATOM      8  N   UNL     1      27.944  23.049  25.310  0.00  0.00    +0.000 N 
ATOM      9  C   UNL     1      28.542  22.921  26.545  0.00  0.00    +0.000 A 
ENDROOT
BRANCH   1  13
ATOM     10  C   UNL     1      32.400  22.024  28.960  0.00  0.00    +0.000 A 
ATOM     11  C   UNL     1      33.100  23.186  28.797  0.00  0.00    +0.000 A 
ATOM     12  S   UNL     1      32.228  23.961  27.557  0.00  0.00    +0.000 S 
ATOM     13  C   UNL     1      31.001  22.775  27.288  0.00  0.00    +0.000 A 
ATOM     14  C   UNL     1      31.338  21.828  28.189  0.00  0.00    +0.000 A 
ENDBRANCH   1  13
BRANCH   9  15
ATOM     15  N   UNL     1      27.829  22.830  27.734  0.00  0.00    +0.000 NA
BRANCH  15  16
ATOM     16  C   UNL     1      27.471  23.779  28.709  0.00  0.00    +0.000 C 
ATOM     17  C   UNL     1      26.123  23.462  29.363  0.00  0.00    +0.000 C 
ATOM     18  C   UNL     1      26.396  22.370  30.367  0.00  0.00    +0.000 C 
ATOM     19  C   UNL     1      27.894  22.159  30.388  0.00  0.00    +0.000 C 
ATOM     20  C   UNL     1      28.416  23.501  29.920  0.00  0.00    +0.000 C 
ENDBRANCH  15  16
ENDBRANCH   9  15
TORSDOF 3
ENDMDL
MODEL 3
REMARK VINA RESULT:      -5.8      2.304      4.445
REMARK  Name = 
REMARK  3 active torsions:
REMARK  status: ('A' for Active; 'I' for Inactive)
REMARK    1  A    between atoms: C_4  and  C_5
REMARK    2  A    between atoms: C_13  and  N_14
REMARK    3  A    between atoms: N_14  and  C_15
REMARK                            x       y       z     vdW  Elec       q    Type
REMARK                         _______ _______ _______ _____ _____    ______ ____
ROOT
ATOM      1  C   UNL     1      30.107  24.208  24.201  0.00  0.00    +0.000 A 
ATOM      2  N   UNL     1      29.665  24.151  22.921  0.00  0.00    +0.000 NA
ATOM      3  C   UNL     1      28.363  23.840  22.868  0.00  0.00    +0.000 A 
ATOM      4  C   UNL     1      27.462  23.665  21.815  0.00  0.00    +0.000 A 
ATOM      5  N   UNL     1      26.195  23.349  22.083  0.00  0.00    +0.000 NA
ATOM      6  C   UNL     1      25.805  23.204  23.353  0.00  0.00    +0.000 A 
ATOM      7  C   UNL     1      26.701  23.380  24.364  0.00  0.00    +0.000 A 
ATOM      8  N   UNL     1      27.973  23.695  24.137  0.00  0.00    +0.000 N 
ATOM      9  C   UNL     1      29.032  23.915  24.990  0.00  0.00    +0.000 A 
ENDROOT
BRANCH   1  13
ATOM     10  C   UNL     1      33.757  24.460  24.987  0.00  0.00    +0.000 A 
ATOM     11  C   UNL     1      33.660  25.733  25.475  0.00  0.00    +0.000 A 
ATOM     12  S   UNL     1      32.001  26.066  25.286  0.00  0.00    +0.000 S 
ATOM     13  C   UNL     1      31.489  24.570  24.589  0.00  0.00    +0.000 A 
ATOM     14  C   UNL     1      32.649  23.883  24.541  0.00  0.00    +0.000 A 
ENDBRANCH   1  13
BRANCH   9  15
ATOM     15  N   UNL     1      28.941  23.796  26.370  0.00  0.00    +0.000 NA
BRANCH  15  16
ATOM     16  C   UNL     1      29.003  22.691  27.241  0.00  0.00    +0.000 C 
ATOM     17  C   UNL     1      30.275  21.863  27.041  0.00  0.00    +0.000 C 
ATOM     18  C   UNL     1      31.376  22.619  27.741  0.00  0.00    +0.000 C 
ATOM     19  C   UNL     1      30.725  23.788  28.448  0.00  0.00    +0.000 C 
ATOM     20  C   UNL     1      29.308  23.296  28.648  0.00  0.00    +0.000 C 
ENDBRANCH  15  16
ENDBRANCH   9  15
TORSDOF 3
ENDMDL
MODEL 4
REMARK VINA RESULT:      -5.7     31.573     32.810
REMARK  Name = 
REMARK  3 active torsions:
REMARK  status: ('A' for Active; 'I' for Inactive)
REMARK    1  A    between atoms: C_4  and  C_5
REMARK    2  A    between atoms: C_13  and  N_14
REMARK    3  A    between atoms: N_14  and  C_15
REMARK                            x       y       z     vdW  Elec       q    Type
REMARK                         _______ _______ _______ _____ _____    ______ ____
ROOT
ATOM      1  C   UNL     1      21.415  -7.051  25.109  0.00  0.00    +0.000 A 
ATOM      2  N   UNL     1      20.743  -5.892  25.318  0.00  0.00    +0.000 NA
ATOM      3  C   UNL     1      19.609  -6.103  25.999  0.00  0.00    +0.000 A 
ATOM      4  C   UNL     1      18.593  -5.259  26.453  0.00  0.00    +0.000 A 
ATOM      5  N   UNL     1      17.562  -5.774  27.121  0.00  0.00    +0.000 NA
ATOM      6  C   UNL     1      17.513  -7.092  27.347  0.00  0.00    +0.000 A 
ATOM      7  C   UNL     1      18.516  -7.896  26.895  0.00  0.00    +0.000 A 
ATOM      8  N   UNL     1      19.560  -7.418  26.225  0.00  0.00    +0.000 N 
ATOM      9  C   UNL     1      20.666  -8.036  25.683  0.00  0.00    +0.000 A 
ENDROOT
BRANCH   1  13
ATOM     10  C   UNL     1      24.865  -6.667  23.708  0.00  0.00    +0.000 A 
ATOM     11  C   UNL     1      24.776  -7.788  22.932  0.00  0.00    +0.000 A 
ATOM     12  S   UNL     1      23.211  -8.354  23.294  0.00  0.00    +0.000 S 
ATOM     13  C   UNL     1      22.725  -7.141  24.424  0.00  0.00    +0.000 A 
ATOM     14  C   UNL     1      23.818  -6.351  24.460  0.00  0.00    +0.000 A 
ENDBRANCH   1  13
BRANCH   9  15
ATOM     15  N   UNL     1      20.873  -9.409  25.725  0.00  0.00    +0.000 NA
BRANCH  15  16
ATOM     16  C   UNL     1      21.731 -10.225  26.486  0.00  0.00    +0.000 C 
ATOM     17  C   UNL     1      21.344 -10.254  27.967  0.00  0.00    +0.000 C 
ATOM     18  C   UNL     1      20.173 -11.198  28.071  0.00  0.00    +0.000 C 
ATOM     19  C   UNL     1      19.977 -11.806  26.699  0.00  0.00    +0.000 C 
ATOM     20  C   UNL     1      21.359 -11.690  26.093  0.00  0.00    +0.000 C 
ENDBRANCH  15  16
ENDBRANCH   9  15
TORSDOF 3
ENDMDL
MODEL 5
REMARK VINA RESULT:      -5.6      3.607      7.233
REMARK  Name = 
REMARK  3 active torsions:
REMARK  status: ('A' for Active; 'I' for Inactive)
REMARK    1  A    between atoms: C_4  and  C_5
REMARK    2  A    between atoms: C_13  and  N_14
REMARK    3  A    between atoms: N_14  and  C_15
REMARK                            x       y       z     vdW  Elec       q    Type
REMARK                         _______ _______ _______ _____ _____    ______ ____
ROOT
ATOM      1  C   UNL     1      30.884  22.562  28.290  0.00  0.00    +0.000 A 
ATOM      2  N   UNL     1      31.932  22.055  28.984  0.00  0.00    +0.000 NA
ATOM      3  C   UNL     1      31.626  21.889  30.278  0.00  0.00    +0.000 A 
ATOM      4  C   UNL     1      32.341  21.411  31.378  0.00  0.00    +0.000 A 
ATOM      5  N   UNL     1      31.752  21.364  32.573  0.00  0.00    +0.000 NA
ATOM      6  C   UNL     1      30.487  21.776  32.701  0.00  0.00    +0.000 A 
ATOM      7  C   UNL     1      29.808  22.238  31.614  0.00  0.00    +0.000 A 
ATOM      8  N   UNL     1      30.362  22.300  30.407  0.00  0.00    +0.000 N 
ATOM      9  C   UNL     1      29.872  22.725  29.191  0.00  0.00    +0.000 A 
ENDROOT
BRANCH   1  13
ATOM     10  C   UNL     1      30.440  22.677  24.575  0.00  0.00    +0.000 A 
ATOM     11  C   UNL     1      31.381  23.652  24.399  0.00  0.00    +0.000 A 
ATOM     12  S   UNL     1      31.898  23.947  25.995  0.00  0.00    +0.000 S 
ATOM     13  C   UNL     1      30.896  22.816  26.832  0.00  0.00    +0.000 A 
ATOM     14  C   UNL     1      30.204  22.262  25.814  0.00  0.00    +0.000 A 
ENDBRANCH   1  13
BRANCH   9  15
ATOM     15  N   UNL     1      28.596  23.247  29.020  0.00  0.00    +0.000 NA
BRANCH  15  16
ATOM     16  C   UNL     1      27.335  22.649  28.842  0.00  0.00    +0.000 C 
ATOM     17  C   UNL     1      26.417  22.856  30.050  0.00  0.00    +0.000 C 
ATOM     18  C   UNL     1      25.889  24.264  29.933  0.00  0.00    +0.000 C 
ATOM     19  C   UNL     1      26.385  24.809  28.612  0.00  0.00    +0.000 C 
ATOM     20  C   UNL     1      26.598  23.549  27.801  0.00  0.00    +0.000 C 
ENDBRANCH  15  16
ENDBRANCH   9  15
TORSDOF 3
ENDMDL
MODEL 6
REMARK VINA RESULT:      -5.6     31.670     32.660
REMARK  Name = 
REMARK  3 active torsions:
REMARK  status: ('A' for Active; 'I' for Inactive)
REMARK    1  A    between atoms: C_4  and  C_5
REMARK    2  A    between atoms: C_13  and  N_14
REMARK    3  A    between atoms: N_14  and  C_15
REMARK                            x       y       z     vdW  Elec       q    Type
REMARK                         _______ _______ _______ _____ _____    ______ ____
ROOT
ATOM      1  C   UNL     1      20.481  -8.921  25.210  0.00  0.00    +0.000 A 
ATOM      2  N   UNL     1      19.197  -8.819  25.632  0.00  0.00    +0.000 NA
ATOM      3  C   UNL     1      18.893  -7.558  25.967  0.00  0.00    +0.000 A 
ATOM      4  C   UNL     1      17.731  -6.948  26.445  0.00  0.00    +0.000 A 
ATOM      5  N   UNL     1      17.734  -5.638  26.693  0.00  0.00    +0.000 NA
ATOM      6  C   UNL     1      18.846  -4.928  26.480  0.00  0.00    +0.000 A 
ATOM      7  C   UNL     1      19.967  -5.544  26.011  0.00  0.00    +0.000 A 
ATOM      8  N   UNL     1      20.003  -6.848  25.753  0.00  0.00    +0.000 N 
ATOM      9  C   UNL     1      21.009  -7.665  25.285  0.00  0.00    +0.000 A 
ENDROOT
BRANCH   1  13
ATOM     10  C   UNL     1      21.727 -11.942  23.386  0.00  0.00    +0.000 A 
ATOM     11  C   UNL     1      22.367 -12.455  24.479  0.00  0.00    +0.000 A 
ATOM     12  S   UNL     1      22.041 -11.281  25.670  0.00  0.00    +0.000 S 
ATOM     13  C   UNL     1      21.102 -10.177  24.731  0.00  0.00    +0.000 A 
ATOM     14  C   UNL     1      21.090 -10.787  23.527  0.00  0.00    +0.000 A 
ENDBRANCH   1  13
BRANCH   9  15
ATOM     15  N   UNL     1      22.295  -7.217  25.011  0.00  0.00    +0.000 NA
BRANCH  15  16
ATOM     16  C   UNL     1      22.830  -6.416  23.984  0.00  0.00    +0.000 C 
ATOM     17  C   UNL     1      24.344  -6.235  24.117  0.00  0.00    +0.000 C 
ATOM     18  C   UNL     1      24.962  -7.509  23.598  0.00  0.00    +0.000 C 
ATOM     19  C   UNL     1      23.831  -8.352  23.049  0.00  0.00    +0.000 C 
ATOM     20  C   UNL     1      22.789  -7.311  22.704  0.00  0.00    +0.000 C 
ENDBRANCH  15  16
ENDBRANCH   9  15
TORSDOF 3
ENDMDL
MODEL 7
REMARK VINA RESULT:      -5.5     24.616     26.247
REMARK  Name = 
REMARK  3 active torsions:
REMARK  status: ('A' for Active; 'I' for Inactive)
REMARK    1  A    between atoms: C_4  and  C_5
REMARK    2  A    between atoms: C_13  and  N_14
REMARK    3  A    between atoms: N_14  and  C_15
REMARK                            x       y       z     vdW  Elec       q    Type
REMARK                         _______ _______ _______ _____ _____    ______ ____
ROOT
ATOM      1  C   UNL     1      33.317  -0.192  34.427  0.00  0.00    +0.000 A 
ATOM      2  N   UNL     1      33.285   0.714  33.420  0.00  0.00    +0.000 NA
ATOM      3  C   UNL     1      33.535   1.952  33.870  0.00  0.00    +0.000 A 
ATOM      4  C   UNL     1      33.615   3.199  33.247  0.00  0.00    +0.000 A 
ATOM      5  N   UNL     1      33.888   4.280  33.977  0.00  0.00    +0.000 NA
ATOM      6  C   UNL     1      34.081   4.155  35.295  0.00  0.00    +0.000 A 
ATOM      7  C   UNL     1      33.998   2.928  35.881  0.00  0.00    +0.000 A 
ATOM      8  N   UNL     1      33.728   1.827  35.185  0.00  0.00    +0.000 N 
ATOM      9  C   UNL     1      33.597   0.509  35.564  0.00  0.00    +0.000 A 
ENDROOT
BRANCH   1  13
ATOM     10  C   UNL     1      33.292  -3.800  33.431  0.00  0.00    +0.000 A 
ATOM     11  C   UNL     1      32.338  -4.143  34.346  0.00  0.00    +0.000 A 
ATOM     12  S   UNL     1      32.024  -2.656  35.115  0.00  0.00    +0.000 S 
ATOM     13  C   UNL     1      33.122  -1.648  34.242  0.00  0.00    +0.000 A 
ATOM     14  C   UNL     1      33.681  -2.531  33.389  0.00  0.00    +0.000 A 
ENDBRANCH   1  13
BRANCH   9  15
ATOM     15  N   UNL     1      33.704   0.076  36.879  0.00  0.00    +0.000 NA
BRANCH  15  16
ATOM     16  C   UNL     1      34.585  -0.811  37.526  0.00  0.00    +0.000 C 
ATOM     17  C   UNL     1      36.044  -0.578  37.124  0.00  0.00    +0.000 C 
ATOM     18  C   UNL     1      36.503   0.625  37.909  0.00  0.00    +0.000 C 
ATOM     19  C   UNL     1      35.373   0.994  38.846  0.00  0.00    +0.000 C 
ATOM     20  C   UNL     1      34.644  -0.322  39.008  0.00  0.00    +0.000 C 
ENDBRANCH  15  16
ENDBRANCH   9  15
TORSDOF 3
ENDMDL
MODEL 8
REMARK VINA RESULT:      -5.3     18.751     20.847
REMARK  Name = 
REMARK  3 active torsions:
REMARK  status: ('A' for Active; 'I' for Inactive)
REMARK    1  A    between atoms: C_4  and  C_5
REMARK    2  A    between atoms: C_13  and  N_14
REMARK    3  A    between atoms: N_14  and  C_15
REMARK                            x       y       z     vdW  Elec       q    Type
REMARK                         _______ _______ _______ _____ _____    ______ ____
ROOT
ATOM      1  C   UNL     1      17.834   9.990  37.577  0.00  0.00    +0.000 A 
ATOM      2  N   UNL     1      16.892   9.970  38.552  0.00  0.00    +0.000 NA
ATOM      3  C   UNL     1      17.436   9.709  39.749  0.00  0.00    +0.000 A 
ATOM      4  C   UNL     1      16.906   9.585  41.035  0.00  0.00    +0.000 A 
ATOM      5  N   UNL     1      17.719   9.313  42.056  0.00  0.00    +0.000 NA
ATOM      6  C   UNL     1      19.030   9.164  41.834  0.00  0.00    +0.000 A 
ATOM      7  C   UNL     1      19.524   9.290  40.571  0.00  0.00    +0.000 A 
ATOM      8  N   UNL     1      18.744   9.560  39.528  0.00  0.00    +0.000 N 
ATOM      9  C   UNL     1      19.024   9.726  38.189  0.00  0.00    +0.000 A 
ENDROOT
BRANCH   1  13
ATOM     10  C   UNL     1      17.521  10.184  33.852  0.00  0.00    +0.000 A 
ATOM     11  C   UNL     1      16.793  11.341  33.880  0.00  0.00    +0.000 A 
ATOM     12  S   UNL     1      16.672  11.651  35.550  0.00  0.00    +0.000 S 
ATOM     13  C   UNL     1      17.552  10.293  36.156  0.00  0.00    +0.000 A 
ATOM     14  C   UNL     1      17.899   9.664  35.013  0.00  0.00    +0.000 A 
ENDBRANCH   1  13
BRANCH   9  15
ATOM     15  N   UNL     1      20.297   9.589  37.651  0.00  0.00    +0.000 NA
BRANCH  15  16
ATOM     16  C   UNL     1      21.186  10.502  37.053  0.00  0.00    +0.000 C 
ATOM     17  C   UNL     1      21.856  11.419  38.080  0.00  0.00    +0.000 C 
ATOM     18  C   UNL     1      22.950  10.599  38.716  0.00  0.00    +0.000 C 
ATOM     19  C   UNL     1      22.999   9.282  37.973  0.00  0.00    +0.000 C 
ATOM     20  C   UNL     1      22.422   9.650  36.623  0.00  0.00    +0.000 C 
ENDBRANCH  15  16
ENDBRANCH   9  15
TORSDOF 3
ENDMDL
MODEL 9
REMARK VINA RESULT:      -5.2     29.440     30.971
REMARK  Name = 
REMARK  3 active torsions:
REMARK  status: ('A' for Active; 'I' for Inactive)
REMARK    1  A    between atoms: C_4  and  C_5
REMARK    2  A    between atoms: C_13  and  N_14
REMARK    3  A    between atoms: N_14  and  C_15
REMARK                            x       y       z     vdW  Elec       q    Type
REMARK                         _______ _______ _______ _____ _____    ______ ____
ROOT
ATOM      1  C   UNL     1      33.266  -5.284  31.760  0.00  0.00    +0.000 A 
ATOM      2  N   UNL     1      33.760  -4.100  32.200  0.00  0.00    +0.000 NA
ATOM      3  C   UNL     1      33.341  -3.830  33.445  0.00  0.00    +0.000 A 
ATOM      4  C   UNL     1      33.564  -2.766  34.320  0.00  0.00    +0.000 A 
ATOM      5  N   UNL     1      32.996  -2.779  35.526  0.00  0.00    +0.000 NA
ATOM      6  C   UNL     1      32.221  -3.810  35.880  0.00  0.00    +0.000 A 
ATOM      7  C   UNL     1      32.018  -4.838  35.009  0.00  0.00    +0.000 A 
ATOM      8  N   UNL     1      32.568  -4.860  33.798  0.00  0.00    +0.000 N 
ATOM      9  C   UNL     1      32.499  -5.779  32.774  0.00  0.00    +0.000 A 
ENDROOT
BRANCH   1  13
ATOM     10  C   UNL     1      33.596  -6.316  28.178  0.00  0.00    +0.000 A 
ATOM     11  C   UNL     1      34.470  -7.330  28.453  0.00  0.00    +0.000 A 
ATOM     12  S   UNL     1      34.634  -7.216  30.144  0.00  0.00    +0.000 S 
ATOM     13  C   UNL     1      33.583  -5.878  30.442  0.00  0.00    +0.000 A 
ATOM     14  C   UNL     1      33.154  -5.588  29.196  0.00  0.00    +0.000 A 
ENDBRANCH   1  13
BRANCH   9  15
ATOM     15  N   UNL     1      31.735  -6.937  32.835  0.00  0.00    +0.000 NA
BRANCH  15  16
ATOM     16  C   UNL     1      30.380  -7.204  32.564  0.00  0.00    +0.000 C 
ATOM     17  C   UNL     1      29.995  -6.856  31.124  0.00  0.00    +0.000 C 
ATOM     18  C   UNL     1      30.504  -7.992  30.273  0.00  0.00    +0.000 C 
ATOM     19  C   UNL     1      31.050  -9.039  31.219  0.00  0.00    +0.000 C 
ATOM     20  C   UNL     1      30.276  -8.761  32.490  0.00  0.00    +0.000 C 
ENDBRANCH  15  16
ENDBRANCH   9  15
TORSDOF 3
ENDMDL
MODEL 10
REMARK VINA RESULT:      -5.2     20.006     22.168
REMARK  Name = 
REMARK  3 active torsions:
REMARK  status: ('A' for Active; 'I' for Inactive)
REMARK    1  A    between atoms: C_4  and  C_5
REMARK    2  A    between atoms: C_13  and  N_14
REMARK    3  A    between atoms: N_14  and  C_15
REMARK                            x       y       z     vdW  Elec       q    Type
REMARK                         _______ _______ _______ _____ _____    ______ ____
ROOT
ATOM      1  C   UNL     1      15.522   9.992  39.789  0.00  0.00    +0.000 A 
ATOM      2  N   UNL     1      14.269  10.408  39.480  0.00  0.00    +0.000 NA
ATOM      3  C   UNL     1      14.248  11.061  38.309  0.00  0.00    +0.000 A 
ATOM      4  C   UNL     1      13.231  11.667  37.570  0.00  0.00    +0.000 A 
ATOM      5  N   UNL     1      13.524  12.253  36.409  0.00  0.00    +0.000 NA
ATOM      6  C   UNL     1      14.787  12.252  35.970  0.00  0.00    +0.000 A 
ATOM      7  C   UNL     1      15.763  11.654  36.708  0.00  0.00    +0.000 A 
ATOM      8  N   UNL     1      15.509  11.059  37.870  0.00  0.00    +0.000 N 
ATOM      9  C   UNL     1      16.326  10.406  38.767  0.00  0.00    +0.000 A 
ENDROOT
BRANCH   1  13
ATOM     10  C   UNL     1      15.909   7.541  42.591  0.00  0.00    +0.000 A 
ATOM     11  C   UNL     1      16.795   8.323  43.277  0.00  0.00    +0.000 A 
ATOM     12  S   UNL     1      16.938   9.683  42.262  0.00  0.00    +0.000 S 
ATOM     13  C   UNL     1      15.863   9.206  40.997  0.00  0.00    +0.000 A 
ATOM     14  C   UNL     1      15.444   8.001  41.436  0.00  0.00    +0.000 A 
ENDBRANCH   1  13
BRANCH   9  15
ATOM     15  N   UNL     1      17.699  10.280  38.600  0.00  0.00    +0.000 NA
BRANCH  15  16
ATOM     16  C   UNL     1      18.512   9.237  38.118  0.00  0.00    +0.000 C 
ATOM     17  C   UNL     1      19.462   9.703  37.012  0.00  0.00    +0.000 C 
ATOM     18  C   UNL     1      20.595  10.413  37.711  0.00  0.00    +0.000 C 
ATOM     19  C   UNL     1      20.371  10.238  39.197  0.00  0.00    +0.000 C 
ATOM     20  C   UNL     1      19.549   8.968  39.254  0.00  0.00    +0.000 C 
ENDBRANCH  15  16
ENDBRANCH   9  15
TORSDOF 3
ENDMDL
