MODEL 1
REMARK VINA RESULT:      -7.8      0.000      0.000
REMARK  Name = 
REMARK  6 active torsions:
REMARK  status: ('A' for Active; 'I' for Inactive)
REMARK    1  A    between atoms: C_10  and  C_11
REMARK    2  A    between atoms: C_17  and  C_18
REMARK    3  A    between atoms: C_21  and  O_22
REMARK    4  A    between atoms: O_22  and  C_23
REMARK    5  A    between atoms: C_23  and  C_24
REMARK    6  A    between atoms: C_24  and  N_25
REMARK                            x       y       z     vdW  Elec       q    Type
REMARK                         _______ _______ _______ _____ _____    ______ ____
ROOT
ATOM      1  O   UNL     1      41.668  -3.632  11.064  0.00  0.00    +0.000 OA
ATOM      2  C   UNL     1      41.054  -3.086  12.195  0.00  0.00    +0.000 A 
ATOM      3  C   UNL     1      41.761  -2.953  13.383  0.00  0.00    +0.000 A 
ATOM      4  C   UNL     1      41.181  -2.413  14.526  0.00  0.00    +0.000 A 
ATOM      5  C   UNL     1      39.867  -2.019  14.413  0.00  0.00    +0.000 A 
ATOM      6  C   UNL     1      39.117  -2.118  13.289  0.00  0.00    +0.000 A 
ATOM      7  C   UNL     1      39.746  -2.667  12.166  0.00  0.00    +0.000 A 
ATOM      8  C   UNL     1      37.713  -1.712  13.116  0.00  0.00    +0.000 C 
ATOM      9  C   UNL     1      37.019  -1.364  14.388  0.00  0.00    +0.000 C 
ATOM     10  C   UNL     1      37.765  -2.232  15.506  0.00  0.00    +0.000 C 
ATOM     11  C   UNL     1      39.215  -1.404  15.718  0.00  0.00    +0.000 C 
ENDROOT
BRANCH  10  12
ATOM     12  C   UNL     1      36.959  -1.711  16.728  0.00  0.00    +0.000 A 
ATOM     13  C   UNL     1      37.389  -1.564  17.968  0.00  0.00    +0.000 A 
ATOM     14  C   UNL     1      36.581  -1.097  18.973  0.00  0.00    +0.000 A 
ATOM     15  C   UNL     1      35.290  -0.776  18.670  0.00  0.00    +0.000 A 
ATOM     16  C   UNL     1      34.782  -0.906  17.401  0.00  0.00    +0.000 A 
ATOM     17  C   UNL     1      35.663  -1.391  16.414  0.00  0.00    +0.000 A 
ENDBRANCH  10  12
BRANCH  11  18
ATOM     18  C   UNL     1      38.930   0.016  15.194  0.00  0.00    +0.000 A 
ATOM     19  C   UNL     1      37.785   0.698  15.411  0.00  0.00    +0.000 A 
ATOM     20  C   UNL     1      37.595   1.949  14.886  0.00  0.00    +0.000 A 
ATOM     21  C   UNL     1      38.583   2.516  14.128  0.00  0.00    +0.000 A 
ATOM     22  C   UNL     1      39.767   1.862  13.876  0.00  0.00    +0.000 A 
ATOM     23  C   UNL     1      39.908   0.583  14.440  0.00  0.00    +0.000 A 
BRANCH  21  24
ATOM     24  O   UNL     1      38.373   3.803  13.594  0.00  0.00    +0.000 OA
BRANCH  24  25
ATOM     25  C   UNL     1      38.005   4.871  14.422  0.00  0.00    +0.000 C 
BRANCH  25  26
ATOM     26  C   UNL     1      39.121   5.665  14.976  0.00  0.00    +0.000 C 
BRANCH  26  27
ATOM     27  N   UNL     1      39.649   5.227  16.224  0.00  0.00    +0.000 NA
ATOM     28  C   UNL     1      38.633   4.798  17.121  0.00  0.00    +0.000 C 
ATOM     29  C   UNL     1      38.990   5.318  18.490  0.00  0.00    +0.000 C 
ATOM     30  C   UNL     1      40.321   6.019  18.362  0.00  0.00    +0.000 C 
ATOM     31  C   UNL     1      40.502   6.165  16.887  0.00  0.00    +0.000 C 
ENDBRANCH  26  27
ENDBRANCH  25  26
ENDBRANCH  24  25
ENDBRANCH  21  24
ENDBRANCH  11  18
TORSDOF 6
ENDMDL
MODEL 2
REMARK VINA RESULT:      -7.4      2.273      3.159
REMARK  Name = 
REMARK  6 active torsions:
REMARK  status: ('A' for Active; 'I' for Inactive)
REMARK    1  A    between atoms: C_10  and  C_11
REMARK    2  A    between atoms: C_17  and  C_18
REMARK    3  A    between atoms: C_21  and  O_22
REMARK    4  A    between atoms: O_22  and  C_23
REMARK    5  A    between atoms: C_23  and  C_24
REMARK    6  A    between atoms: C_24  and  N_25
REMARK                            x       y       z     vdW  Elec       q    Type
REMARK                         _______ _______ _______ _____ _____    ______ ____
ROOT
ATOM      1  O   UNL     1      41.925  -3.704  11.261  0.00  0.00    +0.000 OA
ATOM      2  C   UNL     1      41.254  -3.119  12.338  0.00  0.00    +0.000 A 
ATOM      3  C   UNL     1      41.925  -2.855  13.525  0.00  0.00    +0.000 A 
ATOM      4  C   UNL     1      41.287  -2.273  14.615  0.00  0.00    +0.000 A 
ATOM      5  C   UNL     1      39.954  -1.974  14.452  0.00  0.00    +0.000 A 
ATOM      6  C   UNL     1      39.236  -2.202  13.325  0.00  0.00    +0.000 A 
ATOM      7  C   UNL     1      39.922  -2.789  12.257  0.00  0.00    +0.000 A 
ATOM      8  C   UNL     1      37.813  -1.901  13.100  0.00  0.00    +0.000 C 
ATOM      9  C   UNL     1      37.072  -1.509  14.331  0.00  0.00    +0.000 C 
ATOM     10  C   UNL     1      37.847  -2.243  15.522  0.00  0.00    +0.000 C 
ATOM     11  C   UNL     1      39.236  -1.311  15.697  0.00  0.00    +0.000 C 
ENDROOT
BRANCH  10  12
ATOM     12  C   UNL     1      36.983  -1.689  16.689  0.00  0.00    +0.000 A 
ATOM     13  C   UNL     1      35.728  -1.280  16.633  0.00  0.00    +0.000 A 
ATOM     14  C   UNL     1      35.064  -0.804  17.733  0.00  0.00    +0.000 A 
ATOM     15  C   UNL     1      35.731  -0.753  18.922  0.00  0.00    +0.000 A 
ATOM     16  C   UNL     1      37.036  -1.163  19.047  0.00  0.00    +0.000 A 
ATOM     17  C   UNL     1      37.662  -1.643  17.879  0.00  0.00    +0.000 A 
ENDBRANCH  10  12
BRANCH  11  18
ATOM     18  C   UNL     1      38.873   0.047  15.065  0.00  0.00    +0.000 A 
ATOM     19  C   UNL     1      37.706   0.696  15.263  0.00  0.00    +0.000 A 
ATOM     20  C   UNL     1      37.445   1.888  14.641  0.00  0.00    +0.000 A 
ATOM     21  C   UNL     1      38.384   2.430  13.806  0.00  0.00    +0.000 A 
ATOM     22  C   UNL     1      39.588   1.808  13.572  0.00  0.00    +0.000 A 
ATOM     23  C   UNL     1      39.803   0.589  14.235  0.00  0.00    +0.000 A 
BRANCH  21  24
ATOM     24  O   UNL     1      38.101   3.657  13.173  0.00  0.00    +0.000 OA
BRANCH  24  25
ATOM     25  C   UNL     1      36.778   4.061  12.952  0.00  0.00    +0.000 C 
BRANCH  25  26
ATOM     26  C   UNL     1      36.583   5.049  11.871  0.00  0.00    +0.000 C 
BRANCH  26  27
ATOM     27  N   UNL     1      35.859   6.226  12.216  0.00  0.00    +0.000 NA
ATOM     28  C   UNL     1      35.163   6.093  13.449  0.00  0.00    +0.000 C 
ATOM     29  C   UNL     1      33.809   6.730  13.274  0.00  0.00    +0.000 C 
ATOM     30  C   UNL     1      33.772   7.314  11.883  0.00  0.00    +0.000 C 
ATOM     31  C   UNL     1      34.958   6.703  11.212  0.00  0.00    +0.000 C 
ENDBRANCH  26  27
ENDBRANCH  25  26
ENDBRANCH  24  25
ENDBRANCH  21  24
ENDBRANCH  11  18
TORSDOF 6
ENDMDL
MODEL 3
REMARK VINA RESULT:      -7.4      1.585      2.110
REMARK  Name = 
REMARK  6 active torsions:
REMARK  status: ('A' for Active; 'I' for Inactive)
REMARK    1  A    between atoms: C_10  and  C_11
REMARK    2  A    between atoms: C_17  and  C_18
REMARK    3  A    between atoms: C_21  and  O_22
REMARK    4  A    between atoms: O_22  and  C_23
REMARK    5  A    between atoms: C_23  and  C_24
REMARK    6  A    between atoms: C_24  and  N_25
REMARK                            x       y       z     vdW  Elec       q    Type
REMARK                         _______ _______ _______ _____ _____    ______ ____
ROOT
ATOM      1  O   UNL     1      44.271  -1.110  11.297  0.00  0.00    +0.000 OA
ATOM      2  C   UNL     1      43.223  -1.243  12.212  0.00  0.00    +0.000 A 
ATOM      3  C   UNL     1      43.487  -1.357  13.571  0.00  0.00    +0.000 A 
ATOM      4  C   UNL     1      42.467  -1.490  14.508  0.00  0.00    +0.000 A 
ATOM      5  C   UNL     1      41.183  -1.502  14.012  0.00  0.00    +0.000 A 
ATOM      6  C   UNL     1      40.851  -1.396  12.702  0.00  0.00    +0.000 A 
ATOM      7  C   UNL     1      41.912  -1.264  11.800  0.00  0.00    +0.000 A 
ATOM      8  C   UNL     1      39.499  -1.403  12.123  0.00  0.00    +0.000 C 
ATOM      9  C   UNL     1      38.428  -1.787  13.083  0.00  0.00    +0.000 C 
ATOM     10  C   UNL     1      39.155  -2.739  14.143  0.00  0.00    +0.000 C 
ATOM     11  C   UNL     1      40.029  -1.652  15.085  0.00  0.00    +0.000 C 
ENDROOT
BRANCH  10  12
ATOM     12  C   UNL     1      37.926  -2.987  15.061  0.00  0.00    +0.000 A 
ATOM     13  C   UNL     1      37.932  -3.232  16.359  0.00  0.00    +0.000 A 
ATOM     14  C   UNL     1      36.778  -3.441  17.069  0.00  0.00    +0.000 A 
ATOM     15  C   UNL     1      35.588  -3.393  16.402  0.00  0.00    +0.000 A 
ATOM     16  C   UNL     1      35.514  -3.143  15.054  0.00  0.00    +0.000 A 
ATOM     17  C   UNL     1      36.736  -2.936  14.382  0.00  0.00    +0.000 A 
ENDBRANCH  10  12
BRANCH  11  18
ATOM     18  C   UNL     1      39.326  -0.299  14.867  0.00  0.00    +0.000 A 
ATOM     19  C   UNL     1      39.889   0.768  14.262  0.00  0.00    +0.000 A 
ATOM     20  C   UNL     1      39.208   1.949  14.131  0.00  0.00    +0.000 A 
ATOM     21  C   UNL     1      37.935   2.049  14.624  0.00  0.00    +0.000 A 
ATOM     22  C   UNL     1      37.318   0.991  15.249  0.00  0.00    +0.000 A 
ATOM     23  C   UNL     1      38.061  -0.196  15.355  0.00  0.00    +0.000 A 
BRANCH  21  24
ATOM     24  O   UNL     1      37.247   3.270  14.482  0.00  0.00    +0.000 OA
BRANCH  24  25
ATOM     25  C   UNL     1      37.178   4.180  15.545  0.00  0.00    +0.000 C 
BRANCH  25  26
ATOM     26  C   UNL     1      38.257   5.189  15.595  0.00  0.00    +0.000 C 
BRANCH  26  27
ATOM     27  N   UNL     1      39.224   5.027  16.628  0.00  0.00    +0.000 NA
ATOM     28  C   UNL     1      38.626   4.828  17.903  0.00  0.00    +0.000 C 
ATOM     29  C   UNL     1      39.418   5.630  18.903  0.00  0.00    +0.000 C 
ATOM     30  C   UNL     1      40.567   6.260  18.153  0.00  0.00    +0.000 C 
ATOM     31  C   UNL     1      40.198   6.072  16.719  0.00  0.00    +0.000 C 
ENDBRANCH  26  27
ENDBRANCH  25  26
ENDBRANCH  24  25
ENDBRANCH  21  24
ENDBRANCH  11  18
TORSDOF 6
ENDMDL
MODEL 4
REMARK VINA RESULT:      -7.3      1.579      2.278
REMARK  Name = 
REMARK  6 active torsions:
REMARK  status: ('A' for Active; 'I' for Inactive)
REMARK    1  A    between atoms: C_10  and  C_11
REMARK    2  A    between atoms: C_17  and  C_18
REMARK    3  A    between atoms: C_21  and  O_22
REMARK    4  A    between atoms: O_22  and  C_23
REMARK    5  A    between atoms: C_23  and  C_24
REMARK    6  A    between atoms: C_24  and  N_25
REMARK                            x       y       z     vdW  Elec       q    Type
REMARK                         _______ _______ _______ _____ _____    ______ ____
ROOT
ATOM      1  O   UNL     1      43.200  -3.605  11.445  0.00  0.00    +0.000 OA
ATOM      2  C   UNL     1      42.340  -3.081  12.414  0.00  0.00    +0.000 A 
ATOM      3  C   UNL     1      42.851  -2.407  13.516  0.00  0.00    +0.000 A 
ATOM      4  C   UNL     1      42.023  -1.873  14.498  0.00  0.00    +0.000 A 
ATOM      5  C   UNL     1      40.671  -2.052  14.317  0.00  0.00    +0.000 A 
ATOM      6  C   UNL     1      40.102  -2.697  13.269  0.00  0.00    +0.000 A 
ATOM      7  C   UNL     1      40.977  -3.216  12.308  0.00  0.00    +0.000 A 
ATOM      8  C   UNL     1      38.667  -2.914  13.029  0.00  0.00    +0.000 C 
ATOM      9  C   UNL     1      37.797  -2.565  14.186  0.00  0.00    +0.000 C 
ATOM     10  C   UNL     1      38.724  -2.784  15.471  0.00  0.00    +0.000 C 
ATOM     11  C   UNL     1      39.736  -1.440  15.438  0.00  0.00    +0.000 C 
ENDROOT
BRANCH  10  12
ATOM     12  C   UNL     1      37.688  -2.336  16.539  0.00  0.00    +0.000 A 
ATOM     13  C   UNL     1      36.375  -2.281  16.408  0.00  0.00    +0.000 A 
ATOM     14  C   UNL     1      35.555  -1.862  17.425  0.00  0.00    +0.000 A 
ATOM     15  C   UNL     1      36.126  -1.490  18.607  0.00  0.00    +0.000 A 
ATOM     16  C   UNL     1      37.484  -1.524  18.806  0.00  0.00    +0.000 A 
ATOM     17  C   UNL     1      38.272  -1.965  17.723  0.00  0.00    +0.000 A 
ENDBRANCH  10  12
BRANCH  11  18
ATOM     18  C   UNL     1      38.980  -0.408  14.580  0.00  0.00    +0.000 A 
ATOM     19  C   UNL     1      39.395   0.036  13.375  0.00  0.00    +0.000 A 
ATOM     20  C   UNL     1      38.681   0.979  12.683  0.00  0.00    +0.000 A 
ATOM     21  C   UNL     1      37.527   1.478  13.225  0.00  0.00    +0.000 A 
ATOM     22  C   UNL     1      37.063   1.059  14.450  0.00  0.00    +0.000 A 
ATOM     23  C   UNL     1      37.834   0.091  15.114  0.00  0.00    +0.000 A 
BRANCH  21  24
ATOM     24  O   UNL     1      36.804   2.448  12.503  0.00  0.00    +0.000 OA
BRANCH  24  25
ATOM     25  C   UNL     1      37.433   3.609  12.035  0.00  0.00    +0.000 C 
BRANCH  25  26
ATOM     26  C   UNL     1      37.039   4.865  12.707  0.00  0.00    +0.000 C 
BRANCH  26  27
ATOM     27  N   UNL     1      37.695   5.153  13.938  0.00  0.00    +0.000 NA
ATOM     28  C   UNL     1      39.033   4.672  13.965  0.00  0.00    +0.000 C 
ATOM     29  C   UNL     1      39.273   4.083  15.331  0.00  0.00    +0.000 C 
ATOM     30  C   UNL     1      38.017   4.311  16.137  0.00  0.00    +0.000 C 
ATOM     31  C   UNL     1      37.007   4.710  15.113  0.00  0.00    +0.000 C 
ENDBRANCH  26  27
ENDBRANCH  25  26
ENDBRANCH  24  25
ENDBRANCH  21  24
ENDBRANCH  11  18
TORSDOF 6
ENDMDL
MODEL 5
REMARK VINA RESULT:      -7.3      2.218      3.341
REMARK  Name = 
REMARK  6 active torsions:
REMARK  status: ('A' for Active; 'I' for Inactive)
REMARK    1  A    between atoms: C_10  and  C_11
REMARK    2  A    between atoms: C_17  and  C_18
REMARK    3  A    between atoms: C_21  and  O_22
REMARK    4  A    between atoms: O_22  and  C_23
REMARK    5  A    between atoms: C_23  and  C_24
REMARK    6  A    between atoms: C_24  and  N_25
REMARK                            x       y       z     vdW  Elec       q    Type
REMARK                         _______ _______ _______ _____ _____    ______ ____
ROOT
ATOM      1  O   UNL     1      41.918  -3.657  11.174  0.00  0.00    +0.000 OA
ATOM      2  C   UNL     1      41.250  -3.100  12.268  0.00  0.00    +0.000 A 
ATOM      3  C   UNL     1      41.887  -2.987  13.497  0.00  0.00    +0.000 A 
ATOM      4  C   UNL     1      41.251  -2.436  14.605  0.00  0.00    +0.000 A 
ATOM      5  C   UNL     1      39.957  -2.010  14.414  0.00  0.00    +0.000 A 
ATOM      6  C   UNL     1      39.274  -2.088  13.247  0.00  0.00    +0.000 A 
ATOM      7  C   UNL     1      39.956  -2.649  12.162  0.00  0.00    +0.000 A 
ATOM      8  C   UNL     1      37.893  -1.648  12.991  0.00  0.00    +0.000 C 
ATOM      9  C   UNL     1      37.132  -1.287  14.220  0.00  0.00    +0.000 C 
ATOM     10  C   UNL     1      37.788  -2.175  15.378  0.00  0.00    +0.000 C 
ATOM     11  C   UNL     1      39.241  -1.383  15.680  0.00  0.00    +0.000 C 
ENDROOT
BRANCH  10  12
ATOM     12  C   UNL     1      36.922  -1.638  16.551  0.00  0.00    +0.000 A 
ATOM     13  C   UNL     1      37.290  -1.473  17.809  0.00  0.00    +0.000 A 
ATOM     14  C   UNL     1      36.433  -0.992  18.765  0.00  0.00    +0.000 A 
ATOM     15  C   UNL     1      35.159  -0.678  18.395  0.00  0.00    +0.000 A 
ATOM     16  C   UNL     1      34.714  -0.827  17.104  0.00  0.00    +0.000 A 
ATOM     17  C   UNL     1      35.643  -1.325  16.168  0.00  0.00    +0.000 A 
ENDBRANCH  10  12
BRANCH  11  18
ATOM     18  C   UNL     1      39.023   0.045  15.145  0.00  0.00    +0.000 A 
ATOM     19  C   UNL     1      37.885   0.754  15.299  0.00  0.00    +0.000 A 
ATOM     20  C   UNL     1      37.757   2.011  14.768  0.00  0.00    +0.000 A 
ATOM     21  C   UNL     1      38.801   2.555  14.070  0.00  0.00    +0.000 A 
ATOM     22  C   UNL     1      39.980   1.872  13.885  0.00  0.00    +0.000 A 
ATOM     23  C   UNL     1      40.057   0.589  14.451  0.00  0.00    +0.000 A 
BRANCH  21  24
ATOM     24  O   UNL     1      38.654   3.848  13.529  0.00  0.00    +0.000 OA
BRANCH  24  25
ATOM     25  C   UNL     1      39.436   4.263  12.443  0.00  0.00    +0.000 C 
BRANCH  25  26
ATOM     26  C   UNL     1      38.751   4.288  11.134  0.00  0.00    +0.000 C 
BRANCH  26  27
ATOM     27  N   UNL     1      38.932   3.144  10.305  0.00  0.00    +0.000 NA
ATOM     28  C   UNL     1      37.939   2.151  10.528  0.00  0.00    +0.000 C 
ATOM     29  C   UNL     1      38.630   0.811  10.513  0.00  0.00    +0.000 C 
ATOM     30  C   UNL     1      40.083   1.067  10.194  0.00  0.00    +0.000 C 
ATOM     31  C   UNL     1      40.229   2.542  10.372  0.00  0.00    +0.000 C 
ENDBRANCH  26  27
ENDBRANCH  25  26
ENDBRANCH  24  25
ENDBRANCH  21  24
ENDBRANCH  11  18
TORSDOF 6
ENDMDL
MODEL 6
REMARK VINA RESULT:      -7.3      2.958      5.229
REMARK  Name = 
REMARK  6 active torsions:
REMARK  status: ('A' for Active; 'I' for Inactive)
REMARK    1  A    between atoms: C_10  and  C_11
REMARK    2  A    between atoms: C_17  and  C_18
REMARK    3  A    between atoms: C_21  and  O_22
REMARK    4  A    between atoms: O_22  and  C_23
REMARK    5  A    between atoms: C_23  and  C_24
REMARK    6  A    between atoms: C_24  and  N_25
REMARK                            x       y       z     vdW  Elec       q    Type
REMARK                         _______ _______ _______ _____ _____    ______ ____
ROOT
ATOM      1  O   UNL     1      37.660  -6.702  17.244  0.00  0.00    +0.000 OA
ATOM      2  C   UNL     1      37.717  -5.315  17.088  0.00  0.00    +0.000 A 
ATOM      3  C   UNL     1      38.451  -4.538  17.975  0.00  0.00    +0.000 A 
ATOM      4  C   UNL     1      38.529  -3.154  17.849  0.00  0.00    +0.000 A 
ATOM      5  C   UNL     1      37.838  -2.600  16.796  0.00  0.00    +0.000 A 
ATOM      6  C   UNL     1      37.103  -3.294  15.893  0.00  0.00    +0.000 A 
ATOM      7  C   UNL     1      37.056  -4.682  16.064  0.00  0.00    +0.000 A 
ATOM      8  C   UNL     1      36.348  -2.751  14.753  0.00  0.00    +0.000 C 
ATOM      9  C   UNL     1      36.227  -1.266  14.755  0.00  0.00    +0.000 C 
ATOM     10  C   UNL     1      36.297  -0.856  16.300  0.00  0.00    +0.000 C 
ATOM     11  C   UNL     1      37.933  -1.026  16.658  0.00  0.00    +0.000 C 
ENDROOT
BRANCH  10  12
ATOM     12  C   UNL     1      36.208   0.682  16.098  0.00  0.00    +0.000 A 
ATOM     13  C   UNL     1      36.553   1.624  16.959  0.00  0.00    +0.000 A 
ATOM     14  C   UNL     1      36.425   2.958  16.672  0.00  0.00    +0.000 A 
ATOM     15  C   UNL     1      35.922   3.315  15.455  0.00  0.00    +0.000 A 
ATOM     16  C   UNL     1      35.546   2.385  14.517  0.00  0.00    +0.000 A 
ATOM     17  C   UNL     1      35.703   1.030  14.873  0.00  0.00    +0.000 A 
ENDBRANCH  10  12
BRANCH  11  18
ATOM     18  C   UNL     1      38.639  -0.950  15.291  0.00  0.00    +0.000 A 
ATOM     19  C   UNL     1      39.161  -2.010  14.639  0.00  0.00    +0.000 A 
ATOM     20  C   UNL     1      39.800  -1.857  13.437  0.00  0.00    +0.000 A 
ATOM     21  C   UNL     1      39.912  -0.608  12.890  0.00  0.00    +0.000 A 
ATOM     22  C   UNL     1      39.397   0.504  13.515  0.00  0.00    +0.000 A 
ATOM     23  C   UNL     1      38.751   0.289  14.743  0.00  0.00    +0.000 A 
BRANCH  21  24
ATOM     24  O   UNL     1      40.573  -0.466  11.653  0.00  0.00    +0.000 OA
BRANCH  24  25
ATOM     25  C   UNL     1      41.592   0.481  11.491  0.00  0.00    +0.000 C 
BRANCH  25  26
ATOM     26  C   UNL     1      42.942  -0.068  11.245  0.00  0.00    +0.000 C 
BRANCH  26  27
ATOM     27  N   UNL     1      43.706  -0.402  12.400  0.00  0.00    +0.000 NA
ATOM     28  C   UNL     1      43.539  -1.761  12.785  0.00  0.00    +0.000 C 
ATOM     29  C   UNL     1      43.438  -1.795  14.288  0.00  0.00    +0.000 C 
ATOM     30  C   UNL     1      43.630  -0.379  14.775  0.00  0.00    +0.000 C 
ATOM     31  C   UNL     1      43.495   0.442  13.536  0.00  0.00    +0.000 C 
ENDBRANCH  26  27
ENDBRANCH  25  26
ENDBRANCH  24  25
ENDBRANCH  21  24
ENDBRANCH  11  18
TORSDOF 6
ENDMDL
MODEL 7
REMARK VINA RESULT:      -7.2      3.302      6.430
REMARK  Name = 
REMARK  6 active torsions:
REMARK  status: ('A' for Active; 'I' for Inactive)
REMARK    1  A    between atoms: C_10  and  C_11
REMARK    2  A    between atoms: C_17  and  C_18
REMARK    3  A    between atoms: C_21  and  O_22
REMARK    4  A    between atoms: O_22  and  C_23
REMARK    5  A    between atoms: C_23  and  C_24
REMARK    6  A    between atoms: C_24  and  N_25
REMARK                            x       y       z     vdW  Elec       q    Type
REMARK                         _______ _______ _______ _____ _____    ______ ____
ROOT
ATOM      1  O   UNL     1      37.092  -5.960  16.950  0.00  0.00    +0.000 OA
ATOM      2  C   UNL     1      37.292  -4.622  16.600  0.00  0.00    +0.000 A 
ATOM      3  C   UNL     1      37.324  -3.637  17.578  0.00  0.00    +0.000 A 
ATOM      4  C   UNL     1      37.522  -2.296  17.264  0.00  0.00    +0.000 A 
ATOM      5  C   UNL     1      37.684  -2.002  15.930  0.00  0.00    +0.000 A 
ATOM      6  C   UNL     1      37.665  -2.908  14.923  0.00  0.00    +0.000 A 
ATOM      7  C   UNL     1      37.462  -4.243  15.290  0.00  0.00    +0.000 A 
ATOM      8  C   UNL     1      37.833  -2.646  13.485  0.00  0.00    +0.000 C 
ATOM      9  C   UNL     1      37.801  -1.202  13.122  0.00  0.00    +0.000 C 
ATOM     10  C   UNL     1      36.888  -0.522  14.246  0.00  0.00    +0.000 C 
ATOM     11  C   UNL     1      37.910  -0.474  15.582  0.00  0.00    +0.000 C 
ENDROOT
BRANCH  10  12
ATOM     12  C   UNL     1      37.011   0.942  13.740  0.00  0.00    +0.000 A 
ATOM     13  C   UNL     1      36.905   2.048  14.455  0.00  0.00    +0.000 A 
ATOM     14  C   UNL     1      37.029   3.294  13.897  0.00  0.00    +0.000 A 
ATOM     15  C   UNL     1      37.269   3.384  12.557  0.00  0.00    +0.000 A 
ATOM     16  C   UNL     1      37.389   2.273  11.759  0.00  0.00    +0.000 A 
ATOM     17  C   UNL     1      37.253   1.021  12.394  0.00  0.00    +0.000 A 
ENDBRANCH  10  12
BRANCH  11  18
ATOM     18  C   UNL     1      39.328  -0.575  14.987  0.00  0.00    +0.000 A 
ATOM     19  C   UNL     1      39.907   0.375  14.222  0.00  0.00    +0.000 A 
ATOM     20  C   UNL     1      41.164   0.199  13.705  0.00  0.00    +0.000 A 
ATOM     21  C   UNL     1      41.842  -0.959  13.969  0.00  0.00    +0.000 A 
ATOM     22  C   UNL     1      41.296  -1.957  14.742  0.00  0.00    +0.000 A 
ATOM     23  C   UNL     1      40.006  -1.724  15.247  0.00  0.00    +0.000 A 
BRANCH  21  24
ATOM     24  O   UNL     1      43.134  -1.126  13.430  0.00  0.00    +0.000 OA
BRANCH  24  25
ATOM     25  C   UNL     1      43.526  -2.353  12.878  0.00  0.00    +0.000 C 
BRANCH  25  26
ATOM     26  C   UNL     1      43.746  -2.355  11.417  0.00  0.00    +0.000 C 
BRANCH  26  27
ATOM     27  N   UNL     1      42.582  -2.477  10.604  0.00  0.00    +0.000 NA
ATOM     28  C   UNL     1      42.042  -1.212  10.241  0.00  0.00    +0.000 C 
ATOM     29  C   UNL     1      40.542  -1.316  10.349  0.00  0.00    +0.000 C 
ATOM     30  C   UNL     1      40.224  -2.742  10.727  0.00  0.00    +0.000 C 
ATOM     31  C   UNL     1      41.544  -3.299  11.145  0.00  0.00    +0.000 C 
ENDBRANCH  26  27
ENDBRANCH  25  26
ENDBRANCH  24  25
ENDBRANCH  21  24
ENDBRANCH  11  18
TORSDOF 6
ENDMDL
MODEL 8
REMARK VINA RESULT:      -7.2      6.902      9.903
REMARK  Name = 
REMARK  6 active torsions:
REMARK  status: ('A' for Active; 'I' for Inactive)
REMARK    1  A    between atoms: C_10  and  C_11
REMARK    2  A    between atoms: C_17  and  C_18
REMARK    3  A    between atoms: C_21  and  O_22
REMARK    4  A    between atoms: O_22  and  C_23
REMARK    5  A    between atoms: C_23  and  C_24
REMARK    6  A    between atoms: C_24  and  N_25
REMARK                            x       y       z     vdW  Elec       q    Type
REMARK                         _______ _______ _______ _____ _____    ______ ____
ROOT
ATOM      1  O   UNL     1      46.346   7.855  21.618  0.00  0.00    +0.000 OA
ATOM      2  C   UNL     1      45.067   7.489  21.188  0.00  0.00    +0.000 A 
ATOM      3  C   UNL     1      44.362   6.493  21.851  0.00  0.00    +0.000 A 
ATOM      4  C   UNL     1      43.087   6.105  21.450  0.00  0.00    +0.000 A 
ATOM      5  C   UNL     1      42.566   6.764  20.360  0.00  0.00    +0.000 A 
ATOM      6  C   UNL     1      43.195   7.744  19.666  0.00  0.00    +0.000 A 
ATOM      7  C   UNL     1      44.474   8.097  20.108  0.00  0.00    +0.000 A 
ATOM      8  C   UNL     1      42.683   8.477  18.498  0.00  0.00    +0.000 C 
ATOM      9  C   UNL     1      41.435   7.906  17.919  0.00  0.00    +0.000 C 
ATOM     10  C   UNL     1      41.501   6.347  18.274  0.00  0.00    +0.000 C 
ATOM     11  C   UNL     1      41.115   6.318  19.911  0.00  0.00    +0.000 C 
ENDROOT
BRANCH  10  12
ATOM     12  C   UNL     1      40.135   5.946  17.651  0.00  0.00    +0.000 A 
ATOM     13  C   UNL     1      39.304   5.012  18.078  0.00  0.00    +0.000 A 
ATOM     14  C   UNL     1      38.120   4.741  17.442  0.00  0.00    +0.000 A 
ATOM     15  C   UNL     1      37.800   5.465  16.331  0.00  0.00    +0.000 A 
ATOM     16  C   UNL     1      38.621   6.449  15.837  0.00  0.00    +0.000 A 
ATOM     17  C   UNL     1      39.823   6.680  16.536  0.00  0.00    +0.000 A 
ENDBRANCH  10  12
BRANCH  11  18
ATOM     18  C   UNL     1      40.372   7.646  20.157  0.00  0.00    +0.000 A 
ATOM     19  C   UNL     1      40.973   8.809  20.485  0.00  0.00    +0.000 A 
ATOM     20  C   UNL     1      40.240   9.943  20.716  0.00  0.00    +0.000 A 
ATOM     21  C   UNL     1      38.876   9.894  20.614  0.00  0.00    +0.000 A 
ATOM     22  C   UNL     1      38.217   8.733  20.283  0.00  0.00    +0.000 A 
ATOM     23  C   UNL     1      39.018   7.602  20.056  0.00  0.00    +0.000 A 
BRANCH  21  24
ATOM     24  O   UNL     1      38.135  11.069  20.855  0.00  0.00    +0.000 OA
BRANCH  24  25
ATOM     25  C   UNL     1      38.250  12.175  20.003  0.00  0.00    +0.000 C 
BRANCH  25  26
ATOM     26  C   UNL     1      37.110  12.399  19.090  0.00  0.00    +0.000 C 
BRANCH  26  27
ATOM     27  N   UNL     1      37.189  11.768  17.815  0.00  0.00    +0.000 NA
ATOM     28  C   UNL     1      36.328  10.641  17.715  0.00  0.00    +0.000 C 
ATOM     29  C   UNL     1      37.085   9.560  16.987  0.00  0.00    +0.000 C 
ATOM     30  C   UNL     1      38.422  10.142  16.597  0.00  0.00    +0.000 C 
ATOM     31  C   UNL     1      38.507  11.398  17.400  0.00  0.00    +0.000 C 
ENDBRANCH  26  27
ENDBRANCH  25  26
ENDBRANCH  24  25
ENDBRANCH  21  24
ENDBRANCH  11  18
TORSDOF 6
ENDMDL
MODEL 9
REMARK VINA RESULT:      -7.2      5.232      7.939
REMARK  Name = 
REMARK  6 active torsions:
REMARK  status: ('A' for Active; 'I' for Inactive)
REMARK    1  A    between atoms: C_10  and  C_11
REMARK    2  A    between atoms: C_17  and  C_18
REMARK    3  A    between atoms: C_21  and  O_22
REMARK    4  A    between atoms: O_22  and  C_23
REMARK    5  A    between atoms: C_23  and  C_24
REMARK    6  A    between atoms: C_24  and  N_25
REMARK                            x       y       z     vdW  Elec       q    Type
REMARK                         _______ _______ _______ _____ _____    ______ ____
ROOT
ATOM      1  O   UNL     1      43.054   7.298  19.937  0.00  0.00    +0.000 OA
ATOM      2  C   UNL     1      41.884   6.856  19.313  0.00  0.00    +0.000 A 
ATOM      3  C   UNL     1      40.716   6.695  20.046  0.00  0.00    +0.000 A 
ATOM      4  C   UNL     1      39.534   6.257  19.456  0.00  0.00    +0.000 A 
ATOM      5  C   UNL     1      39.589   5.994  18.106  0.00  0.00    +0.000 A 
ATOM      6  C   UNL     1      40.692   6.128  17.329  0.00  0.00    +0.000 A 
ATOM      7  C   UNL     1      41.854   6.571  17.970  0.00  0.00    +0.000 A 
ATOM      8  C   UNL     1      40.802   5.861  15.887  0.00  0.00    +0.000 C 
ATOM      9  C   UNL     1      39.621   5.166  15.304  0.00  0.00    +0.000 C 
ATOM     10  C   UNL     1      39.009   4.322  16.517  0.00  0.00    +0.000 C 
ATOM     11  C   UNL     1      38.240   5.498  17.443  0.00  0.00    +0.000 C 
ENDROOT
BRANCH  10  12
ATOM     12  C   UNL     1      37.796   3.726  15.749  0.00  0.00    +0.000 A 
ATOM     13  C   UNL     1      36.627   3.368  16.251  0.00  0.00    +0.000 A 
ATOM     14  C   UNL     1      35.626   2.847  15.473  0.00  0.00    +0.000 A 
ATOM     15  C   UNL     1      35.855   2.696  14.136  0.00  0.00    +0.000 A 
ATOM     16  C   UNL     1      37.047   3.048  13.554  0.00  0.00    +0.000 A 
ATOM     17  C   UNL     1      38.036   3.579  14.408  0.00  0.00    +0.000 A 
ENDBRANCH  10  12
BRANCH  11  18
ATOM     18  C   UNL     1      38.011   6.669  16.468  0.00  0.00    +0.000 A 
ATOM     19  C   UNL     1      37.613   6.532  15.186  0.00  0.00    +0.000 A 
ATOM     20  C   UNL     1      37.459   7.623  14.372  0.00  0.00    +0.000 A 
ATOM     21  C   UNL     1      37.714   8.872  14.868  0.00  0.00    +0.000 A 
ATOM     22  C   UNL     1      38.123   9.064  16.167  0.00  0.00    +0.000 A 
ATOM     23  C   UNL     1      38.263   7.912  16.957  0.00  0.00    +0.000 A 
BRANCH  21  24
ATOM     24  O   UNL     1      37.552   9.985  14.018  0.00  0.00    +0.000 OA
BRANCH  24  25
ATOM     25  C   UNL     1      36.373  10.158  13.282  0.00  0.00    +0.000 C 
BRANCH  25  26
ATOM     26  C   UNL     1      35.126  10.206  14.073  0.00  0.00    +0.000 C 
BRANCH  26  27
ATOM     27  N   UNL     1      34.137   9.233  13.753  0.00  0.00    +0.000 NA
ATOM     28  C   UNL     1      33.860   8.363  14.843  0.00  0.00    +0.000 C 
ATOM     29  C   UNL     1      33.724   6.970  14.285  0.00  0.00    +0.000 C 
ATOM     30  C   UNL     1      33.864   7.079  12.786  0.00  0.00    +0.000 C 
ATOM     31  C   UNL     1      34.404   8.456  12.581  0.00  0.00    +0.000 C 
ENDBRANCH  26  27
ENDBRANCH  25  26
ENDBRANCH  24  25
ENDBRANCH  21  24
ENDBRANCH  11  18
TORSDOF 6
ENDMDL
MODEL 10
REMARK VINA RESULT:      -7.1      2.290      3.297
REMARK  Name = 
REMARK  6 active torsions:
REMARK  status: ('A' for Active; 'I' for Inactive)
REMARK    1  A    between atoms: C_10  and  C_11
REMARK    2  A    between atoms: C_17  and  C_18
REMARK    3  A    between atoms: C_21  and  O_22
REMARK    4  A    between atoms: O_22  and  C_23
REMARK    5  A    between atoms: C_23  and  C_24
REMARK    6  A    between atoms: C_24  and  N_25
REMARK                            x       y       z     vdW  Elec       q    Type
REMARK                         _______ _______ _______ _____ _____    ______ ____
ROOT
ATOM      1  O   UNL     1      44.117  -1.735  11.476  0.00  0.00    +0.000 OA
ATOM      2  C   UNL     1      43.051  -1.728  12.379  0.00  0.00    +0.000 A 
ATOM      3  C   UNL     1      43.288  -1.754  13.747  0.00  0.00    +0.000 A 
ATOM      4  C   UNL     1      42.250  -1.748  14.673  0.00  0.00    +0.000 A 
ATOM      5  C   UNL     1      40.975  -1.714  14.157  0.00  0.00    +0.000 A 
ATOM      6  C   UNL     1      40.668  -1.687  12.837  0.00  0.00    +0.000 A 
ATOM      7  C   UNL     1      41.747  -1.695  11.946  0.00  0.00    +0.000 A 
ATOM      8  C   UNL     1      39.326  -1.649  12.236  0.00  0.00    +0.000 C 
ATOM      9  C   UNL     1      38.219  -1.887  13.203  0.00  0.00    +0.000 C 
ATOM     10  C   UNL     1      38.867  -2.801  14.345  0.00  0.00    +0.000 C 
ATOM     11  C   UNL     1      39.800  -1.705  15.217  0.00  0.00    +0.000 C 
ENDROOT
BRANCH  10  12
ATOM     12  C   UNL     1      37.612  -2.896  15.256  0.00  0.00    +0.000 A 
ATOM     13  C   UNL     1      37.578  -2.879  16.577  0.00  0.00    +0.000 A 
ATOM     14  C   UNL     1      36.405  -2.975  17.279  0.00  0.00    +0.000 A 
ATOM     15  C   UNL     1      35.239  -3.093  16.581  0.00  0.00    +0.000 A 
ATOM     16  C   UNL     1      35.207  -3.118  15.209  0.00  0.00    +0.000 A 
ATOM     17  C   UNL     1      36.446  -3.014  14.545  0.00  0.00    +0.000 A 
ENDBRANCH  10  12
BRANCH  11  18
ATOM     18  C   UNL     1      39.191  -0.329  14.885  0.00  0.00    +0.000 A 
ATOM     19  C   UNL     1      37.880  -0.026  14.987  0.00  0.00    +0.000 A 
ATOM     20  C   UNL     1      37.411   1.215  14.645  0.00  0.00    +0.000 A 
ATOM     21  C   UNL     1      38.288   2.162  14.191  0.00  0.00    +0.000 A 
ATOM     22  C   UNL     1      39.633   1.903  14.068  0.00  0.00    +0.000 A 
ATOM     23  C   UNL     1      40.059   0.616  14.434  0.00  0.00    +0.000 A 
BRANCH  21  24
ATOM     24  O   UNL     1      37.790   3.434  13.842  0.00  0.00    +0.000 OA
BRANCH  24  25
ATOM     25  C   UNL     1      37.007   4.168  14.742  0.00  0.00    +0.000 C 
BRANCH  25  26
ATOM     26  C   UNL     1      35.639   4.489  14.284  0.00  0.00    +0.000 C 
BRANCH  26  27
ATOM     27  N   UNL     1      35.441   5.799  13.759  0.00  0.00    +0.000 NA
ATOM     28  C   UNL     1      34.167   6.332  14.101  0.00  0.00    +0.000 C 
ATOM     29  C   UNL     1      33.632   7.037  12.882  0.00  0.00    +0.000 C 
ATOM     30  C   UNL     1      34.699   6.952  11.818  0.00  0.00    +0.000 C 
ATOM     31  C   UNL     1      35.646   5.927  12.349  0.00  0.00    +0.000 C 
ENDBRANCH  26  27
ENDBRANCH  25  26
ENDBRANCH  24  25
ENDBRANCH  21  24
ENDBRANCH  11  18
TORSDOF 6
ENDMDL
