MODEL 1
REMARK VINA RESULT:      -7.9      0.000      0.000
REMARK  Name = 
REMARK  3 active torsions:
REMARK  status: ('A' for Active; 'I' for Inactive)
REMARK    1  A    between atoms: C_7  and  C_8
REMARK    2  A    between atoms: N_10  and  C_11
REMARK    3  A    between atoms: C_16  and  N_17
REMARK                            x       y       z     vdW  Elec       q    Type
REMARK                         _______ _______ _______ _____ _____    ______ ____
ROOT
ATOM      1  C   UNL     1      16.412  11.747  36.579  0.00  0.00    +0.000 C 
ATOM      2  O   UNL     1      17.174  12.646  36.101  0.00  0.00    +0.000 OA
ATOM      3  N   UNL     1      15.163  11.576  35.970  0.00  0.00    +0.000 NA
ENDROOT
BRANCH   1  10
ATOM      4  C   UNL     1      15.468   9.345  40.840  0.00  0.00    +0.000 C 
ATOM      5  C   UNL     1      16.385   9.797  39.785  0.00  0.00    +0.000 A 
ATOM      6  C   UNL     1      17.714   9.464  39.872  0.00  0.00    +0.000 A 
ATOM      7  C   UNL     1      18.656   9.839  38.932  0.00  0.00    +0.000 A 
ATOM      8  C   UNL     1      20.095   9.470  39.042  0.00  0.00    +0.000 C 
ATOM      9  C   UNL     1      18.186  10.589  37.867  0.00  0.00    +0.000 A 
ATOM     10  C   UNL     1      16.870  10.958  37.716  0.00  0.00    +0.000 A 
ATOM     11  C   UNL     1      15.980  10.553  38.685  0.00  0.00    +0.000 A 
ENDBRANCH   1  10
BRANCH   3  12
ATOM     12  C   UNL     1      14.727  12.363  34.851  0.00  0.00    +0.000 A 
ATOM     13  C   UNL     1      13.965  13.487  34.995  0.00  0.00    +0.000 A 
ATOM     14  C   UNL     1      13.593  14.181  33.855  0.00  0.00    +0.000 A 
ATOM     15  C   UNL     1      13.980  13.756  32.583  0.00  0.00    +0.000 A 
ATOM     16  F   UNL     1      13.627  14.420  31.458  0.00  0.00    +0.000 F 
ATOM     17  C   UNL     1      14.753  12.616  32.444  0.00  0.00    +0.000 A 
ATOM     18  C   UNL     1      15.114  11.936  33.602  0.00  0.00    +0.000 A 
BRANCH  17  19
ATOM     19  N   UNL     1      15.163  12.158  31.176  0.00  0.00    +0.000 N 
ATOM     20  O   UNL     1      14.542  11.250  30.621  0.00  0.00    +0.000 OA
ATOM     21  O   UNL     1      16.241  12.720  30.569  0.00  0.00    +0.000 OA
ENDBRANCH  17  19
ENDBRANCH   3  12
TORSDOF 3
ENDMDL
MODEL 2
REMARK VINA RESULT:      -7.7      3.451      7.447
REMARK  Name = 
REMARK  3 active torsions:
REMARK  status: ('A' for Active; 'I' for Inactive)
REMARK    1  A    between atoms: C_7  and  C_8
REMARK    2  A    between atoms: N_10  and  C_11
REMARK    3  A    between atoms: C_16  and  N_17
REMARK                            x       y       z     vdW  Elec       q    Type
REMARK                         _______ _______ _______ _____ _____    ______ ____
ROOT
ATOM      1  C   UNL     1      16.001  11.510  35.161  0.00  0.00    +0.000 C 
ATOM      2  O   UNL     1      16.345  10.348  34.777  0.00  0.00    +0.000 OA
ATOM      3  N   UNL     1      16.430  11.918  36.430  0.00  0.00    +0.000 NA
ENDROOT
BRANCH   1  10
ATOM      4  C   UNL     1      12.781  15.251  34.488  0.00  0.00    +0.000 C 
ATOM      5  C   UNL     1      13.626  14.164  33.977  0.00  0.00    +0.000 A 
ATOM      6  C   UNL     1      13.657  13.923  32.626  0.00  0.00    +0.000 A 
ATOM      7  C   UNL     1      14.419  12.927  32.046  0.00  0.00    +0.000 A 
ATOM      8  C   UNL     1      14.439  12.679  30.577  0.00  0.00    +0.000 C 
ATOM      9  C   UNL     1      15.174  12.156  32.915  0.00  0.00    +0.000 A 
ATOM     10  C   UNL     1      15.192  12.341  34.277  0.00  0.00    +0.000 A 
ATOM     11  C   UNL     1      14.411  13.351  34.793  0.00  0.00    +0.000 A 
ENDBRANCH   1  10
BRANCH   3  12
ATOM     12  C   UNL     1      17.226  11.087  37.288  0.00  0.00    +0.000 A 
ATOM     13  C   UNL     1      16.693  10.376  38.324  0.00  0.00    +0.000 A 
ATOM     14  C   UNL     1      17.542   9.601  39.098  0.00  0.00    +0.000 A 
ATOM     15  C   UNL     1      18.912   9.536  38.836  0.00  0.00    +0.000 A 
ATOM     16  F   UNL     1      19.756   8.785  39.580  0.00  0.00    +0.000 F 
ATOM     17  C   UNL     1      19.447  10.260  37.784  0.00  0.00    +0.000 A 
ATOM     18  C   UNL     1      18.575  11.030  37.022  0.00  0.00    +0.000 A 
BRANCH  17  19
ATOM     19  N   UNL     1      20.824  10.218  37.491  0.00  0.00    +0.000 N 
ATOM     20  O   UNL     1      21.219   9.646  36.474  0.00  0.00    +0.000 OA
ATOM     21  O   UNL     1      21.713  10.811  38.330  0.00  0.00    +0.000 OA
ENDBRANCH  17  19
ENDBRANCH   3  12
TORSDOF 3
ENDMDL
MODEL 3
REMARK VINA RESULT:      -7.7      3.411      7.581
REMARK  Name = 
REMARK  3 active torsions:
REMARK  status: ('A' for Active; 'I' for Inactive)
REMARK    1  A    between atoms: C_7  and  C_8
REMARK    2  A    between atoms: N_10  and  C_11
REMARK    3  A    between atoms: C_16  and  N_17
REMARK                            x       y       z     vdW  Elec       q    Type
REMARK                         _______ _______ _______ _____ _____    ______ ____
ROOT
ATOM      1  C   UNL     1      15.939  11.604  35.159  0.00  0.00    +0.000 C 
ATOM      2  O   UNL     1      16.298  10.448  34.770  0.00  0.00    +0.000 OA
ATOM      3  N   UNL     1      16.350  12.006  36.436  0.00  0.00    +0.000 NA
ENDROOT
BRANCH   1  10
ATOM      4  C   UNL     1      14.394  12.805  30.579  0.00  0.00    +0.000 C 
ATOM      5  C   UNL     1      14.398  12.998  32.035  0.00  0.00    +0.000 A 
ATOM      6  C   UNL     1      13.620  13.991  32.577  0.00  0.00    +0.000 A 
ATOM      7  C   UNL     1      13.553  14.253  33.932  0.00  0.00    +0.000 A 
ATOM      8  C   UNL     1      12.703  15.335  34.503  0.00  0.00    +0.000 C 
ATOM      9  C   UNL     1      14.331  13.446  34.745  0.00  0.00    +0.000 A 
ATOM     10  C   UNL     1      15.134  12.434  34.272  0.00  0.00    +0.000 A 
ATOM     11  C   UNL     1      15.156  12.223  32.912  0.00  0.00    +0.000 A 
ENDBRANCH   1  10
BRANCH   3  12
ATOM     12  C   UNL     1      17.142  11.174  37.297  0.00  0.00    +0.000 A 
ATOM     13  C   UNL     1      16.600  10.434  38.308  0.00  0.00    +0.000 A 
ATOM     14  C   UNL     1      17.447   9.662  39.087  0.00  0.00    +0.000 A 
ATOM     15  C   UNL     1      18.823   9.629  38.856  0.00  0.00    +0.000 A 
ATOM     16  F   UNL     1      19.666   8.881  39.605  0.00  0.00    +0.000 F 
ATOM     17  C   UNL     1      19.367  10.382  37.829  0.00  0.00    +0.000 A 
ATOM     18  C   UNL     1      18.498  11.149  37.062  0.00  0.00    +0.000 A 
BRANCH  17  19
ATOM     19  N   UNL     1      20.752  10.373  37.567  0.00  0.00    +0.000 N 
ATOM     20  O   UNL     1      21.196   9.700  36.636  0.00  0.00    +0.000 OA
ATOM     21  O   UNL     1      21.592  11.107  38.342  0.00  0.00    +0.000 OA
ENDBRANCH  17  19
ENDBRANCH   3  12
TORSDOF 3
ENDMDL
MODEL 4
REMARK VINA RESULT:      -7.5      1.942      3.007
REMARK  Name = 
REMARK  3 active torsions:
REMARK  status: ('A' for Active; 'I' for Inactive)
REMARK    1  A    between atoms: C_7  and  C_8
REMARK    2  A    between atoms: N_10  and  C_11
REMARK    3  A    between atoms: C_16  and  N_17
REMARK                            x       y       z     vdW  Elec       q    Type
REMARK                         _______ _______ _______ _____ _____    ______ ____
ROOT
ATOM      1  C   UNL     1      17.197  10.428  35.059  0.00  0.00    +0.000 C 
ATOM      2  O   UNL     1      17.919  10.097  34.066  0.00  0.00    +0.000 OA
ATOM      3  N   UNL     1      15.930  10.955  34.782  0.00  0.00    +0.000 NA
ENDROOT
BRANCH   1  10
ATOM      4  C   UNL     1      21.047   9.874  38.171  0.00  0.00    +0.000 C 
ATOM      5  C   UNL     1      19.607   9.977  37.900  0.00  0.00    +0.000 A 
ATOM      6  C   UNL     1      18.725   9.899  38.949  0.00  0.00    +0.000 A 
ATOM      7  C   UNL     1      17.353   9.985  38.799  0.00  0.00    +0.000 A 
ATOM      8  C   UNL     1      16.410   9.897  39.950  0.00  0.00    +0.000 C 
ATOM      9  C   UNL     1      16.893  10.158  37.505  0.00  0.00    +0.000 A 
ATOM     10  C   UNL     1      17.718  10.245  36.408  0.00  0.00    +0.000 A 
ATOM     11  C   UNL     1      19.075  10.152  36.623  0.00  0.00    +0.000 A 
ENDBRANCH   1  10
BRANCH   3  12
ATOM     12  C   UNL     1      15.433  11.129  33.447  0.00  0.00    +0.000 A 
ATOM     13  C   UNL     1      14.942  10.094  32.703  0.00  0.00    +0.000 A 
ATOM     14  C   UNL     1      14.485  10.361  31.423  0.00  0.00    +0.000 A 
ATOM     15  C   UNL     1      14.518  11.650  30.891  0.00  0.00    +0.000 A 
ATOM     16  F   UNL     1      14.076  11.931  29.643  0.00  0.00    +0.000 F 
ATOM     17  C   UNL     1      15.018  12.696  31.648  0.00  0.00    +0.000 A 
ATOM     18  C   UNL     1      15.470  12.404  32.930  0.00  0.00    +0.000 A 
BRANCH  17  19
ATOM     19  N   UNL     1      15.065  14.011  31.143  0.00  0.00    +0.000 N 
ATOM     20  O   UNL     1      14.223  14.835  31.498  0.00  0.00    +0.000 OA
ATOM     21  O   UNL     1      16.042  14.364  30.267  0.00  0.00    +0.000 OA
ENDBRANCH  17  19
ENDBRANCH   3  12
TORSDOF 3
ENDMDL
MODEL 5
REMARK VINA RESULT:      -7.4     28.992     30.868
REMARK  Name = 
REMARK  3 active torsions:
REMARK  status: ('A' for Active; 'I' for Inactive)
REMARK    1  A    between atoms: C_7  and  C_8
REMARK    2  A    between atoms: N_10  and  C_11
REMARK    3  A    between atoms: C_16  and  N_17
REMARK                            x       y       z     vdW  Elec       q    Type
REMARK                         _______ _______ _______ _____ _____    ______ ____
ROOT
ATOM      1  C   UNL     1      30.826  21.346  11.690  0.00  0.00    +0.000 C 
ATOM      2  O   UNL     1      30.692  20.098  11.483  0.00  0.00    +0.000 OA
ATOM      3  N   UNL     1      32.112  21.882  11.554  0.00  0.00    +0.000 NA
ENDROOT
BRANCH   1  10
ATOM      4  C   UNL     1      28.667  24.839  14.509  0.00  0.00    +0.000 C 
ATOM      5  C   UNL     1      28.629  23.838  13.435  0.00  0.00    +0.000 A 
ATOM      6  C   UNL     1      27.456  23.642  12.749  0.00  0.00    +0.000 A 
ATOM      7  C   UNL     1      27.318  22.727  11.722  0.00  0.00    +0.000 A 
ATOM      8  C   UNL     1      26.037  22.526  10.988  0.00  0.00    +0.000 C 
ATOM      9  C   UNL     1      28.449  21.992  11.407  0.00  0.00    +0.000 A 
ATOM     10  C   UNL     1      29.655  22.136  12.051  0.00  0.00    +0.000 A 
ATOM     11  C   UNL     1      29.729  23.065  13.064  0.00  0.00    +0.000 A 
ENDBRANCH   1  10
BRANCH   3  12
ATOM     12  C   UNL     1      33.254  21.088  11.199  0.00  0.00    +0.000 A 
ATOM     13  C   UNL     1      33.580  20.808   9.903  0.00  0.00    +0.000 A 
ATOM     14  C   UNL     1      34.702  20.032   9.659  0.00  0.00    +0.000 A 
ATOM     15  C   UNL     1      35.491  19.543  10.701  0.00  0.00    +0.000 A 
ATOM     16  F   UNL     1      36.590  18.784  10.482  0.00  0.00    +0.000 F 
ATOM     17  C   UNL     1      35.155  19.830  12.013  0.00  0.00    +0.000 A 
ATOM     18  C   UNL     1      34.025  20.610  12.232  0.00  0.00    +0.000 A 
BRANCH  17  19
ATOM     19  N   UNL     1      35.929  19.353  13.089  0.00  0.00    +0.000 N 
ATOM     20  O   UNL     1      35.788  18.194  13.481  0.00  0.00    +0.000 OA
ATOM     21  O   UNL     1      36.829  20.174  13.691  0.00  0.00    +0.000 OA
ENDBRANCH  17  19
ENDBRANCH   3  12
TORSDOF 3
ENDMDL
MODEL 6
REMARK VINA RESULT:      -7.2      3.669      7.920
REMARK  Name = 
REMARK  3 active torsions:
REMARK  status: ('A' for Active; 'I' for Inactive)
REMARK    1  A    between atoms: C_7  and  C_8
REMARK    2  A    between atoms: N_10  and  C_11
REMARK    3  A    between atoms: C_16  and  N_17
REMARK                            x       y       z     vdW  Elec       q    Type
REMARK                         _______ _______ _______ _____ _____    ______ ____
ROOT
ATOM      1  C   UNL     1      16.200  11.309  35.424  0.00  0.00    +0.000 C 
ATOM      2  O   UNL     1      16.591  10.154  35.064  0.00  0.00    +0.000 OA
ATOM      3  N   UNL     1      16.586  11.749  36.696  0.00  0.00    +0.000 NA
ENDROOT
BRANCH   1  10
ATOM      4  C   UNL     1      14.659  12.352  30.803  0.00  0.00    +0.000 C 
ATOM      5  C   UNL     1      14.652  12.587  32.253  0.00  0.00    +0.000 A 
ATOM      6  C   UNL     1      13.854  13.580  32.762  0.00  0.00    +0.000 A 
ATOM      7  C   UNL     1      13.775  13.879  34.109  0.00  0.00    +0.000 A 
ATOM      8  C   UNL     1      12.903  14.962  34.645  0.00  0.00    +0.000 C 
ATOM      9  C   UNL     1      14.563  13.110  34.949  0.00  0.00    +0.000 A 
ATOM     10  C   UNL     1      15.385  12.099  34.509  0.00  0.00    +0.000 A 
ATOM     11  C   UNL     1      15.418  11.850  33.156  0.00  0.00    +0.000 A 
ENDBRANCH   1  10
BRANCH   3  12
ATOM     12  C   UNL     1      17.388  10.956  37.584  0.00  0.00    +0.000 A 
ATOM     13  C   UNL     1      18.732  10.790  37.410  0.00  0.00    +0.000 A 
ATOM     14  C   UNL     1      19.422  10.005  38.320  0.00  0.00    +0.000 A 
ATOM     15  C   UNL     1      18.775   9.394  39.394  0.00  0.00    +0.000 A 
ATOM     16  F   UNL     1      19.432   8.625  40.294  0.00  0.00    +0.000 F 
ATOM     17  C   UNL     1      17.412   9.566  39.566  0.00  0.00    +0.000 A 
ATOM     18  C   UNL     1      16.741  10.357  38.640  0.00  0.00    +0.000 A 
BRANCH  17  19
ATOM     19  N   UNL     1      16.726   8.964  40.639  0.00  0.00    +0.000 N 
ATOM     20  O   UNL     1      16.667   7.737  40.720  0.00  0.00    +0.000 OA
ATOM     21  O   UNL     1      16.132   9.741  41.583  0.00  0.00    +0.000 OA
ENDBRANCH  17  19
ENDBRANCH   3  12
TORSDOF 3
ENDMDL
MODEL 7
REMARK VINA RESULT:      -7.2     28.919     31.263
REMARK  Name = 
REMARK  3 active torsions:
REMARK  status: ('A' for Active; 'I' for Inactive)
REMARK    1  A    between atoms: C_7  and  C_8
REMARK    2  A    between atoms: N_10  and  C_11
REMARK    3  A    between atoms: C_16  and  N_17
REMARK                            x       y       z     vdW  Elec       q    Type
REMARK                         _______ _______ _______ _____ _____    ______ ____
ROOT
ATOM      1  C   UNL     1      30.829  21.429  11.883  0.00  0.00    +0.000 C 
ATOM      2  O   UNL     1      30.908  20.233  12.307  0.00  0.00    +0.000 OA
ATOM      3  N   UNL     1      31.906  21.914  11.131  0.00  0.00    +0.000 NA
ENDROOT
BRANCH   1  10
ATOM      4  C   UNL     1      26.063  22.597  11.028  0.00  0.00    +0.000 C 
ATOM      5  C   UNL     1      27.325  22.766  11.760  0.00  0.00    +0.000 A 
ATOM      6  C   UNL     1      27.390  23.694  12.770  0.00  0.00    +0.000 A 
ATOM      7  C   UNL     1      28.529  23.929  13.517  0.00  0.00    +0.000 A 
ATOM      8  C   UNL     1      28.582  24.941  14.609  0.00  0.00    +0.000 C 
ATOM      9  C   UNL     1      29.636  23.163  13.193  0.00  0.00    +0.000 A 
ATOM     10  C   UNL     1      29.643  22.217  12.195  0.00  0.00    +0.000 A 
ATOM     11  C   UNL     1      28.478  22.030  11.487  0.00  0.00    +0.000 A 
ENDBRANCH   1  10
BRANCH   3  12
ATOM     12  C   UNL     1      33.067  21.123  10.833  0.00  0.00    +0.000 A 
ATOM     13  C   UNL     1      34.072  20.924  11.735  0.00  0.00    +0.000 A 
ATOM     14  C   UNL     1      35.154  20.145  11.354  0.00  0.00    +0.000 A 
ATOM     15  C   UNL     1      35.228  19.571  10.085  0.00  0.00    +0.000 A 
ATOM     16  F   UNL     1      36.275  18.807   9.695  0.00  0.00    +0.000 F 
ATOM     17  C   UNL     1      34.206  19.777   9.174  0.00  0.00    +0.000 A 
ATOM     18  C   UNL     1      33.132  20.562   9.579  0.00  0.00    +0.000 A 
BRANCH  17  19
ATOM     19  N   UNL     1      34.247  19.212   7.884  0.00  0.00    +0.000 N 
ATOM     20  O   UNL     1      33.754  18.102   7.684  0.00  0.00    +0.000 OA
ATOM     21  O   UNL     1      34.831  19.895   6.865  0.00  0.00    +0.000 OA
ENDBRANCH  17  19
ENDBRANCH   3  12
TORSDOF 3
ENDMDL
MODEL 8
REMARK VINA RESULT:      -7.2     28.935     31.266
REMARK  Name = 
REMARK  3 active torsions:
REMARK  status: ('A' for Active; 'I' for Inactive)
REMARK    1  A    between atoms: C_7  and  C_8
REMARK    2  A    between atoms: N_10  and  C_11
REMARK    3  A    between atoms: C_16  and  N_17
REMARK                            x       y       z     vdW  Elec       q    Type
REMARK                         _______ _______ _______ _____ _____    ______ ____
ROOT
ATOM      1  C   UNL     1      30.829  21.443  11.873  0.00  0.00    +0.000 C 
ATOM      2  O   UNL     1      30.891  20.231  12.254  0.00  0.00    +0.000 OA
ATOM      3  N   UNL     1      31.920  21.943  11.152  0.00  0.00    +0.000 NA
ENDROOT
BRANCH   1  10
ATOM      4  C   UNL     1      28.598  24.957  14.609  0.00  0.00    +0.000 C 
ATOM      5  C   UNL     1      28.587  23.944  13.545  0.00  0.00    +0.000 A 
ATOM      6  C   UNL     1      27.429  23.735  12.838  0.00  0.00    +0.000 A 
ATOM      7  C   UNL     1      27.316  22.808  11.819  0.00  0.00    +0.000 A 
ATOM      8  C   UNL     1      26.050  22.593  11.062  0.00  0.00    +0.000 C 
ATOM      9  C   UNL     1      28.456  22.075  11.535  0.00  0.00    +0.000 A 
ATOM     10  C   UNL     1      29.648  22.232  12.201  0.00  0.00    +0.000 A 
ATOM     11  C   UNL     1      29.697  23.172  13.206  0.00  0.00    +0.000 A 
ENDBRANCH   1  10
BRANCH   3  12
ATOM     12  C   UNL     1      33.076  21.152  10.838  0.00  0.00    +0.000 A 
ATOM     13  C   UNL     1      34.110  20.981  11.713  0.00  0.00    +0.000 A 
ATOM     14  C   UNL     1      35.184  20.198  11.319  0.00  0.00    +0.000 A 
ATOM     15  C   UNL     1      35.222  19.592  10.063  0.00  0.00    +0.000 A 
ATOM     16  F   UNL     1      36.262  18.824   9.661  0.00  0.00    +0.000 F 
ATOM     17  C   UNL     1      34.171  19.769   9.180  0.00  0.00    +0.000 A 
ATOM     18  C   UNL     1      33.105  20.558   9.597  0.00  0.00    +0.000 A 
BRANCH  17  19
ATOM     19  N   UNL     1      34.176  19.171   7.904  0.00  0.00    +0.000 N 
ATOM     20  O   UNL     1      34.579  19.807   6.930  0.00  0.00    +0.000 OA
ATOM     21  O   UNL     1      33.737  17.894   7.753  0.00  0.00    +0.000 OA
ENDBRANCH  17  19
ENDBRANCH   3  12
TORSDOF 3
ENDMDL
MODEL 9
REMARK VINA RESULT:      -6.7      3.000      4.729
REMARK  Name = 
REMARK  3 active torsions:
REMARK  status: ('A' for Active; 'I' for Inactive)
REMARK    1  A    between atoms: C_7  and  C_8
REMARK    2  A    between atoms: N_10  and  C_11
REMARK    3  A    between atoms: C_16  and  N_17
REMARK                            x       y       z     vdW  Elec       q    Type
REMARK                         _______ _______ _______ _____ _____    ______ ____
ROOT
ATOM      1  C   UNL     1      19.023  10.734  37.254  0.00  0.00    +0.000 C 
ATOM      2  O   UNL     1      18.483   9.648  36.874  0.00  0.00    +0.000 OA
ATOM      3  N   UNL     1      18.179  11.832  37.456  0.00  0.00    +0.000 NA
ENDROOT
BRANCH   1  10
ATOM      4  C   UNL     1      23.578   8.954  36.305  0.00  0.00    +0.000 C 
ATOM      5  C   UNL     1      22.670   9.893  36.977  0.00  0.00    +0.000 A 
ATOM      6  C   UNL     1      23.196  10.840  37.820  0.00  0.00    +0.000 A 
ATOM      7  C   UNL     1      22.428  11.767  38.499  0.00  0.00    +0.000 A 
ATOM      8  C   UNL     1      23.017  12.788  39.411  0.00  0.00    +0.000 C 
ATOM      9  C   UNL     1      21.062  11.697  38.285  0.00  0.00    +0.000 A 
ATOM     10  C   UNL     1      20.466  10.777  37.455  0.00  0.00    +0.000 A 
ATOM     11  C   UNL     1      21.286   9.880  36.808  0.00  0.00    +0.000 A 
ENDBRANCH   1  10
BRANCH   3  12
ATOM     12  C   UNL     1      16.760  11.772  37.252  0.00  0.00    +0.000 A 
ATOM     13  C   UNL     1      15.913  11.179  38.144  0.00  0.00    +0.000 A 
ATOM     14  C   UNL     1      14.557  11.171  37.860  0.00  0.00    +0.000 A 
ATOM     15  C   UNL     1      14.052  11.751  36.695  0.00  0.00    +0.000 A 
ATOM     16  F   UNL     1      12.731  11.752  36.400  0.00  0.00    +0.000 F 
ATOM     17  C   UNL     1      14.915  12.350  35.794  0.00  0.00    +0.000 A 
ATOM     18  C   UNL     1      16.271  12.346  36.101  0.00  0.00    +0.000 A 
BRANCH  17  19
ATOM     19  N   UNL     1      14.441  12.946  34.608  0.00  0.00    +0.000 N 
ATOM     20  O   UNL     1      14.755  12.473  33.515  0.00  0.00    +0.000 OA
ATOM     21  O   UNL     1      13.636  14.039  34.675  0.00  0.00    +0.000 OA
ENDBRANCH  17  19
ENDBRANCH   3  12
TORSDOF 3
ENDMDL
MODEL 10
REMARK VINA RESULT:      -6.6      4.050      7.961
REMARK  Name = 
REMARK  3 active torsions:
REMARK  status: ('A' for Active; 'I' for Inactive)
REMARK    1  A    between atoms: C_7  and  C_8
REMARK    2  A    between atoms: N_10  and  C_11
REMARK    3  A    between atoms: C_16  and  N_17
REMARK                            x       y       z     vdW  Elec       q    Type
REMARK                         _______ _______ _______ _____ _____    ______ ____
ROOT
ATOM      1  C   UNL     1      17.032  10.504  35.565  0.00  0.00    +0.000 C 
ATOM      2  O   UNL     1      17.373   9.307  35.303  0.00  0.00    +0.000 OA
ATOM      3  N   UNL     1      17.489  11.050  36.771  0.00  0.00    +0.000 NA
ENDROOT
BRANCH   1  10
ATOM      4  C   UNL     1      13.620  13.999  34.590  0.00  0.00    +0.000 C 
ATOM      5  C   UNL     1      14.541  12.936  34.166  0.00  0.00    +0.000 A 
ATOM      6  C   UNL     1      14.621  12.617  32.833  0.00  0.00    +0.000 A 
ATOM      7  C   UNL     1      15.454  11.634  32.333  0.00  0.00    +0.000 A 
ATOM      8  C   UNL     1      15.528  11.301  30.883  0.00  0.00    +0.000 C 
ATOM      9  C   UNL     1      16.229  10.964  33.265  0.00  0.00    +0.000 A 
ATOM     10  C   UNL     1      16.201  11.230  34.613  0.00  0.00    +0.000 A 
ATOM     11  C   UNL     1      15.350  12.221  35.048  0.00  0.00    +0.000 A 
ENDBRANCH   1  10
BRANCH   3  12
ATOM     12  C   UNL     1      18.307  10.320  37.697  0.00  0.00    +0.000 A 
ATOM     13  C   UNL     1      19.668  10.278  37.601  0.00  0.00    +0.000 A 
ATOM     14  C   UNL     1      20.373   9.545  38.542  0.00  0.00    +0.000 A 
ATOM     15  C   UNL     1      19.722   8.861  39.570  0.00  0.00    +0.000 A 
ATOM     16  F   UNL     1      20.393   8.141  40.499  0.00  0.00    +0.000 F 
ATOM     17  C   UNL     1      18.342   8.907  39.662  0.00  0.00    +0.000 A 
ATOM     18  C   UNL     1      17.657   9.648  38.706  0.00  0.00    +0.000 A 
BRANCH  17  19
ATOM     19  N   UNL     1      17.652   8.229  40.688  0.00  0.00    +0.000 N 
ATOM     20  O   UNL     1      17.498   7.010  40.621  0.00  0.00    +0.000 OA
ATOM     21  O   UNL     1      17.161   8.925  41.746  0.00  0.00    +0.000 OA
ENDBRANCH  17  19
ENDBRANCH   3  12
TORSDOF 3
ENDMDL
