MODEL 1
REMARK VINA RESULT:      -7.6      0.000      0.000
REMARK  Name = 
REMARK  3 active torsions:
REMARK  status: ('A' for Active; 'I' for Inactive)
REMARK    1  A    between atoms: O_2  and  C_3
REMARK    2  A    between atoms: C_6  and  C_7
REMARK    3  A    between atoms: N_9  and  C_10
REMARK                            x       y       z     vdW  Elec       q    Type
REMARK                         _______ _______ _______ _____ _____    ______ ____
ROOT
ATOM      1  C   UNL     1      16.600  11.696  36.217  0.00  0.00    +0.000 C 
ATOM      2  O   UNL     1      17.038  12.865  36.072  0.00  0.00    +0.000 OA
ATOM      3  N   UNL     1      15.491  11.304  35.418  0.00  0.00    +0.000 NA
ENDROOT
BRANCH   3   4
ATOM      4  C   UNL     1      14.907  12.223  34.485  0.00  0.00    +0.000 A 
ATOM      5  C   UNL     1      14.147  13.302  34.880  0.00  0.00    +0.000 A 
ATOM      6  C   UNL     1      13.583  14.189  33.989  0.00  0.00    +0.000 A 
ATOM      7  C   UNL     1      12.761  15.355  34.442  0.00  0.00    +0.000 C 
ATOM      8  C   UNL     1      13.798  13.971  32.644  0.00  0.00    +0.000 A 
ATOM      9  C   UNL     1      14.544  12.912  32.226  0.00  0.00    +0.000 A 
ATOM     10  C   UNL     1      15.108  12.025  33.136  0.00  0.00    +0.000 A 
ATOM     11  O   UNL     1      15.849  10.981  32.614  0.00  0.00    +0.000 OA
ENDBRANCH   3   4
BRANCH   1  15
ATOM     12  C   UNL     1      18.345   9.072  39.007  0.00  0.00    +0.000 A 
ATOM     13  C   UNL     1      18.944   9.269  37.772  0.00  0.00    +0.000 A 
ATOM     14  C   UNL     1      18.384  10.129  36.840  0.00  0.00    +0.000 A 
ATOM     15  C   UNL     1      17.222  10.774  37.185  0.00  0.00    +0.000 A 
ATOM     16  C   UNL     1      16.632  10.584  38.394  0.00  0.00    +0.000 A 
ATOM     17  C   UNL     1      17.177   9.727  39.341  0.00  0.00    +0.000 A 
ATOM     18 CL   UNL     1      16.428   9.471  40.905  0.00  0.00    +0.000 Cl
BRANCH  12  20
ATOM     19  C   UNL     1      18.713   6.823  39.951  0.00  0.00    +0.000 C 
ATOM     20  O   UNL     1      18.876   8.218  39.968  0.00  0.00    +0.000 OA
ENDBRANCH  12  20
ENDBRANCH   1  15
TORSDOF 3
ENDMDL
MODEL 2
REMARK VINA RESULT:      -7.5      2.166      2.355
REMARK  Name = 
REMARK  3 active torsions:
REMARK  status: ('A' for Active; 'I' for Inactive)
REMARK    1  A    between atoms: O_2  and  C_3
REMARK    2  A    between atoms: C_6  and  C_7
REMARK    3  A    between atoms: N_9  and  C_10
REMARK                            x       y       z     vdW  Elec       q    Type
REMARK                         _______ _______ _______ _____ _____    ______ ____
ROOT
ATOM      1  C   UNL     1      16.423  11.105  34.930  0.00  0.00    +0.000 C 
ATOM      2  O   UNL     1      15.668  12.101  35.057  0.00  0.00    +0.000 OA
ATOM      3  N   UNL     1      16.615  10.587  33.619  0.00  0.00    +0.000 NA
ENDROOT
BRANCH   3   4
ATOM      4  C   UNL     1      15.963  11.192  32.496  0.00  0.00    +0.000 A 
ATOM      5  C   UNL     1      16.441  12.327  31.880  0.00  0.00    +0.000 A 
ATOM      6  C   UNL     1      15.819  12.914  30.800  0.00  0.00    +0.000 A 
ATOM      7  C   UNL     1      16.358  14.148  30.145  0.00  0.00    +0.000 C 
ATOM      8  C   UNL     1      14.664  12.326  30.327  0.00  0.00    +0.000 A 
ATOM      9  C   UNL     1      14.168  11.204  30.918  0.00  0.00    +0.000 A 
ATOM     10  C   UNL     1      14.807  10.622  32.007  0.00  0.00    +0.000 A 
ATOM     11  O   UNL     1      14.226   9.484  32.538  0.00  0.00    +0.000 OA
ENDBRANCH   3   4
BRANCH   1  15
ATOM     12  C   UNL     1      18.267   9.403  38.308  0.00  0.00    +0.000 A 
ATOM     13  C   UNL     1      18.909   9.372  37.080  0.00  0.00    +0.000 A 
ATOM     14  C   UNL     1      18.317   9.928  35.956  0.00  0.00    +0.000 A 
ATOM     15  C   UNL     1      17.081  10.505  36.105  0.00  0.00    +0.000 A 
ATOM     16  C   UNL     1      16.449  10.537  37.307  0.00  0.00    +0.000 A 
ATOM     17  C   UNL     1      17.024   9.987  38.445  0.00  0.00    +0.000 A 
ATOM     18 CL   UNL     1      16.221  10.020  40.003  0.00  0.00    +0.000 Cl
BRANCH  12  20
ATOM     19  C   UNL     1      18.787   7.489  39.776  0.00  0.00    +0.000 C 
ATOM     20  O   UNL     1      18.828   8.857  39.459  0.00  0.00    +0.000 OA
ENDBRANCH  12  20
ENDBRANCH   1  15
TORSDOF 3
ENDMDL
MODEL 3
REMARK VINA RESULT:      -7.1     29.126     31.046
REMARK  Name = 
REMARK  3 active torsions:
REMARK  status: ('A' for Active; 'I' for Inactive)
REMARK    1  A    between atoms: O_2  and  C_3
REMARK    2  A    between atoms: C_6  and  C_7
REMARK    3  A    between atoms: N_9  and  C_10
REMARK                            x       y       z     vdW  Elec       q    Type
REMARK                         _______ _______ _______ _____ _____    ______ ____
ROOT
ATOM      1  C   UNL     1      31.271  21.364  12.110  0.00  0.00    +0.000 C 
ATOM      2  O   UNL     1      30.817  20.854  13.164  0.00  0.00    +0.000 OA
ATOM      3  N   UNL     1      30.611  22.515  11.598  0.00  0.00    +0.000 NA
ENDROOT
BRANCH   3   4
ATOM      4  C   UNL     1      29.470  23.059  12.273  0.00  0.00    +0.000 A 
ATOM      5  C   UNL     1      29.577  23.974  13.297  0.00  0.00    +0.000 A 
ATOM      6  C   UNL     1      28.485  24.501  13.950  0.00  0.00    +0.000 A 
ATOM      7  C   UNL     1      28.626  25.496  15.060  0.00  0.00    +0.000 C 
ATOM      8  C   UNL     1      27.233  24.080  13.550  0.00  0.00    +0.000 A 
ATOM      9  C   UNL     1      27.098  23.175  12.542  0.00  0.00    +0.000 A 
ATOM     10  C   UNL     1      28.210  22.653  11.891  0.00  0.00    +0.000 A 
ATOM     11  O   UNL     1      27.970  21.740  10.879  0.00  0.00    +0.000 OA
ENDBRANCH   3   4
BRANCH   1  15
ATOM     12  C   UNL     1      34.606  19.702  10.155  0.00  0.00    +0.000 A 
ATOM     13  C   UNL     1      34.670  19.989  11.509  0.00  0.00    +0.000 A 
ATOM     14  C   UNL     1      33.582  20.536  12.171  0.00  0.00    +0.000 A 
ATOM     15  C   UNL     1      32.448  20.782  11.438  0.00  0.00    +0.000 A 
ATOM     16  C   UNL     1      32.381  20.502  10.110  0.00  0.00    +0.000 A 
ATOM     17  C   UNL     1      33.460  19.953   9.429  0.00  0.00    +0.000 A 
ATOM     18 CL   UNL     1      33.390  19.585   7.717  0.00  0.00    +0.000 Cl
BRANCH  12  20
ATOM     19  C   UNL     1      36.960  18.979  10.000  0.00  0.00    +0.000 C 
ATOM     20  O   UNL     1      35.676  19.151   9.456  0.00  0.00    +0.000 OA
ENDBRANCH  12  20
ENDBRANCH   1  15
TORSDOF 3
ENDMDL
MODEL 4
REMARK VINA RESULT:      -7.0      2.816      7.339
REMARK  Name = 
REMARK  3 active torsions:
REMARK  status: ('A' for Active; 'I' for Inactive)
REMARK    1  A    between atoms: O_2  and  C_3
REMARK    2  A    between atoms: C_6  and  C_7
REMARK    3  A    between atoms: N_9  and  C_10
REMARK                            x       y       z     vdW  Elec       q    Type
REMARK                         _______ _______ _______ _____ _____    ______ ____
ROOT
ATOM      1  C   UNL     1      16.909  10.437  36.050  0.00  0.00    +0.000 C 
ATOM      2  O   UNL     1      17.405   9.283  36.015  0.00  0.00    +0.000 OA
ATOM      3  N   UNL     1      16.971  11.144  37.282  0.00  0.00    +0.000 NA
ENDROOT
BRANCH   3   4
ATOM      4  C   UNL     1      17.580  10.545  38.433  0.00  0.00    +0.000 A 
ATOM      5  C   UNL     1      16.880   9.762  39.324  0.00  0.00    +0.000 A 
ATOM      6  C   UNL     1      17.459   9.183  40.432  0.00  0.00    +0.000 A 
ATOM      7  C   UNL     1      16.677   8.335  41.386  0.00  0.00    +0.000 C 
ATOM      8  C   UNL     1      18.803   9.410  40.645  0.00  0.00    +0.000 A 
ATOM      9  C   UNL     1      19.520  10.180  39.781  0.00  0.00    +0.000 A 
ATOM     10  C   UNL     1      18.922  10.757  38.667  0.00  0.00    +0.000 A 
ATOM     11  O   UNL     1      19.733  11.523  37.848  0.00  0.00    +0.000 OA
ENDBRANCH   3   4
BRANCH   1  15
ATOM     12  C   UNL     1      15.119  12.146  32.647  0.00  0.00    +0.000 A 
ATOM     13  C   UNL     1      16.016  11.099  32.504  0.00  0.00    +0.000 A 
ATOM     14  C   UNL     1      16.616  10.523  33.614  0.00  0.00    +0.000 A 
ATOM     15  C   UNL     1      16.290  11.026  34.848  0.00  0.00    +0.000 A 
ATOM     16  C   UNL     1      15.411  12.052  34.992  0.00  0.00    +0.000 A 
ATOM     17  C   UNL     1      14.799  12.643  33.894  0.00  0.00    +0.000 A 
ATOM     18 CL   UNL     1      13.663  13.967  34.061  0.00  0.00    +0.000 Cl
BRANCH  12  20
ATOM     19  C   UNL     1      15.188  13.281  30.457  0.00  0.00    +0.000 C 
ATOM     20  O   UNL     1      14.496  12.749  31.558  0.00  0.00    +0.000 OA
ENDBRANCH  12  20
ENDBRANCH   1  15
TORSDOF 3
ENDMDL
MODEL 5
REMARK VINA RESULT:      -6.8     29.102     31.687
REMARK  Name = 
REMARK  3 active torsions:
REMARK  status: ('A' for Active; 'I' for Inactive)
REMARK    1  A    between atoms: O_2  and  C_3
REMARK    2  A    between atoms: C_6  and  C_7
REMARK    3  A    between atoms: N_9  and  C_10
REMARK                            x       y       z     vdW  Elec       q    Type
REMARK                         _______ _______ _______ _____ _____    ______ ____
ROOT
ATOM      1  C   UNL     1      29.963  21.067  10.396  0.00  0.00    +0.000 C 
ATOM      2  O   UNL     1      29.866  19.823  10.542  0.00  0.00    +0.000 OA
ATOM      3  N   UNL     1      30.561  21.545   9.197  0.00  0.00    +0.000 NA
ENDROOT
BRANCH   3   4
ATOM      4  C   UNL     1      31.031  20.625   8.203  0.00  0.00    +0.000 A 
ATOM      5  C   UNL     1      30.187  19.987   7.322  0.00  0.00    +0.000 A 
ATOM      6  C   UNL     1      30.631  19.102   6.364  0.00  0.00    +0.000 A 
ATOM      7  C   UNL     1      29.695  18.420   5.415  0.00  0.00    +0.000 C 
ATOM      8  C   UNL     1      31.987  18.853   6.300  0.00  0.00    +0.000 A 
ATOM      9  C   UNL     1      32.844  19.470   7.160  0.00  0.00    +0.000 A 
ATOM     10  C   UNL     1      32.381  20.361   8.120  0.00  0.00    +0.000 A 
ATOM     11  O   UNL     1      33.329  20.937   8.947  0.00  0.00    +0.000 OA
ENDBRANCH   3   4
BRANCH   1  15
ATOM     12  C   UNL     1      28.517  23.697  13.345  0.00  0.00    +0.000 A 
ATOM     13  C   UNL     1      29.815  23.217  13.422  0.00  0.00    +0.000 A 
ATOM     14  C   UNL     1      30.309  22.350  12.460  0.00  0.00    +0.000 A 
ATOM     15  C   UNL     1      29.470  21.988  11.436  0.00  0.00    +0.000 A 
ATOM     16  C   UNL     1      28.197  22.457  11.357  0.00  0.00    +0.000 A 
ATOM     17  C   UNL     1      27.683  23.326  12.310  0.00  0.00    +0.000 A 
ATOM     18 CL   UNL     1      26.044  23.940  12.223  0.00  0.00    +0.000 Cl
BRANCH  12  20
ATOM     19  C   UNL     1      28.724  25.585  14.920  0.00  0.00    +0.000 C 
ATOM     20  O   UNL     1      27.986  24.569  14.290  0.00  0.00    +0.000 OA
ENDBRANCH  12  20
ENDBRANCH   1  15
TORSDOF 3
ENDMDL
MODEL 6
REMARK VINA RESULT:      -6.6      2.713      7.537
REMARK  Name = 
REMARK  3 active torsions:
REMARK  status: ('A' for Active; 'I' for Inactive)
REMARK    1  A    between atoms: O_2  and  C_3
REMARK    2  A    between atoms: C_6  and  C_7
REMARK    3  A    between atoms: N_9  and  C_10
REMARK                            x       y       z     vdW  Elec       q    Type
REMARK                         _______ _______ _______ _____ _____    ______ ____
ROOT
ATOM      1  C   UNL     1      17.338  10.304  35.803  0.00  0.00    +0.000 C 
ATOM      2  O   UNL     1      17.655   9.090  35.734  0.00  0.00    +0.000 OA
ATOM      3  N   UNL     1      17.785  11.038  36.936  0.00  0.00    +0.000 NA
ENDROOT
BRANCH   3   4
ATOM      4  C   UNL     1      18.568  10.399  37.953  0.00  0.00    +0.000 A 
ATOM      5  C   UNL     1      19.935  10.258  37.862  0.00  0.00    +0.000 A 
ATOM      6  C   UNL     1      20.693   9.646  38.835  0.00  0.00    +0.000 A 
ATOM      7  C   UNL     1      22.178   9.505  38.715  0.00  0.00    +0.000 C 
ATOM      8  C   UNL     1      20.037   9.154  39.945  0.00  0.00    +0.000 A 
ATOM      9  C   UNL     1      18.686   9.279  40.060  0.00  0.00    +0.000 A 
ATOM     10  C   UNL     1      17.934   9.900  39.070  0.00  0.00    +0.000 A 
ATOM     11  O   UNL     1      16.568   9.978  39.279  0.00  0.00    +0.000 OA
ENDBRANCH   3   4
BRANCH   1  15
ATOM     12  C   UNL     1      15.020  12.126  32.800  0.00  0.00    +0.000 A 
ATOM     13  C   UNL     1      15.897  11.104  32.473  0.00  0.00    +0.000 A 
ATOM     14  C   UNL     1      16.669  10.491  33.448  0.00  0.00    +0.000 A 
ATOM     15  C   UNL     1      16.533  10.933  34.740  0.00  0.00    +0.000 A 
ATOM     16  C   UNL     1      15.674  11.935  35.065  0.00  0.00    +0.000 A 
ATOM     17  C   UNL     1      14.892  12.562  34.104  0.00  0.00    +0.000 A 
ATOM     18 CL   UNL     1      13.780  13.855  34.506  0.00  0.00    +0.000 Cl
BRANCH  12  20
ATOM     19  C   UNL     1      14.626  12.984  30.521  0.00  0.00    +0.000 C 
ATOM     20  O   UNL     1      14.229  12.765  31.851  0.00  0.00    +0.000 OA
ENDBRANCH  12  20
ENDBRANCH   1  15
TORSDOF 3
ENDMDL
MODEL 7
REMARK VINA RESULT:      -6.2      3.639      4.777
REMARK  Name = 
REMARK  3 active torsions:
REMARK  status: ('A' for Active; 'I' for Inactive)
REMARK    1  A    between atoms: O_2  and  C_3
REMARK    2  A    between atoms: C_6  and  C_7
REMARK    3  A    between atoms: N_9  and  C_10
REMARK                            x       y       z     vdW  Elec       q    Type
REMARK                         _______ _______ _______ _____ _____    ______ ____
ROOT
ATOM      1  C   UNL     1      18.396  10.724  37.322  0.00  0.00    +0.000 C 
ATOM      2  O   UNL     1      17.892   9.614  37.019  0.00  0.00    +0.000 OA
ATOM      3  N   UNL     1      17.515  11.832  37.459  0.00  0.00    +0.000 NA
ENDROOT
BRANCH   3   4
ATOM      4  C   UNL     1      16.106  11.669  37.255  0.00  0.00    +0.000 A 
ATOM      5  C   UNL     1      15.258  11.216  38.242  0.00  0.00    +0.000 A 
ATOM      6  C   UNL     1      13.903  11.057  38.052  0.00  0.00    +0.000 A 
ATOM      7  C   UNL     1      13.001  10.564  39.140  0.00  0.00    +0.000 C 
ATOM      8  C   UNL     1      13.388  11.368  36.811  0.00  0.00    +0.000 A 
ATOM      9  C   UNL     1      14.203  11.817  35.817  0.00  0.00    +0.000 A 
ATOM     10  C   UNL     1      15.569  11.974  36.023  0.00  0.00    +0.000 A 
ATOM     11  O   UNL     1      16.313  12.436  34.952  0.00  0.00    +0.000 OA
ENDBRANCH   3   4
BRANCH   1  15
ATOM     12  C   UNL     1      22.552  11.077  37.880  0.00  0.00    +0.000 A 
ATOM     13  C   UNL     1      21.694  11.984  38.481  0.00  0.00    +0.000 A 
ATOM     14  C   UNL     1      20.322  11.884  38.309  0.00  0.00    +0.000 A 
ATOM     15  C   UNL     1      19.850  10.860  37.526  0.00  0.00    +0.000 A 
ATOM     16  C   UNL     1      20.689   9.968  36.936  0.00  0.00    +0.000 A 
ATOM     17  C   UNL     1      22.066  10.051  37.096  0.00  0.00    +0.000 A 
ATOM     18 CL   UNL     1      23.160   8.909  36.342  0.00  0.00    +0.000 Cl
BRANCH  12  20
ATOM     19  C   UNL     1      24.725  12.194  37.534  0.00  0.00    +0.000 C 
ATOM     20  O   UNL     1      23.934  11.143  38.029  0.00  0.00    +0.000 OA
ENDBRANCH  12  20
ENDBRANCH   1  15
TORSDOF 3
ENDMDL
MODEL 8
REMARK VINA RESULT:      -6.1     19.309     20.310
REMARK  Name = 
REMARK  3 active torsions:
REMARK  status: ('A' for Active; 'I' for Inactive)
REMARK    1  A    between atoms: O_2  and  C_3
REMARK    2  A    between atoms: C_6  and  C_7
REMARK    3  A    between atoms: N_9  and  C_10
REMARK                            x       y       z     vdW  Elec       q    Type
REMARK                         _______ _______ _______ _____ _____    ______ ____
ROOT
ATOM      1  C   UNL     1      29.490  22.787  26.262  0.00  0.00    +0.000 C 
ATOM      2  O   UNL     1      30.003  22.104  25.341  0.00  0.00    +0.000 OA
ATOM      3  N   UNL     1      28.453  23.695  25.910  0.00  0.00    +0.000 NA
ENDROOT
BRANCH   3   4
ATOM      4  C   UNL     1      28.023  23.813  24.548  0.00  0.00    +0.000 A 
ATOM      5  C   UNL     1      28.804  24.382  23.567  0.00  0.00    +0.000 A 
ATOM      6  C   UNL     1      28.397  24.498  22.256  0.00  0.00    +0.000 A 
ATOM      7  C   UNL     1      29.264  25.119  21.206  0.00  0.00    +0.000 C 
ATOM      8  C   UNL     1      27.145  24.019  21.928  0.00  0.00    +0.000 A 
ATOM      9  C   UNL     1      26.351  23.453  22.879  0.00  0.00    +0.000 A 
ATOM     10  C   UNL     1      26.776  23.342  24.197  0.00  0.00    +0.000 A 
ATOM     11  O   UNL     1      25.898  22.752  25.089  0.00  0.00    +0.000 OA
ENDBRANCH   3   4
BRANCH   1  15
ATOM     12  C   UNL     1      30.854  22.361  30.220  0.00  0.00    +0.000 A 
ATOM     13  C   UNL     1      29.558  22.787  29.977  0.00  0.00    +0.000 A 
ATOM     14  C   UNL     1      29.090  22.933  28.679  0.00  0.00    +0.000 A 
ATOM     15  C   UNL     1      29.954  22.642  27.654  0.00  0.00    +0.000 A 
ATOM     16  C   UNL     1      31.226  22.224  27.888  0.00  0.00    +0.000 A 
ATOM     17  C   UNL     1      31.714  22.071  29.179  0.00  0.00    +0.000 A 
ATOM     18 CL   UNL     1      33.350  21.534  29.499  0.00  0.00    +0.000 Cl
BRANCH  12  20
ATOM     19  C   UNL     1      30.642  21.613  32.561  0.00  0.00    +0.000 C 
ATOM     20  O   UNL     1      31.360  22.202  31.506  0.00  0.00    +0.000 OA
ENDBRANCH  12  20
ENDBRANCH   1  15
TORSDOF 3
ENDMDL
MODEL 9
REMARK VINA RESULT:      -6.1      4.424      6.339
REMARK  Name = 
REMARK  3 active torsions:
REMARK  status: ('A' for Active; 'I' for Inactive)
REMARK    1  A    between atoms: O_2  and  C_3
REMARK    2  A    between atoms: C_6  and  C_7
REMARK    3  A    between atoms: N_9  and  C_10
REMARK                            x       y       z     vdW  Elec       q    Type
REMARK                         _______ _______ _______ _____ _____    ______ ____
ROOT
ATOM      1  C   UNL     1      20.264  10.883  38.042  0.00  0.00    +0.000 C 
ATOM      2  O   UNL     1      19.930  11.860  38.757  0.00  0.00    +0.000 OA
ATOM      3  N   UNL     1      19.241   9.980  37.641  0.00  0.00    +0.000 NA
ENDROOT
BRANCH   3   4
ATOM      4  C   UNL     1      17.883  10.193  38.049  0.00  0.00    +0.000 A 
ATOM      5  C   UNL     1      17.388   9.743  39.252  0.00  0.00    +0.000 A 
ATOM      6  C   UNL     1      16.085   9.945  39.650  0.00  0.00    +0.000 A 
ATOM      7  C   UNL     1      15.569   9.446  40.964  0.00  0.00    +0.000 C 
ATOM      8  C   UNL     1      15.250  10.629  38.792  0.00  0.00    +0.000 A 
ATOM      9  C   UNL     1      15.713  11.085  37.595  0.00  0.00    +0.000 A 
ATOM     10  C   UNL     1      17.031  10.875  37.207  0.00  0.00    +0.000 A 
ATOM     11  O   UNL     1      17.407  11.376  35.973  0.00  0.00    +0.000 OA
ENDBRANCH   3   4
BRANCH   1  15
ATOM     12  C   UNL     1      24.284  10.375  36.905  0.00  0.00    +0.000 A 
ATOM     13  C   UNL     1      23.363   9.369  36.660  0.00  0.00    +0.000 A 
ATOM     14  C   UNL     1      22.034   9.518  37.027  0.00  0.00    +0.000 A 
ATOM     15  C   UNL     1      21.669  10.691  37.638  0.00  0.00    +0.000 A 
ATOM     16  C   UNL     1      22.569  11.680  37.880  0.00  0.00    +0.000 A 
ATOM     17  C   UNL     1      23.904  11.551  37.520  0.00  0.00    +0.000 A 
ATOM     18 CL   UNL     1      25.077  12.817  37.825  0.00  0.00    +0.000 Cl
BRANCH  12  20
ATOM     19  C   UNL     1      26.627   9.798  37.419  0.00  0.00    +0.000 C 
ATOM     20  O   UNL     1      25.625  10.264  36.551  0.00  0.00    +0.000 OA
ENDBRANCH  12  20
ENDBRANCH   1  15
TORSDOF 3
ENDMDL
MODEL 10
REMARK VINA RESULT:      -5.9     19.313     20.121
REMARK  Name = 
REMARK  3 active torsions:
REMARK  status: ('A' for Active; 'I' for Inactive)
REMARK    1  A    between atoms: O_2  and  C_3
REMARK    2  A    between atoms: C_6  and  C_7
REMARK    3  A    between atoms: N_9  and  C_10
REMARK                            x       y       z     vdW  Elec       q    Type
REMARK                         _______ _______ _______ _____ _____    ______ ____
ROOT
ATOM      1  C   UNL     1      30.307  22.991  27.565  0.00  0.00    +0.000 C 
ATOM      2  O   UNL     1      29.984  24.203  27.491  0.00  0.00    +0.000 OA
ATOM      3  N   UNL     1      29.933  22.142  26.488  0.00  0.00    +0.000 NA
ENDROOT
BRANCH   3   4
ATOM      4  C   UNL     1      29.212  22.667  25.365  0.00  0.00    +0.000 A 
ATOM      5  C   UNL     1      27.840  22.777  25.347  0.00  0.00    +0.000 A 
ATOM      6  C   UNL     1      27.141  23.282  24.272  0.00  0.00    +0.000 A 
ATOM      7  C   UNL     1      25.649  23.393  24.276  0.00  0.00    +0.000 C 
ATOM      8  C   UNL     1      27.865  23.688  23.170  0.00  0.00    +0.000 A 
ATOM      9  C   UNL     1      29.223  23.588  23.161  0.00  0.00    +0.000 A 
ATOM     10  C   UNL     1      29.915  23.079  24.253  0.00  0.00    +0.000 A 
ATOM     11  O   UNL     1      31.293  23.018  24.148  0.00  0.00    +0.000 OA
ENDBRANCH   3   4
BRANCH   1  15
ATOM     12  C   UNL     1      32.389  21.544  30.924  0.00  0.00    +0.000 A 
ATOM     13  C   UNL     1      32.995  21.534  29.677  0.00  0.00    +0.000 A 
ATOM     14  C   UNL     1      32.325  22.007  28.559  0.00  0.00    +0.000 A 
ATOM     15  C   UNL     1      31.048  22.481  28.733  0.00  0.00    +0.000 A 
ATOM     16  C   UNL     1      30.452  22.492  29.954  0.00  0.00    +0.000 A 
ATOM     17  C   UNL     1      31.105  22.024  31.086  0.00  0.00    +0.000 A 
ATOM     18 CL   UNL     1      30.350  22.032  32.667  0.00  0.00    +0.000 Cl
BRANCH  12  20
ATOM     19  C   UNL     1      34.398  20.770  32.130  0.00  0.00    +0.000 C 
ATOM     20  O   UNL     1      33.028  21.079  32.069  0.00  0.00    +0.000 OA
ENDBRANCH  12  20
ENDBRANCH   1  15
TORSDOF 3
ENDMDL
