
     RDKit          3D

 30 33  0  0  0  0  0  0  0  0999 V2000
    1.6750   -0.1161    1.1675 O   0  0  0  0  0  0  0  0  0  0  0  0
    1.6450    0.3366    0.0075 C   0  0  0  0  0  0  0  0  0  0  0  0
    0.3448    0.4888   -0.6600 C   0  0  0  0  0  0  0  0  0  0  0  0
   -0.7879    0.1612   -0.0691 C   0  0  0  0  0  0  0  0  0  0  0  0
   -2.0404    0.3463   -0.8101 C   0  0  0  0  0  0  0  0  0  0  0  0
   -3.1490    0.0173   -0.2103 C   0  0  0  0  0  0  0  0  0  0  0  0
   -4.3587    0.2387   -1.0347 C   0  0  0  0  0  0  0  0  0  0  0  0
   -4.1527    1.1026   -2.0836 C   0  0  0  0  0  0  0  0  0  0  0  0
   -5.2147    1.3857   -2.9204 C   0  0  0  0  0  0  0  0  0  0  0  0
   -6.4460    0.8090   -2.6975 C   0  0  0  0  0  0  0  0  0  0  0  0
   -6.6317   -0.0521   -1.6434 C   0  0  0  0  0  0  0  0  0  0  0  0
   -5.5995   -0.3569   -0.7912 C   0  0  0  0  0  0  0  0  0  0  0  0
   -5.9836   -1.3090    0.2916 C   0  0  0  0  0  0  0  0  0  0  0  0
   -5.6244   -0.8339    1.6647 C   0  0  0  0  0  0  0  0  0  0  0  0
   -4.1700   -0.8729    1.9432 C   0  0  0  0  0  0  0  0  0  0  0  0
   -3.9419   -1.3568    3.2107 C   0  0  0  0  0  0  0  0  0  0  0  0
   -2.6661   -1.4763    3.6740 C   0  0  0  0  0  0  0  0  0  0  0  0
   -1.6144   -1.1176    2.8850 C   0  0  0  0  0  0  0  0  0  0  0  0
   -1.8239   -0.6238    1.5947 C   0  0  0  0  0  0  0  0  0  0  0  0
   -3.1114   -0.5099    1.1444 C   0  0  0  0  0  0  0  0  0  0  0  0
    2.8101    0.7153   -0.7069 N   0  0  0  0  0  0  0  0  0  0  0  0
    4.1130    0.5785   -0.0780 C   0  0  0  0  0  0  0  0  0  0  0  0
    4.3378   -0.8776    0.2732 C   0  0  0  0  0  0  0  0  0  0  0  0
    5.6978   -0.9906    0.9246 C   0  0  0  0  0  0  0  0  0  0  0  0
    6.7835   -0.5287    0.0066 C   0  0  0  0  0  0  0  0  0  0  0  0
    7.1909    0.7829   -0.0118 C   0  0  0  0  0  0  0  0  0  0  0  0
    8.1944    1.1708   -0.8715 C   0  0  0  0  0  0  0  0  0  0  0  0
    8.7764    0.2440   -1.6999 C   0  0  0  0  0  0  0  0  0  0  0  0
    8.3606   -1.0290   -1.6623 N   0  0  0  0  0  0  0  0  0  0  0  0
    7.3868   -1.4351   -0.8366 C   0  0  0  0  0  0  0  0  0  0  0  0
  1  2  2  0
  2  3  1  0
  3  4  2  0
  4  5  1  0
  5  6  2  0
  6  7  1  0
  7  8  2  0
  8  9  1  0
  9 10  2  0
 10 11  1  0
 11 12  2  0
 12 13  1  0
 13 14  1  0
 14 15  1  0
 15 16  2  0
 16 17  1  0
 17 18  2  0
 18 19  1  0
 19 20  2  0
  2 21  1  0
 21 22  1  0
 22 23  1  0
 23 24  1  0
 24 25  1  0
 25 26  2  0
 26 27  1  0
 27 28  2  0
 28 29  1  0
 29 30  2  0
 20  6  1  0
 30 25  1  0
 12  7  1  0
 20 15  1  0
M  END
>  <zinc_id>  (1) 
ZINC000003940865

>  <smiles>  (1) 
O=C(/C=C/C=C1c2ccccc2CCc2ccccc21)NCCCc1cccnc1

$$$$
