
     RDKit          3D

 31 33  0  0  0  0  0  0  0  0999 V2000
   -7.8287    1.2378    2.2127 C   0  0  0  0  0  0  0  0  0  0  0  0
   -6.4408    1.3703    1.6830 C   0  0  0  0  0  0  0  0  0  0  0  0
   -6.0034    0.5637    0.6517 C   0  0  0  0  0  0  0  0  0  0  0  0
   -4.7292    0.6481    0.1274 C   0  0  0  0  0  0  0  0  0  0  0  0
   -3.8343    1.5594    0.6272 C   0  0  0  0  0  0  0  0  0  0  0  0
   -2.1978    1.7189    0.0060 S   0  0  0  0  0  0  0  0  0  0  0  0
   -1.7474    3.1365    0.1420 O   0  0  0  0  0  0  0  0  0  0  0  0
   -2.1259    1.3386   -1.4492 O   0  0  0  0  0  0  0  0  0  0  0  0
   -1.1629    0.6539    0.9063 N   0  0  0  0  0  0  0  0  0  0  0  0
   -1.0118   -0.6445    0.4091 N   0  0  0  0  0  0  0  0  0  0  0  0
    0.1009   -1.0202   -0.1260 C   0  0  0  0  0  0  0  0  0  0  0  0
    0.3012   -2.3559   -0.6540 C   0  0  0  0  0  0  0  0  0  0  0  0
    1.5021   -2.7183   -1.2169 C   0  0  0  0  0  0  0  0  0  0  0  0
    1.7392   -3.9765   -1.7319 C   0  0  0  0  0  0  0  0  0  0  0  0
    0.7437   -4.9189   -1.6883 C   0  0  0  0  0  0  0  0  0  0  0  0
    0.9121   -6.1845   -2.1807 F   0  0  0  0  0  0  0  0  0  0  0  0
   -0.4614   -4.5711   -1.1289 C   0  0  0  0  0  0  0  0  0  0  0  0
   -0.6904   -3.3053   -0.6142 C   0  0  0  0  0  0  0  0  0  0  0  0
    1.1662   -0.0356   -0.1808 C   0  0  0  0  0  0  0  0  0  0  0  0
    2.3654   -0.3984   -0.7434 C   0  0  0  0  0  0  0  0  0  0  0  0
    3.4007    0.4939   -0.8185 C   0  0  0  0  0  0  0  0  0  0  0  0
    3.2898    1.7748   -0.3417 C   0  0  0  0  0  0  0  0  0  0  0  0
    4.3560    2.6921   -0.4196 O   0  0  0  0  0  0  0  0  0  0  0  0
    5.5500    2.2278   -1.0148 C   0  0  0  0  0  0  0  0  0  0  0  0
    6.0540    1.0640   -0.2229 C   0  0  0  0  0  0  0  0  0  0  0  0
    6.3561    1.3742    1.2054 C   0  0  0  0  0  0  0  0  0  0  0  0
    7.0893    0.2448   -0.9148 C   0  0  0  0  0  0  0  0  0  0  0  0
    2.0824    2.1305    0.2215 C   0  0  0  0  0  0  0  0  0  0  0  0
    1.0361    1.2437    0.3025 C   0  0  0  0  0  0  0  0  0  0  0  0
   -4.2660    2.3681    1.6579 C   0  0  0  0  0  0  0  0  0  0  0  0
   -5.5453    2.2882    2.1892 C   0  0  0  0  0  0  0  0  0  0  0  0
  1  2  1  0
  2  3  2  0
  3  4  1  0
  4  5  2  0
  5  6  1  0
  6  7  2  0
  6  8  2  0
  6  9  1  0
  9 10  1  0
 10 11  2  0
 11 12  1  0
 12 13  2  0
 13 14  1  0
 14 15  2  0
 15 16  1  0
 15 17  1  0
 17 18  2  0
 11 19  1  0
 19 20  2  0
 20 21  1  0
 21 22  2  0
 22 23  1  0
 23 24  1  0
 24 25  1  0
 25 26  1  0
 25 27  1  0
 22 28  1  0
 28 29  2  0
  5 30  1  0
 30 31  2  0
 31  2  1  0
 18 12  1  0
 29 19  1  0
M  END
>  <zinc_id>  (1) 
ZINC000003142280

>  <smiles>  (1) 
Cc1ccc(S(=O)(=O)N/N=C(/c2ccc(F)cc2)c2ccc(OCC(C)C)cc2)cc1

$$$$
