
     RDKit          3D

 30 32  0  0  0  0  0  0  0  0999 V2000
   -9.3772    2.3907   -0.2566 C   0  0  0  0  0  0  0  0  0  0  0  0
   -8.9844    1.3817   -1.1811 O   0  0  0  0  0  0  0  0  0  0  0  0
   -7.8270    0.6208   -0.9896 C   0  0  0  0  0  0  0  0  0  0  0  0
   -7.0509    0.8853    0.1400 C   0  0  0  0  0  0  0  0  0  0  0  0
   -5.9225    0.1562    0.3424 C   0  0  0  0  0  0  0  0  0  0  0  0
   -5.5078   -0.8654   -0.5654 C   0  0  0  0  0  0  0  0  0  0  0  0
   -4.2120   -1.5663   -0.1797 C   0  0  0  0  0  0  0  0  0  0  0  0
   -3.1673   -0.5250   -0.2671 N   0  0  0  0  0  0  0  0  0  0  0  0
   -2.7811   -0.2507    1.1280 C   0  0  0  0  0  0  0  0  0  0  0  0
   -1.9165    1.1223    0.8498 C   0  0  1  0  0  0  0  0  0  0  0  0
   -1.8583    1.4600    2.4130 O   0  0  0  0  0  0  0  0  0  0  0  0
   -0.4289    0.4545    0.9744 C   0  0  0  0  0  0  0  0  0  0  0  0
   -0.0480   -0.0371   -0.2658 O   0  0  0  0  0  0  0  0  0  0  0  0
    1.3070   -0.4511   -0.3780 C   0  0  0  0  0  0  0  0  0  0  0  0
    1.8181   -0.9730   -1.4731 C   0  0  0  0  0  0  0  0  0  0  0  0
    3.1573   -1.3376   -1.5412 C   0  0  0  0  0  0  0  0  0  0  0  0
    4.0050   -1.1580   -0.4566 C   0  0  0  0  0  0  0  0  0  0  0  0
    5.4594   -1.4374   -0.4425 C   0  0  0  0  0  0  0  0  0  0  0  0
    5.8765   -1.7245   -1.8844 C   0  0  0  0  0  0  0  0  0  0  0  0
    5.8529   -2.5450    0.4540 C   0  0  0  0  0  0  0  0  0  0  0  0
    6.1377   -0.1184   -0.1300 C   0  0  0  0  0  0  0  0  0  0  0  0
    5.6337    0.5861    0.9797 C   0  0  0  0  0  0  0  0  0  0  0  0
    6.1287    1.8042    1.3409 C   0  0  0  0  0  0  0  0  0  0  0  0
    7.1307    2.3384    0.6080 C   0  0  0  0  0  0  0  0  0  0  0  0
    7.6268    1.6775   -0.4576 C   0  0  0  0  0  0  0  0  0  0  0  0
    7.1436    0.4220   -0.8595 C   0  0  0  0  0  0  0  0  0  0  0  0
    3.4231   -0.6147    0.6632 C   0  0  0  0  0  0  0  0  0  0  0  0
    2.1025   -0.2435    0.7757 C   0  0  0  0  0  0  0  0  0  0  0  0
   -6.2651   -1.1072   -1.6476 C   0  0  0  0  0  0  0  0  0  0  0  0
   -7.4561   -0.3449   -1.8676 C   0  0  0  0  0  0  0  0  0  0  0  0
  1  2  1  0
  2  3  1  0
  3  4  2  0
  4  5  1  0
  5  6  2  0
  6  7  1  0
  7  8  1  0
  8  9  1  0
  9 10  1  0
 10 11  1  1
 10 12  1  0
 12 13  1  0
 13 14  1  0
 14 15  2  0
 15 16  1  0
 16 17  2  0
 17 18  1  0
 18 19  1  0
 18 20  1  0
 18 21  1  0
 21 22  2  0
 22 23  1  0
 23 24  2  0
 24 25  1  0
 25 26  2  0
 17 27  1  0
 27 28  2  0
  6 29  1  0
 29 30  2  0
 30  3  1  0
 28 14  1  0
 26 21  1  0
M  END
>  <zinc_id>  (1) 
ZINC000003412342

>  <smiles>  (1) 
COc1ccc(CNC[C@@H](O)COc2ccc(C(C)(C)c3ccccc3)cc2)cc1

$$$$
