
     RDKit          3D

 34 39  0  0  0  0  0  0  0  0999 V2000
    6.0727   -1.5380   -4.9616 O   0  0  0  0  0  0  0  0  0  0  0  0
    5.5279   -0.9833   -3.8134 C   0  0  0  0  0  0  0  0  0  0  0  0
    6.3459   -0.4605   -2.7999 C   0  0  0  0  0  0  0  0  0  0  0  0
    5.8454    0.0881   -1.6697 C   0  0  0  0  0  0  0  0  0  0  0  0
    4.4765    0.1605   -1.4561 C   0  0  0  0  0  0  0  0  0  0  0  0
    3.6609   -0.3492   -2.4415 C   0  0  0  0  0  0  0  0  0  0  0  0
    4.1735   -0.9036   -3.5853 C   0  0  0  0  0  0  0  0  0  0  0  0
    2.2569   -0.1463   -1.9507 C   0  0  0  0  0  0  0  0  0  0  0  0
    2.3881    0.5298   -0.6633 C   0  0  0  0  0  0  0  0  0  0  0  0
    3.7004    0.7082   -0.3505 C   0  0  0  0  0  0  0  0  0  0  0  0
    4.0366    1.3416    0.8435 C   0  0  0  0  0  0  0  0  0  0  0  0
    3.0644    1.7947    1.7192 C   0  0  0  0  0  0  0  0  0  0  0  0
    3.4111    2.4262    2.9085 C   0  0  0  0  0  0  0  0  0  0  0  0
    2.4273    2.8724    3.7702 C   0  0  0  0  0  0  0  0  0  0  0  0
    1.0987    2.6607    3.3948 C   0  0  0  0  0  0  0  0  0  0  0  0
    0.0686    3.0903    4.2271 O   0  0  0  0  0  0  0  0  0  0  0  0
    0.7898    2.0369    2.2212 C   0  0  0  0  0  0  0  0  0  0  0  0
    1.7634    1.5967    1.3704 C   0  0  0  0  0  0  0  0  0  0  0  0
    1.3914    0.9689    0.1900 C   0  0  0  0  0  0  0  0  0  0  0  0
   -0.0141    0.7308   -0.1710 C   0  0  0  0  0  0  0  0  0  0  0  0
   -0.5433    1.4280   -1.2340 C   0  0  0  0  0  0  0  0  0  0  0  0
   -1.8538    1.2273   -1.5969 C   0  0  0  0  0  0  0  0  0  0  0  0
   -2.6171    0.3477   -0.9109 C   0  0  0  0  0  0  0  0  0  0  0  0
   -2.1373   -0.3950    0.1843 C   0  0  0  0  0  0  0  0  0  0  0  0
   -2.8999   -1.2178    0.8009 O   0  0  0  0  0  0  0  0  0  0  0  0
   -3.7453   -2.0341    1.3685 C   0  0  0  0  0  0  0  0  0  0  0  0
   -5.0194   -1.5063    1.9654 C   0  0  0  0  0  0  0  0  0  0  0  0
   -5.7882   -0.8702    0.9142 N   0  0  0  0  0  0  0  0  0  0  0  0
   -7.0113   -0.2891    1.4396 C   0  0  0  0  0  0  0  0  0  0  0  0
   -8.0154    0.0602    0.4008 C   0  0  0  0  0  0  0  0  0  0  0  0
   -8.5114   -1.1832   -0.3060 C   0  0  0  0  0  0  0  0  0  0  0  0
   -7.4882   -2.2907   -0.1391 C   0  0  0  0  0  0  0  0  0  0  0  0
   -6.0624   -1.7910   -0.1772 C   0  0  0  0  0  0  0  0  0  0  0  0
   -0.7926   -0.1484    0.5083 C   0  0  0  0  0  0  0  0  0  0  0  0
  1  2  1  0
  2  3  2  0
  3  4  1  0
  4  5  2  0
  5  6  1  0
  6  7  2  0
  6  8  1  0
  8  9  1  0
  9 10  2  0
 10 11  1  0
 11 12  2  0
 12 13  1  0
 13 14  2  0
 14 15  1  0
 15 16  1  0
 15 17  2  0
 17 18  1  0
 18 19  2  0
 19 20  1  0
 20 21  2  0
 21 22  1  0
 22 23  2  0
 23 24  1  0
 24 25  1  0
 25 26  1  0
 26 27  1  0
 27 28  1  0
 28 29  1  0
 29 30  1  0
 30 31  1  0
 31 32  1  0
 32 33  1  0
 24 34  2  0
  7  2  1  0
 19  9  1  0
 34 20  1  0
 10  5  1  0
 18 12  1  0
 33 28  1  0
M  END
>  <zinc_id>  (1) 
ZINC000003992380

>  <smiles>  (1) 
Oc1ccc2c(c1)Cc1c-2cc2ccc(O)cc2c1-c1cccc(OCCN2CCCCC2)c1

$$$$
