
     RDKit          3D

 31 33  0  0  0  0  0  0  0  0999 V2000
   -5.3768    2.6917    1.2468 C   0  0  0  0  0  0  0  0  0  0  0  0
   -5.2396    1.7258    0.3130 C   0  0  0  0  0  0  0  0  0  0  0  0
   -3.9697    1.6333   -0.2938 N   0  0  0  0  0  0  0  0  0  0  0  0
   -2.8071    1.1618    0.3986 N   0  0  0  0  0  0  0  0  0  0  0  0
   -2.0551    0.1328   -0.2006 C   0  0  0  0  0  0  0  0  0  0  0  0
   -2.5849   -0.2662   -1.3438 O   0  0  0  0  0  0  0  0  0  0  0  0
   -0.8545   -0.4894    0.2479 C   0  0  0  0  0  0  0  0  0  0  0  0
    0.0131   -0.1356    1.2351 C   0  0  0  0  0  0  0  0  0  0  0  0
    1.1885   -0.8426    1.5284 C   0  0  0  0  0  0  0  0  0  0  0  0
    1.5625   -1.9439    0.8455 C   0  0  0  0  0  0  0  0  0  0  0  0
    2.7451   -2.8195    1.0058 C   0  0  0  0  0  0  0  0  0  0  0  0
    3.7623   -2.5413    0.1443 O   0  0  0  0  0  0  0  0  0  0  0  0
    4.5943   -1.5063    0.0835 C   0  0  0  0  0  0  0  0  0  0  0  0
    5.5195   -1.4591   -0.9696 C   0  0  0  0  0  0  0  0  0  0  0  0
    6.3745   -0.4182   -1.0178 C   0  0  0  0  0  0  0  0  0  0  0  0
    6.4216    0.5950   -0.1269 C   0  0  0  0  0  0  0  0  0  0  0  0
    7.4167    1.7326   -0.2337 C   0  0  0  0  0  0  0  0  0  0  0  0
    8.1317    1.6340   -1.5449 C   0  0  0  0  0  0  0  0  0  0  0  0
    8.3313    1.5764    0.9669 C   0  0  0  0  0  0  0  0  0  0  0  0
    6.6212    3.0218   -0.0811 C   0  0  0  0  0  0  0  0  0  0  0  0
    5.5028    0.5779    0.9418 C   0  0  0  0  0  0  0  0  0  0  0  0
    4.6213   -0.4852    0.9969 C   0  0  0  0  0  0  0  0  0  0  0  0
    0.6711   -2.3467   -0.1973 C   0  0  0  0  0  0  0  0  0  0  0  0
   -0.4517   -1.6590   -0.4667 C   0  0  0  0  0  0  0  0  0  0  0  0
   -6.3657    0.8501   -0.0193 C   0  0  0  0  0  0  0  0  0  0  0  0
   -7.4232    0.7645    0.8546 C   0  0  0  0  0  0  0  0  0  0  0  0
   -8.4998   -0.0247    0.6089 C   0  0  0  0  0  0  0  0  0  0  0  0
   -8.5612   -0.7702   -0.5396 C   0  0  0  0  0  0  0  0  0  0  0  0
   -7.5048   -0.6842   -1.4105 C   0  0  0  0  0  0  0  0  0  0  0  0
   -6.3925    0.1174   -1.1783 C   0  0  0  0  0  0  0  0  0  0  0  0
   -5.3909    0.1771   -2.0726 F   0  0  0  0  0  0  0  0  0  0  0  0
  1  2  2  0
  2  3  1  0
  3  4  1  0
  4  5  1  0
  5  6  2  0
  5  7  1  0
  7  8  2  0
  8  9  1  0
  9 10  2  0
 10 11  1  0
 11 12  1  0
 12 13  1  0
 13 14  2  0
 14 15  1  0
 15 16  2  0
 16 17  1  0
 17 18  1  0
 17 19  1  0
 17 20  1  0
 16 21  1  0
 21 22  2  0
 10 23  1  0
 23 24  2  0
  2 25  1  0
 25 26  2  0
 26 27  1  0
 27 28  2  0
 28 29  1  0
 29 30  2  0
 30 31  1  0
 24  7  1  0
 30 25  1  0
 22 13  1  0
M  END
>  <zinc_id>  (1) 
ZINC000003311238

>  <smiles>  (1) 
C=C(NNC(=O)c1ccc(COc2ccc(C(C)(C)C)cc2)cc1)c1ccccc1F

$$$$
