
     RDKit          3D

 32 35  0  0  0  0  0  0  0  0999 V2000
    8.6806    1.0392    1.8962 C   0  0  0  0  0  0  0  0  0  0  0  0
    8.9605   -0.4460    1.8943 C   0  0  0  0  0  0  0  0  0  0  0  0
    8.4463   -1.0115    0.6832 O   0  0  0  0  0  0  0  0  0  0  0  0
    7.0723   -0.8855    0.4212 C   0  0  0  0  0  0  0  0  0  0  0  0
    6.2440   -0.2250    1.3328 C   0  0  0  0  0  0  0  0  0  0  0  0
    4.9046   -0.1113    1.0612 C   0  0  0  0  0  0  0  0  0  0  0  0
    4.3213   -0.6182   -0.0791 C   0  0  0  0  0  0  0  0  0  0  0  0
    2.9263   -0.4677   -0.2968 N   0  0  0  0  0  0  0  0  0  0  0  0
    2.2409   -0.9934   -1.3406 C   0  0  0  0  0  0  0  0  0  0  0  0
    2.8019   -1.8054   -2.4502 C   0  0  0  0  0  0  0  0  0  0  0  0
    0.9190   -0.5962   -1.1243 C   0  0  0  0  0  0  0  0  0  0  0  0
    0.8095    0.1504    0.0213 C   0  0  0  0  0  0  0  0  0  0  0  0
   -0.4119    0.7234    0.5791 C   0  0  0  0  0  0  0  0  0  0  0  0
   -1.5541    0.8053   -0.0538 C   0  0  0  0  0  0  0  0  0  0  0  0
   -1.8058    0.3593   -1.3728 N   0  0  0  0  0  0  0  0  0  0  0  0
   -3.1599    0.6060   -1.7274 C   0  0  0  0  0  0  0  0  0  0  0  0
   -3.6425    0.2918   -2.8711 O   0  0  0  0  0  0  0  0  0  0  0  0
   -3.8052    1.2161   -0.6421 N   0  0  0  0  0  0  0  0  0  0  0  0
   -5.1732    1.6309   -0.5958 C   0  0  0  0  0  0  0  0  0  0  0  0
   -6.0293    0.5618   -0.0795 C   0  0  0  0  0  0  0  0  0  0  0  0
   -5.5108   -0.6672    0.3074 C   0  0  0  0  0  0  0  0  0  0  0  0
   -6.3694   -1.6257    0.8031 C   0  0  0  0  0  0  0  0  0  0  0  0
   -7.7340   -1.3508    0.9081 C   0  0  0  0  0  0  0  0  0  0  0  0
   -8.2287   -0.1148    0.5148 C   0  0  0  0  0  0  0  0  0  0  0  0
   -7.3855    0.8512    0.0190 C   0  0  0  0  0  0  0  0  0  0  0  0
   -7.8495    2.0624   -0.3716 F   0  0  0  0  0  0  0  0  0  0  0  0
   -2.8350    1.3572    0.4207 C   0  0  0  0  0  0  0  0  0  0  0  0
   -3.0735    1.8578    1.5235 O   0  0  0  0  0  0  0  0  0  0  0  0
    2.0913    0.2167    0.5238 C   0  0  0  0  0  0  0  0  0  0  0  0
    2.4500    0.9306    1.7713 C   0  0  0  0  0  0  0  0  0  0  0  0
    5.1678   -1.2620   -0.9565 C   0  0  0  0  0  0  0  0  0  0  0  0
    6.5322   -1.4014   -0.7198 C   0  0  0  0  0  0  0  0  0  0  0  0
  1  2  1  0
  2  3  1  0
  3  4  1  0
  4  5  2  0
  5  6  1  0
  6  7  2  0
  7  8  1  0
  8  9  1  0
  9 10  1  0
  9 11  2  0
 11 12  1  0
 12 13  1  0
 13 14  2  0
 14 15  1  0
 15 16  1  0
 16 17  2  0
 16 18  1  0
 18 19  1  0
 19 20  1  0
 20 21  2  0
 21 22  1  0
 22 23  2  0
 23 24  1  0
 24 25  2  0
 25 26  1  0
 18 27  1  0
 27 28  2  0
 12 29  2  0
 29 30  1  0
  7 31  1  0
 31 32  2  0
 32  4  1  0
 29  8  1  0
 27 14  1  0
 25 20  1  0
M  END
>  <zinc_id>  (1) 
ZINC000003659083

>  <smiles>  (1) 
CCOc1ccc(-n2c(C)cc(/C=C3\NC(=O)N(Cc4ccccc4F)C3=O)c2C)cc1

$$$$
