
     RDKit          3D

 30 32  0  0  0  0  0  0  0  0999 V2000
   -8.9791   -0.1470   -3.3547 C   0  0  0  0  0  0  0  0  0  0  0  0
   -8.8441   -0.0006   -1.8497 C   0  0  0  0  0  0  0  0  0  0  0  0
   -9.8243   -0.8454   -1.0743 C   0  0  0  0  0  0  0  0  0  0  0  0
   -9.1704    1.4866   -1.5486 C   0  0  0  0  0  0  0  0  0  0  0  0
   -7.4312   -0.1875   -1.4280 C   0  0  0  0  0  0  0  0  0  0  0  0
   -6.9749   -1.3952   -0.9443 C   0  0  0  0  0  0  0  0  0  0  0  0
   -5.6742   -1.6078   -0.5188 C   0  0  0  0  0  0  0  0  0  0  0  0
   -4.7569   -0.5862   -0.5650 C   0  0  0  0  0  0  0  0  0  0  0  0
   -3.4260   -0.7290   -0.1570 O   0  0  0  0  0  0  0  0  0  0  0  0
   -2.6208    0.4048   -0.2654 C   0  0  0  0  0  0  0  0  0  0  0  0
   -1.2287    0.2297    0.1761 C   0  0  0  0  0  0  0  0  0  0  0  0
   -0.4385    1.3832    0.0745 C   0  0  0  0  0  0  0  0  0  0  0  0
    0.8803    1.3755    0.4263 C   0  0  0  0  0  0  0  0  0  0  0  0
    1.4485    0.2142    0.8938 C   0  0  0  0  0  0  0  0  0  0  0  0
    2.8485    0.1080    1.2680 C   0  0  0  0  0  0  0  0  0  0  0  0
    3.2593   -0.9359    1.8035 O   0  0  0  0  0  0  0  0  0  0  0  0
    3.7589    1.2037    1.0283 N   0  0  0  0  0  0  0  0  0  0  0  0
    5.0998    0.9623    1.4409 N   0  0  0  0  0  0  0  0  0  0  0  0
    5.9616    0.3164    0.5154 C   0  0  0  0  0  0  0  0  0  0  0  0
    5.4417    0.0155   -0.6253 O   0  0  0  0  0  0  0  0  0  0  0  0
    7.3595   -0.0266    0.7556 C   0  0  0  0  0  0  0  0  0  0  0  0
    8.0703    0.3007    1.8807 C   0  0  0  0  0  0  0  0  0  0  0  0
    9.4005   -0.0461    2.0850 C   0  0  0  0  0  0  0  0  0  0  0  0
   10.0831   -0.7676    1.1087 C   0  0  0  0  0  0  0  0  0  0  0  0
    9.3901   -1.1126   -0.0307 C   0  0  0  0  0  0  0  0  0  0  0  0
    8.0811   -0.7587   -0.2061 C   0  0  0  0  0  0  0  0  0  0  0  0
    0.6645   -0.9165    0.9944 C   0  0  0  0  0  0  0  0  0  0  0  0
   -0.6637   -0.9338    0.6445 C   0  0  0  0  0  0  0  0  0  0  0  0
   -5.2107    0.6391   -1.0539 C   0  0  0  0  0  0  0  0  0  0  0  0
   -6.5043    0.8422   -1.4740 C   0  0  0  0  0  0  0  0  0  0  0  0
  1  2  1  0
  2  3  1  0
  2  4  1  0
  2  5  1  0
  5  6  2  0
  6  7  1  0
  7  8  2  0
  8  9  1  0
  9 10  1  0
 10 11  1  0
 11 12  2  0
 12 13  1  0
 13 14  2  0
 14 15  1  0
 15 16  2  0
 15 17  1  0
 17 18  1  0
 18 19  1  0
 19 20  2  0
 19 21  1  0
 21 22  2  0
 22 23  1  0
 23 24  2  0
 24 25  1  0
 25 26  2  0
 14 27  1  0
 27 28  2  0
  8 29  1  0
 29 30  2  0
 30  5  1  0
 28 11  1  0
 26 21  1  0
M  END
>  <zinc_id>  (1) 
ZINC000003451956

>  <smiles>  (1) 
CC(C)(C)c1ccc(OCc2ccc(C(=O)NNC(=O)c3ccccc3)cc2)cc1

$$$$
