
     RDKit          3D

 33 37  0  0  0  0  0  0  0  0999 V2000
   -6.8089   -1.8555   -3.5544 C   0  0  0  0  0  0  0  0  0  0  0  0
   -5.6337   -1.1425   -3.2958 O   0  0  0  0  0  0  0  0  0  0  0  0
   -5.1451   -0.1610   -4.1609 C   0  0  0  0  0  0  0  0  0  0  0  0
   -5.8591    0.1075   -5.3106 C   0  0  0  0  0  0  0  0  0  0  0  0
   -5.4079    1.0665   -6.1828 C   0  0  0  0  0  0  0  0  0  0  0  0
   -4.2437    1.7771   -5.9345 C   0  0  0  0  0  0  0  0  0  0  0  0
   -3.5700    1.4725   -4.7771 C   0  0  0  0  0  0  0  0  0  0  0  0
   -3.9846    0.5182   -3.8725 C   0  0  0  0  0  0  0  0  0  0  0  0
   -3.2570    0.2270   -2.6844 N   0  0  0  0  0  0  0  0  0  0  0  0
   -2.0610    0.9255   -2.3698 C   0  0  0  0  0  0  0  0  0  0  0  0
   -1.6626    1.8003   -3.1543 O   0  0  0  0  0  0  0  0  0  0  0  0
   -1.3374    0.5930   -1.1349 C   0  0  0  0  0  0  0  0  0  0  0  0
   -1.7353   -0.5732    0.0297 S   0  0  0  0  0  0  0  0  0  0  0  0
   -0.4278   -0.3465    1.1126 C   0  0  0  0  0  0  0  0  0  0  0  0
   -0.0673   -0.9309    2.2929 N   0  0  0  0  0  0  0  0  0  0  0  0
    1.0406   -0.5705    2.9835 C   0  0  0  0  0  0  0  0  0  0  0  0
    1.3354   -1.2924    4.2135 C   0  0  0  0  0  0  0  0  0  0  0  0
    2.2699   -2.4092    4.1776 C   0  0  0  0  0  0  0  0  0  0  0  0
    3.6232   -2.0933    3.7234 C   0  0  0  0  0  0  0  0  0  0  0  0
    4.6251   -1.6829    4.6177 C   0  0  0  0  0  0  0  0  0  0  0  0
    5.9027   -1.4072    4.1831 C   0  0  0  0  0  0  0  0  0  0  0  0
    6.2394   -1.5239    2.8660 C   0  0  0  0  0  0  0  0  0  0  0  0
    5.2760   -1.9306    1.9326 C   0  0  0  0  0  0  0  0  0  0  0  0
    4.0117   -2.1973    2.4009 C   0  0  0  0  0  0  0  0  0  0  0  0
    1.7819    0.4357    2.4063 C   0  0  0  0  0  0  0  0  0  0  0  0
    1.4449    1.0357    1.2276 C   0  0  0  0  0  0  0  0  0  0  0  0
    0.2905    0.6540    0.5150 C   0  0  0  0  0  0  0  0  0  0  0  0
   -0.1832    1.1392   -0.6496 C   0  0  0  0  0  0  0  0  0  0  0  0
    0.4631    2.2061   -1.4111 N   0  0  0  0  0  0  0  0  0  0  0  0
    2.3279    2.1054    0.7041 C   0  0  0  0  0  0  0  0  0  0  0  0
    3.7543    1.5757    0.9071 C   0  0  0  0  0  0  0  0  0  0  0  0
    4.0033    1.6047    2.3874 C   0  0  0  0  0  0  0  0  0  0  0  0
    2.9949    0.8725    3.1858 C   0  0  0  0  0  0  0  0  0  0  0  0
  1  2  1  0
  2  3  1  0
  3  4  2  0
  4  5  1  0
  5  6  2  0
  6  7  1  0
  7  8  2  0
  8  9  1  0
  9 10  1  0
 10 11  2  0
 10 12  1  0
 12 13  1  0
 13 14  1  0
 14 15  2  0
 15 16  1  0
 16 17  1  0
 17 18  1  0
 18 19  1  0
 19 20  2  0
 20 21  1  0
 21 22  2  0
 22 23  1  0
 23 24  2  0
 16 25  2  0
 25 26  1  0
 26 27  2  0
 27 28  1  0
 28 29  1  0
 26 30  1  0
 30 31  1  0
 31 32  1  0
 32 33  1  0
  8  3  1  0
 28 12  2  0
 27 14  1  0
 24 19  1  0
 33 25  1  0
M  END
>  <zinc_id>  (1) 
ZINC000001472105

>  <smiles>  (1) 
COc1ccccc1NC(=O)c1sc2nc(CCc3ccccc3)c3c(c2c1N)CCCC3

$$$$
