
     RDKit          3D

 30 33  0  0  0  0  0  0  0  0999 V2000
   -0.1463   -2.0677    2.9479 O   0  0  0  0  0  0  0  0  0  0  0  0
    0.5757   -1.7347    1.6615 C   0  0  2  0  0  0  0  0  0  0  0  0
   -0.1279   -0.2711    1.4969 C   0  0  0  0  0  0  0  0  0  0  0  0
    0.4129    0.2765    0.3165 O   0  0  0  0  0  0  0  0  0  0  0  0
    1.7809    0.4595    0.2660 C   0  0  0  0  0  0  0  0  0  0  0  0
    2.3219    0.9925   -0.8782 C   0  0  0  0  0  0  0  0  0  0  0  0
    3.7011    1.1871   -0.9540 C   0  0  0  0  0  0  0  0  0  0  0  0
    4.5177    0.8572    0.0870 C   0  0  0  0  0  0  0  0  0  0  0  0
    5.9396    1.0715   -0.0243 C   0  0  0  0  0  0  0  0  0  0  0  0
    6.7945    0.2104    0.6504 C   0  0  0  0  0  0  0  0  0  0  0  0
    8.1578    0.3977    0.5567 C   0  0  0  0  0  0  0  0  0  0  0  0
    8.6214    1.4468   -0.2137 C   0  0  0  0  0  0  0  0  0  0  0  0
    7.7773    2.3013   -0.8831 C   0  0  0  0  0  0  0  0  0  0  0  0
    6.3953    2.1209   -0.7953 C   0  0  0  0  0  0  0  0  0  0  0  0
    3.9959    0.3275    1.2286 C   0  0  0  0  0  0  0  0  0  0  0  0
    2.6134    0.1335    1.3022 C   0  0  0  0  0  0  0  0  0  0  0  0
   -0.4853   -2.5365    0.7208 C   0  0  0  0  0  0  0  0  0  0  0  0
   -1.7652   -2.0353    0.8637 N   0  0  0  0  0  0  0  0  0  0  0  0
   -2.1182   -0.7613    0.3989 C   0  0  0  0  0  0  0  0  0  0  0  0
   -3.6034   -0.5177    0.7025 C   0  0  0  0  0  0  0  0  0  0  0  0
   -4.3606   -1.5540   -0.0437 C   0  0  0  0  0  0  0  0  0  0  0  0
   -5.8302   -1.3718   -0.0870 C   0  0  0  0  0  0  0  0  0  0  0  0
   -6.1332   -0.0729   -0.7382 C   0  0  0  0  0  0  0  0  0  0  0  0
   -6.2280    1.0293    0.0861 C   0  0  0  0  0  0  0  0  0  0  0  0
   -6.5057    2.2626   -0.4432 C   0  0  0  0  0  0  0  0  0  0  0  0
   -6.6844    2.3678   -1.7981 C   0  0  0  0  0  0  0  0  0  0  0  0
   -6.5958    1.2886   -2.6404 C   0  0  0  0  0  0  0  0  0  0  0  0
   -6.3175    0.0628   -2.0960 C   0  0  0  0  0  0  0  0  0  0  0  0
   -3.8870   -2.9500    0.1401 C   0  0  0  0  0  0  0  0  0  0  0  0
   -2.8165   -2.9206    1.2136 C   0  0  0  0  0  0  0  0  0  0  0  0
  2  1  1  1
  2  3  1  0
  3  4  1  0
  4  5  1  0
  5  6  2  0
  6  7  1  0
  7  8  2  0
  8  9  1  0
  9 10  2  0
 10 11  1  0
 11 12  2  0
 12 13  1  0
 13 14  2  0
  8 15  1  0
 15 16  2  0
  2 17  1  0
 17 18  1  0
 18 19  1  0
 19 20  1  0
 20 21  1  0
 21 22  1  0
 22 23  1  0
 23 24  2  0
 24 25  1  0
 25 26  2  0
 26 27  1  0
 27 28  2  0
 21 29  1  0
 29 30  1  0
 16  5  1  0
 30 18  1  0
 14  9  1  0
 28 23  1  0
M  END
>  <zinc_id>  (1) 
ZINC000004279611

>  <smiles>  (1) 
O[C@H](COc1ccc(-c2ccccc2)cc1)CN1CCC(Cc2ccccc2)CC1

$$$$
