
     RDKit          3D

 32 36  0  0  0  0  0  0  0  0999 V2000
   -5.4523   -6.2838    0.3684 C   0  0  0  0  0  0  0  0  0  0  0  0
   -5.6562   -4.8975    0.1817 O   0  0  0  0  0  0  0  0  0  0  0  0
   -4.6538   -3.9536    0.2790 C   0  0  0  0  0  0  0  0  0  0  0  0
   -3.3799   -4.3685    0.5722 C   0  0  0  0  0  0  0  0  0  0  0  0
   -2.3175   -3.4419    0.6840 C   0  0  0  0  0  0  0  0  0  0  0  0
   -2.6203   -2.1175    0.4863 C   0  0  0  0  0  0  0  0  0  0  0  0
   -3.9207   -1.7317    0.1911 C   0  0  0  0  0  0  0  0  0  0  0  0
   -4.9507   -2.6302    0.0827 C   0  0  0  0  0  0  0  0  0  0  0  0
   -6.2626   -2.2072   -0.2185 O   0  0  0  0  0  0  0  0  0  0  0  0
   -6.5183   -0.8117   -0.4170 C   0  0  0  0  0  0  0  0  0  0  0  0
   -1.5497   -1.1468    0.5923 C   0  0  0  0  0  0  0  0  0  0  0  0
   -1.5862    0.2248    0.4517 C   0  0  0  0  0  0  0  0  0  0  0  0
   -2.5995    1.1392    0.1671 C   0  0  0  0  0  0  0  0  0  0  0  0
   -2.3020    2.4505    0.0994 N   0  0  0  0  0  0  0  0  0  0  0  0
   -1.0695    2.9293    0.2927 N   0  0  0  0  0  0  0  0  0  0  0  0
   -0.0493    2.0839    0.5720 C   0  0  0  0  0  0  0  0  0  0  0  0
    1.2594    2.6056    0.7747 N   0  0  0  0  0  0  0  0  0  0  0  0
    1.5306    4.0285    0.6865 C   0  0  0  0  0  0  0  0  0  0  0  0
    3.0137    4.2975    0.9412 C   0  0  0  0  0  0  0  0  0  0  0  0
    3.8442    3.5728   -0.0796 C   0  0  0  0  0  0  0  0  0  0  0  0
    5.3265    3.7970    0.1249 C   0  0  0  0  0  0  0  0  0  0  0  0
    6.1122    3.0487   -0.9197 C   0  0  0  0  0  0  0  0  0  0  0  0
    6.4350    3.6648   -2.1095 C   0  0  0  0  0  0  0  0  0  0  0  0
    7.1470    3.0086   -3.0922 C   0  0  0  0  0  0  0  0  0  0  0  0
    7.5251    1.7092   -2.8387 C   0  0  0  0  0  0  0  0  0  0  0  0
    7.2270    1.0560   -1.6704 C   0  0  0  0  0  0  0  0  0  0  0  0
    6.5138    1.7297   -0.7003 C   0  0  0  0  0  0  0  0  0  0  0  0
   -0.3238    0.7416    0.6476 C   0  0  0  0  0  0  0  0  0  0  0  0
    0.4783   -0.3472    0.9099 C   0  0  0  0  0  0  0  0  0  0  0  0
   -0.2961   -1.4873    0.8696 N   0  0  0  0  0  0  0  0  0  0  0  0
    0.0686   -2.8587    1.0728 C   0  0  0  0  0  0  0  0  0  0  0  0
   -0.9730   -3.8677    0.9983 C   0  0  0  0  0  0  0  0  0  0  0  0
  1  2  1  0
  2  3  1  0
  3  4  2  0
  4  5  1  0
  5  6  2  0
  6  7  1  0
  7  8  2  0
  8  9  1  0
  9 10  1  0
  6 11  1  0
 11 12  2  0
 12 13  1  0
 13 14  2  0
 14 15  1  0
 15 16  2  0
 16 17  1  0
 17 18  1  0
 18 19  1  0
 19 20  1  0
 20 21  1  0
 21 22  1  0
 22 23  2  0
 23 24  1  0
 24 25  2  0
 25 26  1  0
 26 27  2  0
 16 28  1  0
 28 29  2  0
 29 30  1  0
 30 31  1  0
 31 32  1  0
  8  3  1  0
 30 11  1  0
 32  5  1  0
 28 12  1  0
 27 22  1  0
M  END
>  <zinc_id>  (1) 
ZINC000001538841

>  <smiles>  (1) 
COc1cc2c(cc1OC)-c1c3cnnc(NCCCCc4ccccc4)c3cn1CC2

$$$$
