
     RDKit          3D

 32 35  0  0  0  0  0  0  0  0999 V2000
   -6.7567   -4.8262    2.6521 C   0  0  0  0  0  0  0  0  0  0  0  0
   -5.5985   -4.3629    3.2814 O   0  0  0  0  0  0  0  0  0  0  0  0
   -4.7199   -3.4826    2.6420 C   0  0  0  0  0  0  0  0  0  0  0  0
   -4.9981   -3.0613    1.3661 C   0  0  0  0  0  0  0  0  0  0  0  0
   -4.1156   -2.1836    0.7377 C   0  0  0  0  0  0  0  0  0  0  0  0
   -2.9768   -1.7320    1.3645 C   0  0  0  0  0  0  0  0  0  0  0  0
   -2.0925   -0.8135    0.6524 C   0  0  0  0  0  0  0  0  0  0  0  0
   -0.9277   -0.3283    1.2446 C   0  0  0  0  0  0  0  0  0  0  0  0
   -0.0944    0.5381    0.5717 C   0  0  0  0  0  0  0  0  0  0  0  0
    1.1368    1.0470    1.2060 C   0  0  0  0  0  0  0  0  0  0  0  0
    1.4599    0.7069    2.3728 O   0  0  0  0  0  0  0  0  0  0  0  0
    2.0046    1.9406    0.5236 N   0  0  0  0  0  0  0  0  0  0  0  0
    3.2138    2.4794    1.0643 C   0  0  0  0  0  0  0  0  0  0  0  0
    4.2350    1.4574    1.4434 C   0  0  0  0  0  0  0  0  0  0  0  0
    4.6823    0.6136    0.3162 C   0  0  0  0  0  0  0  0  0  0  0  0
    5.7715    1.0341   -0.4321 C   0  0  0  0  0  0  0  0  0  0  0  0
    6.1754    0.2424   -1.4741 C   0  0  0  0  0  0  0  0  0  0  0  0
    5.5005   -0.9315   -1.7470 C   0  0  0  0  0  0  0  0  0  0  0  0
    4.4175   -1.3390   -0.9943 C   0  0  0  0  0  0  0  0  0  0  0  0
    4.0034   -0.5567    0.0501 C   0  0  0  0  0  0  0  0  0  0  0  0
   -0.3836    0.9552   -0.7104 C   0  0  0  0  0  0  0  0  0  0  0  0
    0.4058    1.8162   -1.4329 C   0  0  0  0  0  0  0  0  0  0  0  0
    0.0750    2.2103   -2.7241 C   0  0  0  0  0  0  0  0  0  0  0  0
    0.9225    3.1416   -3.5143 C   0  0  0  0  0  0  0  0  0  0  0  0
    1.8208    3.8687   -2.5062 C   0  0  0  0  0  0  0  0  0  0  0  0
    0.0372    4.1714   -4.1700 C   0  0  0  0  0  0  0  0  0  0  0  0
   -1.0938    1.6878   -3.2432 C   0  0  0  0  0  0  0  0  0  0  0  0
   -1.9158    0.8277   -2.5678 C   0  0  0  0  0  0  0  0  0  0  0  0
   -1.5528    0.4553   -1.2777 C   0  0  0  0  0  0  0  0  0  0  0  0
   -2.3445   -0.3893   -0.5931 N   0  0  0  0  0  0  0  0  0  0  0  0
   -2.7024   -2.1538    2.6363 C   0  0  0  0  0  0  0  0  0  0  0  0
   -3.5890   -3.0329    3.2619 C   0  0  0  0  0  0  0  0  0  0  0  0
  1  2  1  0
  2  3  1  0
  3  4  2  0
  4  5  1  0
  5  6  2  0
  6  7  1  0
  7  8  2  0
  8  9  1  0
  9 10  1  0
 10 11  2  0
 10 12  1  0
 12 13  1  0
 13 14  1  0
 14 15  1  0
 15 16  2  0
 16 17  1  0
 17 18  2  0
 18 19  1  0
 19 20  2  0
  9 21  2  0
 21 22  1  0
 22 23  2  0
 23 24  1  0
 24 25  1  0
 24 26  1  0
 23 27  1  0
 27 28  2  0
 28 29  1  0
 29 30  2  0
  6 31  1  0
 31 32  2  0
 32  3  1  0
 30  7  1  0
 20 15  1  0
 29 21  1  0
M  END
>  <zinc_id>  (1) 
ZINC000003047614

>  <smiles>  (1) 
COc1ccc(-c2cc(C(=O)NCCc3ccccc3)c3cc(C(C)C)ccc3n2)cc1

$$$$
