
     RDKit          3D

 32 35  0  0  0  0  0  0  0  0999 V2000
   -4.7878    4.5220    0.6945 C   0  0  0  0  0  0  0  0  0  0  0  0
   -3.8279    3.3815    0.5607 C   0  0  0  0  0  0  0  0  0  0  0  0
   -2.8613    3.1409    1.5128 C   0  0  0  0  0  0  0  0  0  0  0  0
   -2.0082    2.0747    1.3312 C   0  0  0  0  0  0  0  0  0  0  0  0
   -2.0529    1.2184    0.2486 C   0  0  0  0  0  0  0  0  0  0  0  0
   -1.1455    0.1210    0.0993 N   0  0  0  0  0  0  0  0  0  0  0  0
   -1.2508   -1.0956    0.6598 C   0  0  0  0  0  0  0  0  0  0  0  0
   -2.3091   -1.6104    1.5623 C   0  0  0  0  0  0  0  0  0  0  0  0
   -3.4277   -2.2333    0.7827 C   0  0  0  0  0  0  0  0  0  0  0  0
   -3.4282   -3.5588    0.4481 C   0  0  0  0  0  0  0  0  0  0  0  0
   -4.4778   -4.0764   -0.2661 C   0  0  0  0  0  0  0  0  0  0  0  0
   -5.5475   -3.2948   -0.6637 C   0  0  0  0  0  0  0  0  0  0  0  0
   -5.5163   -1.9503   -0.3071 C   0  0  0  0  0  0  0  0  0  0  0  0
   -4.4681   -1.4339    0.4060 C   0  0  0  0  0  0  0  0  0  0  0  0
   -0.1954   -1.8229    0.2621 N   0  0  0  0  0  0  0  0  0  0  0  0
    0.5712   -1.0961   -0.5337 N   0  0  0  0  0  0  0  0  0  0  0  0
   -0.0187    0.1100   -0.6343 C   0  0  0  0  0  0  0  0  0  0  0  0
    0.5646    1.5269   -1.5868 S   0  0  0  0  0  0  0  0  0  0  0  0
    1.6463    2.5617   -0.5485 C   0  0  0  0  0  0  0  0  0  0  0  0
    2.8906    1.8254   -0.2115 C   0  0  0  0  0  0  0  0  0  0  0  0
    3.7465    2.4030    0.5045 O   0  0  0  0  0  0  0  0  0  0  0  0
    3.1561    0.4999   -0.6615 N   0  0  0  0  0  0  0  0  0  0  0  0
    4.3593   -0.1747   -0.3195 C   0  0  0  0  0  0  0  0  0  0  0  0
    4.4009   -0.9420    0.8410 C   0  0  0  0  0  0  0  0  0  0  0  0
    3.1658   -1.0116    1.6655 C   0  0  0  0  0  0  0  0  0  0  0  0
    5.5660   -1.5834    1.1548 C   0  0  0  0  0  0  0  0  0  0  0  0
    6.6870   -1.4944    0.3666 C   0  0  0  0  0  0  0  0  0  0  0  0
    6.6490   -0.7368   -0.7808 C   0  0  0  0  0  0  0  0  0  0  0  0
    5.4728   -0.0679   -1.1308 C   0  0  0  0  0  0  0  0  0  0  0  0
    5.3871    0.7620   -2.3617 C   0  0  0  0  0  0  0  0  0  0  0  0
   -3.0367    1.4834   -0.6967 C   0  0  0  0  0  0  0  0  0  0  0  0
   -3.9034    2.5525   -0.5287 C   0  0  0  0  0  0  0  0  0  0  0  0
  1  2  1  0
  2  3  2  0
  3  4  1  0
  4  5  2  0
  5  6  1  0
  6  7  1  0
  7  8  1  0
  8  9  1  0
  9 10  2  0
 10 11  1  0
 11 12  2  0
 12 13  1  0
 13 14  2  0
  7 15  2  0
 15 16  1  0
 16 17  2  0
 17 18  1  0
 18 19  1  0
 19 20  1  0
 20 21  2  0
 20 22  1  0
 22 23  1  0
 23 24  2  0
 24 25  1  0
 24 26  1  0
 26 27  2  0
 27 28  1  0
 28 29  2  0
 29 30  1  0
  5 31  1  0
 31 32  2  0
 32  2  1  0
 17  6  1  0
 29 23  1  0
 14  9  1  0
M  END
>  <zinc_id>  (1) 
ZINC000000888248

>  <smiles>  (1) 
Cc1ccc(-n2c(Cc3ccccc3)nnc2SCC(=O)Nc2c(C)cccc2C)cc1

$$$$
