
     RDKit          3D

 30 33  0  0  0  0  0  0  0  0999 V2000
    5.8280   -0.4863   -3.3420 C   0  0  0  0  0  0  0  0  0  0  0  0
    5.8639   -0.1038   -1.9155 C   0  0  0  0  0  0  0  0  0  0  0  0
    7.0910    0.1967   -1.3565 C   0  0  0  0  0  0  0  0  0  0  0  0
    7.1641    0.5600   -0.0211 C   0  0  0  0  0  0  0  0  0  0  0  0
    6.0042    0.6150    0.7284 C   0  0  0  0  0  0  0  0  0  0  0  0
    4.7646    0.3218    0.2023 C   0  0  0  0  0  0  0  0  0  0  0  0
    3.5589    0.3914    1.0253 C   0  0  0  0  0  0  0  0  0  0  0  0
    2.3966    0.1303    0.5875 N   0  0  0  0  0  0  0  0  0  0  0  0
    1.2238    0.1856    1.3409 N   0  0  0  0  0  0  0  0  0  0  0  0
    0.6474    1.4529    1.6039 C   0  0  0  0  0  0  0  0  0  0  0  0
    1.2417    2.4675    1.1323 O   0  0  0  0  0  0  0  0  0  0  0  0
   -0.6082    1.6455    2.3998 C   0  0  0  0  0  0  0  0  0  0  0  0
   -1.2498    0.0495    2.9042 S   0  0  0  0  0  0  0  0  0  0  0  0
   -1.8374   -0.9185    1.5197 C   0  0  0  0  0  0  0  0  0  0  0  0
   -2.3147   -2.1933    1.6562 N   0  0  0  0  0  0  0  0  0  0  0  0
   -2.6736   -2.6858    0.4779 C   0  0  0  0  0  0  0  0  0  0  0  0
   -3.2034   -3.8886    0.0358 C   0  0  0  0  0  0  0  0  0  0  0  0
   -3.4673   -4.0808   -1.3003 C   0  0  0  0  0  0  0  0  0  0  0  0
   -3.2122   -3.0940   -2.2068 C   0  0  0  0  0  0  0  0  0  0  0  0
   -2.6868   -1.8880   -1.8048 C   0  0  0  0  0  0  0  0  0  0  0  0
   -2.4298   -1.7193   -0.4519 C   0  0  0  0  0  0  0  0  0  0  0  0
   -1.9194   -0.6513    0.2228 N   0  0  0  0  0  0  0  0  0  0  0  0
   -1.5185    0.6029   -0.4013 C   0  0  0  0  0  0  0  0  0  0  0  0
   -2.7399    1.4568   -0.5094 C   0  0  0  0  0  0  0  0  0  0  0  0
   -3.4720    1.3010   -1.6795 C   0  0  0  0  0  0  0  0  0  0  0  0
   -4.6091    2.0226   -1.9045 C   0  0  0  0  0  0  0  0  0  0  0  0
   -5.0610    2.9296   -0.9685 C   0  0  0  0  0  0  0  0  0  0  0  0
   -4.3208    3.0680    0.1831 C   0  0  0  0  0  0  0  0  0  0  0  0
   -3.1706    2.3504    0.4309 C   0  0  0  0  0  0  0  0  0  0  0  0
    4.7103   -0.0379   -1.1280 C   0  0  0  0  0  0  0  0  0  0  0  0
  1  2  1  0
  2  3  2  0
  3  4  1  0
  4  5  2  0
  5  6  1  0
  6  7  1  0
  7  8  2  0
  8  9  1  0
  9 10  1  0
 10 11  2  0
 10 12  1  0
 12 13  1  0
 13 14  1  0
 14 15  2  0
 15 16  1  0
 16 17  2  0
 17 18  1  0
 18 19  2  0
 19 20  1  0
 20 21  2  0
 21 22  1  0
 22 23  1  0
 23 24  1  0
 24 25  2  0
 25 26  1  0
 26 27  2  0
 27 28  1  0
 28 29  2  0
  6 30  2  0
 30  2  1  0
 22 14  1  0
 29 24  1  0
 21 16  1  0
M  END
>  <zinc_id>  (1) 
ZINC000001247226

>  <smiles>  (1) 
Cc1cccc(/C=N/NC(=O)CSc2nc3ccccc3n2Cc2ccccc2)c1

$$$$
