
     RDKit          3D

 30 33  0  0  0  0  0  0  0  0999 V2000
   -5.5015   -3.8241   -1.4090 C   0  0  0  0  0  0  0  0  0  0  0  0
   -5.6342   -2.8094   -0.3105 C   0  0  0  0  0  0  0  0  0  0  0  0
   -6.5976   -1.7323   -0.7609 C   0  0  0  0  0  0  0  0  0  0  0  0
   -4.3338   -2.1564    0.0589 C   0  0  0  0  0  0  0  0  0  0  0  0
   -3.7402   -1.4307   -1.1494 C   0  0  0  0  0  0  0  0  0  0  0  0
   -2.4903   -0.8391   -0.6784 N   0  0  0  0  0  0  0  0  0  0  0  0
   -1.3140   -1.4694   -0.7297 C   0  0  0  0  0  0  0  0  0  0  0  0
   -1.0240   -2.7796   -1.2235 N   0  0  0  0  0  0  0  0  0  0  0  0
   -0.3748   -0.6158   -0.2055 C   0  0  0  0  0  0  0  0  0  0  0  0
    1.0577   -0.8794   -0.0580 C   0  0  0  0  0  0  0  0  0  0  0  0
    1.5196   -1.9824   -0.4346 O   0  0  0  0  0  0  0  0  0  0  0  0
    1.9051    0.0926    0.4991 N   0  0  0  0  0  0  0  0  0  0  0  0
    3.3277   -0.1252    0.6639 C   0  0  0  0  0  0  0  0  0  0  0  0
    3.9484   -0.3836   -0.7022 C   0  0  0  0  0  0  0  0  0  0  0  0
    5.4057   -0.6123   -0.5823 C   0  0  0  0  0  0  0  0  0  0  0  0
    5.8365   -1.9020   -0.3952 C   0  0  0  0  0  0  0  0  0  0  0  0
    7.1739   -2.1995   -0.2742 C   0  0  0  0  0  0  0  0  0  0  0  0
    8.0776   -1.1679   -0.3454 C   0  0  0  0  0  0  0  0  0  0  0  0
    7.6819    0.1317   -0.5315 C   0  0  0  0  0  0  0  0  0  0  0  0
    6.3352    0.4036   -0.6499 C   0  0  0  0  0  0  0  0  0  0  0  0
   -1.0302    0.5351    0.1563 C   0  0  0  0  0  0  0  0  0  0  0  0
   -0.5987    1.6994    0.7188 N   0  0  0  0  0  0  0  0  0  0  0  0
   -1.4713    2.6749    0.9686 C   0  0  0  0  0  0  0  0  0  0  0  0
   -1.0253    3.8552    1.5404 C   0  0  0  0  0  0  0  0  0  0  0  0
   -1.8671    4.9098    1.8285 C   0  0  0  0  0  0  0  0  0  0  0  0
   -3.2041    4.7400    1.5177 C   0  0  0  0  0  0  0  0  0  0  0  0
   -3.6826    3.5711    0.9447 C   0  0  0  0  0  0  0  0  0  0  0  0
   -2.8047    2.5394    0.6726 C   0  0  0  0  0  0  0  0  0  0  0  0
   -3.2187    1.3713    0.1116 N   0  0  0  0  0  0  0  0  0  0  0  0
   -2.3561    0.3851   -0.1443 C   0  0  0  0  0  0  0  0  0  0  0  0
  1  2  1  0
  2  3  1  0
  2  4  1  0
  4  5  1  0
  5  6  1  0
  6  7  1  0
  7  8  1  0
  7  9  2  0
  9 10  1  0
 10 11  2  0
 10 12  1  0
 12 13  1  0
 13 14  1  0
 14 15  1  0
 15 16  2  0
 16 17  1  0
 17 18  2  0
 18 19  1  0
 19 20  2  0
  9 21  1  0
 21 22  2  0
 22 23  1  0
 23 24  2  0
 24 25  1  0
 25 26  2  0
 26 27  1  0
 27 28  2  0
 28 29  1  0
 29 30  2  0
 30  6  1  0
 20 15  1  0
 30 21  1  0
 28 23  1  0
M  END
>  <zinc_id>  (1) 
ZINC000002370150

>  <smiles>  (1) 
CC(C)CCn1c(N)c(C(=O)NCCc2ccccc2)c2nc3ccccc3nc21

$$$$
