
     RDKit          3D

 31 34  0  0  0  0  0  0  0  0999 V2000
    8.0340   -1.4347   -3.1618 C   0  0  0  0  0  0  0  0  0  0  0  0
    7.0848   -2.1898   -2.3895 N   0  0  0  0  0  0  0  0  0  0  0  0
    7.4443   -3.5759   -2.2481 C   0  0  0  0  0  0  0  0  0  0  0  0
    6.7607   -1.5567   -1.1316 C   0  0  0  0  0  0  0  0  0  0  0  0
    5.7876   -2.3408   -0.3508 C   0  0  0  0  0  0  0  0  0  0  0  0
    4.4534   -2.5929   -0.8999 C   0  0  0  0  0  0  0  0  0  0  0  0
    3.5791   -1.5474   -1.1763 N   0  0  0  0  0  0  0  0  0  0  0  0
    3.6731   -0.4532   -2.0442 C   0  0  0  0  0  0  0  0  0  0  0  0
    4.7254   -0.1956   -2.8440 N   0  0  0  0  0  0  0  0  0  0  0  0
    4.8194    0.8386   -3.6695 C   0  0  0  0  0  0  0  0  0  0  0  0
    3.7806    1.7311   -3.7353 C   0  0  0  0  0  0  0  0  0  0  0  0
    2.6780    1.5139   -2.9366 C   0  0  0  0  0  0  0  0  0  0  0  0
    2.5922    0.4414   -2.0872 C   0  0  0  0  0  0  0  0  0  0  0  0
    1.4464    0.1792   -1.2299 C   0  0  0  0  0  0  0  0  0  0  0  0
    1.3882   -0.8116   -0.4573 O   0  0  0  0  0  0  0  0  0  0  0  0
    0.3033    1.0407   -1.2122 N   0  0  0  0  0  0  0  0  0  0  0  0
   -0.8245    0.7985   -0.3802 C   0  0  0  0  0  0  0  0  0  0  0  0
   -1.8604    1.7055   -0.4584 C   0  0  0  0  0  0  0  0  0  0  0  0
   -2.9924    1.5443    0.3156 C   0  0  0  0  0  0  0  0  0  0  0  0
   -3.1047    0.4799    1.1742 C   0  0  0  0  0  0  0  0  0  0  0  0
   -4.3219    0.3578    1.9683 C   0  0  0  0  0  0  0  0  0  0  0  0
   -4.5923   -0.6518    2.8774 C   0  0  0  0  0  0  0  0  0  0  0  0
   -5.8381   -0.3949    3.4053 C   0  0  0  0  0  0  0  0  0  0  0  0
   -6.6580   -0.9923    4.3243 C   0  0  0  0  0  0  0  0  0  0  0  0
   -7.9006   -0.5100    4.6823 C   0  0  0  0  0  0  0  0  0  0  0  0
   -8.3276    0.6545    4.0605 C   0  0  0  0  0  0  0  0  0  0  0  0
   -7.5168    1.2712    3.1323 C   0  0  0  0  0  0  0  0  0  0  0  0
   -6.2727    0.7587    2.7960 C   0  0  0  0  0  0  0  0  0  0  0  0
   -5.3503    1.1638    1.9612 O   0  0  0  0  0  0  0  0  0  0  0  0
   -2.0743   -0.4108    1.2434 C   0  0  0  0  0  0  0  0  0  0  0  0
   -0.9159   -0.2734    0.4719 C   0  0  0  0  0  0  0  0  0  0  0  0
  1  2  1  0
  2  3  1  0
  2  4  1  0
  4  5  1  0
  5  6  1  0
  6  7  1  0
  7  8  1  0
  8  9  2  0
  9 10  1  0
 10 11  2  0
 11 12  1  0
 12 13  2  0
 13 14  1  0
 14 15  2  0
 14 16  1  0
 16 17  1  0
 17 18  2  0
 18 19  1  0
 19 20  2  0
 20 21  1  0
 21 22  2  0
 22 23  1  0
 23 24  2  0
 24 25  1  0
 25 26  2  0
 26 27  1  0
 27 28  2  0
 28 29  1  0
 20 30  1  0
 30 31  2  0
 13  8  1  0
 31 17  1  0
 29 21  1  0
 28 23  1  0
M  END
>  <zinc_id>  (1) 
ZINC000003938562

>  <smiles>  (1) 
CN(C)CCCNc1ncccc1C(=O)Nc1ccc(-c2cc3ccccc3o2)cc1

$$$$
