
     RDKit          3D

 32 36  0  0  0  0  0  0  0  0999 V2000
   -2.5621    6.8489    0.7205 C   0  0  0  0  0  0  0  0  0  0  0  0
   -1.9186    5.5295    0.4352 C   0  0  0  0  0  0  0  0  0  0  0  0
   -2.1739    4.7565   -0.5912 N   0  0  0  0  0  0  0  0  0  0  0  0
   -1.5546    3.6198   -0.7491 C   0  0  0  0  0  0  0  0  0  0  0  0
   -1.8443    2.7521   -1.9727 C   0  0  0  0  0  0  0  0  0  0  0  0
   -0.6327    3.2525    0.1826 C   0  0  0  0  0  0  0  0  0  0  0  0
    0.2267    2.1110    0.4093 C   0  0  0  0  0  0  0  0  0  0  0  0
    1.0327    2.2587    1.4426 O   0  0  0  0  0  0  0  0  0  0  0  0
    0.3379    0.9306   -0.2582 N   0  0  0  0  0  0  0  0  0  0  0  0
    1.3663   -0.0458    0.1845 C   0  0  0  0  0  0  0  0  0  0  0  0
    2.6289    0.2706   -0.5906 C   0  0  0  0  0  0  0  0  0  0  0  0
    3.7064   -0.6725   -0.1961 C   0  0  0  0  0  0  0  0  0  0  0  0
    4.7990   -0.4566    0.6236 C   0  0  0  0  0  0  0  0  0  0  0  0
    5.5281   -1.5829    0.7163 N   0  0  0  0  0  0  0  0  0  0  0  0
    4.9395   -2.5585   -0.0325 C   0  0  0  0  0  0  0  0  0  0  0  0
    5.2983   -3.8676   -0.2570 C   0  0  0  0  0  0  0  0  0  0  0  0
    4.5086   -4.6367   -1.0691 C   0  0  0  0  0  0  0  0  0  0  0  0
    3.3881   -4.0935   -1.6362 C   0  0  0  0  0  0  0  0  0  0  0  0
    3.0402   -2.7870   -1.4050 C   0  0  0  0  0  0  0  0  0  0  0  0
    3.8025   -1.9932   -0.6029 C   0  0  0  0  0  0  0  0  0  0  0  0
   -0.4796    0.4725   -1.3306 C   0  0  0  0  0  0  0  0  0  0  0  0
   -1.6453   -0.3286   -0.8595 C   0  0  0  0  0  0  0  0  0  0  0  0
   -2.6319   -0.9037   -1.6298 C   0  0  0  0  0  0  0  0  0  0  0  0
   -3.5194   -1.5548   -0.8209 C   0  0  0  0  0  0  0  0  0  0  0  0
   -4.6649   -2.2815   -1.0541 C   0  0  0  0  0  0  0  0  0  0  0  0
   -5.3794   -2.8405   -0.0156 C   0  0  0  0  0  0  0  0  0  0  0  0
   -4.9229   -2.6585    1.2850 C   0  0  0  0  0  0  0  0  0  0  0  0
   -3.7706   -1.9266    1.5104 C   0  0  0  0  0  0  0  0  0  0  0  0
   -3.0615   -1.3705    0.4646 C   0  0  0  0  0  0  0  0  0  0  0  0
   -1.9234   -0.6241    0.4215 N   0  0  0  0  0  0  0  0  0  0  0  0
   -1.1853   -0.2491    1.6165 C   0  0  0  0  0  0  0  0  0  0  0  0
   -0.7325    4.6297    1.2559 S   0  0  0  0  0  0  0  0  0  0  0  0
  1  2  1  0
  2  3  2  0
  3  4  1  0
  4  5  1  0
  4  6  2  0
  6  7  1  0
  7  8  2  0
  7  9  1  0
  9 10  1  0
 10 11  1  0
 11 12  1  0
 12 13  2  0
 13 14  1  0
 14 15  1  0
 15 16  2  0
 16 17  1  0
 17 18  2  0
 18 19  1  0
 19 20  2  0
  9 21  1  0
 21 22  1  0
 22 23  2  0
 23 24  1  0
 24 25  2  0
 25 26  1  0
 26 27  2  0
 27 28  1  0
 28 29  2  0
 29 30  1  0
 30 31  1  0
  6 32  1  0
 32  2  1  0
 20 12  1  0
 30 22  1  0
 20 15  1  0
 29 24  1  0
M  END
>  <zinc_id>  (1) 
ZINC000004184769

>  <smiles>  (1) 
Cc1nc(C)c(C(=O)N(CCc2c[nH]c3ccccc23)Cc2cc3ccccc3n2C)s1

$$$$
