
     RDKit          3D

 33 35  0  0  0  0  0  0  0  0999 V2000
   -2.0344    1.8473   -3.7561 C   0  0  0  0  0  0  0  0  0  0  0  0
   -0.7715    1.3187   -3.1848 C   0  0  0  0  0  0  0  0  0  0  0  0
   -0.6625    0.0434   -2.5847 C   0  0  0  0  0  0  0  0  0  0  0  0
   -1.2612   -0.5465   -1.4532 C   0  0  0  0  0  0  0  0  0  0  0  0
   -1.1992   -0.2017   -0.1339 N   0  0  0  0  0  0  0  0  0  0  0  0
   -2.1092    0.6219    0.5407 C   0  0  0  0  0  0  0  0  0  0  0  0
   -1.9558    0.9733    1.7757 O   0  0  0  0  0  0  0  0  0  0  0  0
   -3.3196    1.1683   -0.0486 C   0  0  0  0  0  0  0  0  0  0  0  0
   -3.7659    0.7569   -1.2799 C   0  0  0  0  0  0  0  0  0  0  0  0
   -4.9489    1.2465   -1.8180 C   0  0  0  0  0  0  0  0  0  0  0  0
   -5.7315    2.1567   -1.1626 C   0  0  0  0  0  0  0  0  0  0  0  0
   -5.2992    2.5926    0.0948 C   0  0  0  0  0  0  0  0  0  0  0  0
   -4.1271    2.0972    0.6115 C   0  0  0  0  0  0  0  0  0  0  0  0
   -3.7280    2.5597    1.8775 O   0  0  0  0  0  0  0  0  0  0  0  0
   -0.1260   -0.7435    0.8750 C   0  0  2  0  0  0  0  0  0  0  0  0
    1.0951    0.1395    0.2352 C   0  0  0  0  0  0  0  0  0  0  0  0
    0.8925    0.9675   -0.5887 O   0  0  0  0  0  0  0  0  0  0  0  0
    2.3358   -0.1835    0.7500 N   0  0  0  0  0  0  0  0  0  0  0  0
    3.5627    0.3512    0.4226 C   0  0  0  0  0  0  0  0  0  0  0  0
    4.5843    0.0669    1.3700 C   0  0  0  0  0  0  0  0  0  0  0  0
    4.2035   -0.7296    2.5904 C   0  0  0  0  0  0  0  0  0  0  0  0
    5.8740    0.4838    1.2194 C   0  0  0  0  0  0  0  0  0  0  0  0
    6.2126    1.2133    0.1044 C   0  0  0  0  0  0  0  0  0  0  0  0
    5.2677    1.5061   -0.8240 C   0  0  0  0  0  0  0  0  0  0  0  0
    3.9515    1.0713   -0.6562 C   0  0  0  0  0  0  0  0  0  0  0  0
    3.0143    1.4143   -1.7396 C   0  0  0  0  0  0  0  0  0  0  0  0
    0.1876   -2.1139    0.1579 C   0  0  0  0  0  0  0  0  0  0  0  0
    1.4575   -2.4887   -0.0992 C   0  0  0  0  0  0  0  0  0  0  0  0
    1.7272   -3.6551   -0.7629 C   0  0  0  0  0  0  0  0  0  0  0  0
    0.6855   -4.4704   -1.1811 C   0  0  0  0  0  0  0  0  0  0  0  0
   -0.6009   -4.0727   -0.9094 C   0  0  0  0  0  0  0  0  0  0  0  0
   -0.8620   -2.8752   -0.2277 C   0  0  0  0  0  0  0  0  0  0  0  0
   -2.5490   -2.5154    0.1103 Cl  0  0  0  0  0  0  0  0  0  0  0  0
  1  2  1  0
  2  3  1  0
  3  4  1  0
  4  5  1  0
  5  6  1  0
  6  7  2  0
  6  8  1  0
  8  9  2  0
  9 10  1  0
 10 11  2  0
 11 12  1  0
 12 13  2  0
 13 14  1  0
  5 15  1  0
 15 16  1  6
 16 17  2  0
 16 18  1  0
 18 19  1  0
 19 20  2  0
 20 21  1  0
 20 22  1  0
 22 23  2  0
 23 24  1  0
 24 25  2  0
 25 26  1  0
 15 27  1  0
 27 28  2  0
 28 29  1  0
 29 30  2  0
 30 31  1  0
 31 32  2  0
 32 33  1  0
 13  8  1  0
 25 19  1  0
 32 27  1  0
M  END
>  <zinc_id>  (1) 
ZINC000003147006

>  <smiles>  (1) 
CCCCN(C(=O)c1ccccc1O)[C@H](C(=O)Nc1c(C)cccc1C)c1ccccc1Cl

$$$$
