
     RDKit          3D

 31 35  0  0  0  0  0  0  0  0999 V2000
   -5.2847   -1.6080   -1.9438 O   0  0  0  0  0  0  0  0  0  0  0  0
   -4.2377   -1.4209   -1.0544 C   0  0  0  0  0  0  0  0  0  0  0  0
   -2.9845   -1.1776   -1.5854 C   0  0  0  0  0  0  0  0  0  0  0  0
   -1.9023   -0.9835   -0.7459 C   0  0  0  0  0  0  0  0  0  0  0  0
   -2.1249   -1.0419    0.5741 C   0  0  0  0  0  0  0  0  0  0  0  0
   -3.3425   -1.2793    1.1864 C   0  0  0  0  0  0  0  0  0  0  0  0
   -4.3987   -1.4684    0.3238 C   0  0  0  0  0  0  0  0  0  0  0  0
   -3.3651   -1.3001    2.5538 O   0  0  0  0  0  0  0  0  0  0  0  0
   -2.5742   -0.6047    3.4457 C   0  0  0  0  0  0  0  0  0  0  0  0
   -1.6014    0.4097    2.5867 C   0  0  2  0  0  0  0  0  0  0  0  0
   -2.6898    1.0939    1.7583 C   0  0  0  0  0  0  0  0  0  0  0  0
   -3.9652    1.3388    2.1547 C   0  0  0  0  0  0  0  0  0  0  0  0
   -4.9000    1.9687    1.3776 C   0  0  0  0  0  0  0  0  0  0  0  0
   -4.4986    2.3658    0.1287 C   0  0  0  0  0  0  0  0  0  0  0  0
   -3.2399    2.1607   -0.3493 C   0  0  0  0  0  0  0  0  0  0  0  0
   -2.3577    1.5139    0.5081 C   0  0  0  0  0  0  0  0  0  0  0  0
   -1.0343   -0.8766    1.6773 C   0  0  2  0  0  0  0  0  0  0  0  0
    0.0736   -0.1696    0.8323 C   0  0  0  0  0  0  0  0  0  0  0  0
    0.4089    1.0887    0.8257 C   0  0  0  0  0  0  0  0  0  0  0  0
    1.4274    1.5205   -0.0011 C   0  0  0  0  0  0  0  0  0  0  0  0
    2.1137    0.6618   -0.8318 C   0  0  0  0  0  0  0  0  0  0  0  0
    3.4373    1.1947   -1.9101 S   0  0  0  0  0  0  0  0  0  0  0  0
    4.1216   -0.1597   -2.8576 C   0  0  0  0  0  0  0  0  0  0  0  0
    4.8260   -1.1821   -2.0043 C   0  0  0  0  0  0  0  0  0  0  0  0
    5.9167   -0.5809   -1.2847 N   0  0  0  0  0  0  0  0  0  0  0  0
    6.5978   -1.5534   -0.4597 C   0  0  0  0  0  0  0  0  0  0  0  0
    7.9837   -0.9921   -0.2904 C   0  0  0  0  0  0  0  0  0  0  0  0
    8.2364   -0.3027   -1.5949 C   0  0  0  0  0  0  0  0  0  0  0  0
    6.8948   -0.0864   -2.2316 C   0  0  0  0  0  0  0  0  0  0  0  0
    1.7404   -0.6670   -0.8072 C   0  0  0  0  0  0  0  0  0  0  0  0
    0.7234   -1.0958    0.0189 C   0  0  0  0  0  0  0  0  0  0  0  0
  1  2  1  0
  2  3  2  0
  3  4  1  0
  4  5  2  0
  5  6  1  0
  6  7  2  0
  6  8  1  0
  8  9  1  0
  9 10  1  0
 10 11  1  6
 11 12  2  0
 12 13  1  0
 13 14  2  0
 14 15  1  0
 15 16  2  0
 10 17  1  0
 17 18  1  6
 18 19  2  0
 19 20  1  0
 20 21  2  0
 21 22  1  0
 22 23  1  0
 23 24  1  0
 24 25  1  0
 25 26  1  0
 26 27  1  0
 27 28  1  0
 28 29  1  0
 21 30  1  0
 30 31  2  0
  7  2  1  0
 16 11  1  0
 31 18  1  0
 17  5  1  0
 29 25  1  0
M  END
>  <zinc_id>  (1) 
ZINC000003965077

>  <smiles>  (1) 
Oc1ccc2c(c1)OC[C@H](c1ccccc1)[C@@H]2c1ccc(SCCN2CCCC2)cc1

$$$$
