
     RDKit          3D

 32 36  0  0  0  0  0  0  0  0999 V2000
   -7.4940   -0.0780   -2.1070 C   0  0  0  0  0  0  0  0  0  0  0  0
   -6.1132   -0.5179   -2.5980 C   0  0  0  0  0  0  0  0  0  0  0  0
   -6.0846   -0.5012   -4.1137 C   0  0  0  0  0  0  0  0  0  0  0  0
   -5.8253   -1.9330   -2.0799 C   0  0  0  0  0  0  0  0  0  0  0  0
   -5.8680   -1.8453   -0.6698 O   0  0  0  0  0  0  0  0  0  0  0  0
   -4.9463   -0.9645   -0.0505 C   0  0  0  0  0  0  0  0  0  0  0  0
   -4.0567   -0.2343   -0.7966 C   0  0  0  0  0  0  0  0  0  0  0  0
   -3.1724    0.6130   -0.1767 C   0  0  0  0  0  0  0  0  0  0  0  0
   -3.1639    0.7371    1.1267 C   0  0  0  0  0  0  0  0  0  0  0  0
   -2.1596    1.7076    1.9217 C   0  0  2  0  0  0  0  0  0  0  0  0
   -2.3216    2.9691    0.9941 N   0  0  0  0  0  0  0  0  0  0  0  0
   -1.9798    2.6605   -0.3179 C   0  0  0  0  0  0  0  0  0  0  0  0
   -0.4666    2.7156   -0.4038 C   0  0  0  0  0  0  0  0  0  0  0  0
   -0.0583    1.5642    0.4227 C   0  0  0  0  0  0  0  0  0  0  0  0
   -0.8056    1.1343    1.4352 C   0  0  0  0  0  0  0  0  0  0  0  0
   -0.1724    0.0924    1.9778 N   0  0  0  0  0  0  0  0  0  0  0  0
    0.9880   -0.1494    1.3115 C   0  0  0  0  0  0  0  0  0  0  0  0
    2.0172   -1.0621    1.4159 C   0  0  0  0  0  0  0  0  0  0  0  0
    3.1044   -1.0638    0.5676 C   0  0  0  0  0  0  0  0  0  0  0  0
    3.1909   -0.1264   -0.4337 C   0  0  0  0  0  0  0  0  0  0  0  0
    4.2449   -0.0511   -1.3328 O   0  0  0  0  0  0  0  0  0  0  0  0
    5.3501   -0.8984   -1.3528 C   0  0  0  0  0  0  0  0  0  0  0  0
    6.1586   -0.9013   -0.1330 C   0  0  0  0  0  0  0  0  0  0  0  0
    5.8825   -1.7893    0.8792 C   0  0  0  0  0  0  0  0  0  0  0  0
    6.6220   -1.8176    2.0362 C   0  0  0  0  0  0  0  0  0  0  0  0
    7.6700   -0.9495    2.2160 C   0  0  0  0  0  0  0  0  0  0  0  0
    7.9670   -0.0506    1.2176 C   0  0  0  0  0  0  0  0  0  0  0  0
    7.2268   -0.0326    0.0762 C   0  0  0  0  0  0  0  0  0  0  0  0
    2.1678    0.8090   -0.5655 C   0  0  0  0  0  0  0  0  0  0  0  0
    1.0944    0.7915    0.2911 C   0  0  0  0  0  0  0  0  0  0  0  0
   -4.0419    0.0212    1.9170 C   0  0  0  0  0  0  0  0  0  0  0  0
   -4.9545   -0.8491    1.3245 C   0  0  0  0  0  0  0  0  0  0  0  0
  1  2  1  0
  2  3  1  0
  2  4  1  0
  4  5  1  0
  5  6  1  0
  6  7  2  0
  7  8  1  0
  8  9  2  0
 10  9  1  6
 10 11  1  0
 11 12  1  0
 12 13  1  0
 13 14  1  0
 14 15  2  0
 15 16  1  0
 16 17  1  0
 17 18  2  0
 18 19  1  0
 19 20  2  0
 20 21  1  0
 21 22  1  0
 22 23  1  0
 23 24  2  0
 24 25  1  0
 25 26  2  0
 26 27  1  0
 27 28  2  0
 20 29  1  0
 29 30  2  0
  9 31  1  0
 31 32  2  0
 32  6  1  0
 15 10  1  0
 30 17  1  0
 30 14  1  0
 28 23  1  0
M  END
>  <zinc_id>  (1) 
ZINC000003738250

>  <smiles>  (1) 
CC(C)COc1ccc([C@@H]2NCCc3c2[nH]c2ccc(OCc4ccccc4)cc32)cc1

$$$$
