
     RDKit          3D

 31 34  0  0  0  0  0  0  0  0999 V2000
   -3.3563    4.2152    1.8404 C   0  0  0  0  0  0  0  0  0  0  0  0
   -2.8248    2.9595    1.2398 C   0  0  0  0  0  0  0  0  0  0  0  0
   -1.8188    2.2174    1.8270 C   0  0  0  0  0  0  0  0  0  0  0  0
   -1.3760    1.0605    1.2098 C   0  0  0  0  0  0  0  0  0  0  0  0
   -1.8925    0.5968    0.0176 C   0  0  0  0  0  0  0  0  0  0  0  0
   -1.3986   -0.6022   -0.5745 N   0  0  0  0  0  0  0  0  0  0  0  0
   -0.2173   -0.7823   -1.2201 C   0  0  0  0  0  0  0  0  0  0  0  0
    0.9258    0.5537   -1.4183 S   0  0  0  0  0  0  0  0  0  0  0  0
    2.3985    0.3219   -2.2163 C   0  0  0  0  0  0  0  0  0  0  0  0
    3.4527   -0.6763   -1.4031 C   0  0  2  0  0  0  0  0  0  0  0  0
    2.4805   -1.8632   -1.4391 O   0  0  0  0  0  0  0  0  0  0  0  0
    2.9486   -0.2041    0.1273 C   0  0  0  0  0  0  0  0  0  0  0  0
    3.7238    0.9178    0.4066 O   0  0  0  0  0  0  0  0  0  0  0  0
    5.0989    0.7936    0.4341 C   0  0  0  0  0  0  0  0  0  0  0  0
    5.7140   -0.3998    0.1946 C   0  0  0  0  0  0  0  0  0  0  0  0
    7.0819   -0.4857    0.2303 C   0  0  0  0  0  0  0  0  0  0  0  0
    7.8392    0.6255    0.5064 C   0  0  0  0  0  0  0  0  0  0  0  0
    7.2024    1.8266    0.7467 C   0  0  0  0  0  0  0  0  0  0  0  0
    5.8454    1.9180    0.7127 C   0  0  0  0  0  0  0  0  0  0  0  0
   -0.1535   -2.0630   -1.6191 N   0  0  0  0  0  0  0  0  0  0  0  0
   -1.2613   -2.6748   -1.2376 N   0  0  0  0  0  0  0  0  0  0  0  0
   -2.0360   -1.7857   -0.5933 C   0  0  0  0  0  0  0  0  0  0  0  0
   -3.3679   -2.0347    0.0039 C   0  0  0  0  0  0  0  0  0  0  0  0
   -3.9428   -3.2832   -0.0687 C   0  0  0  0  0  0  0  0  0  0  0  0
   -5.1760   -3.5515    0.4734 C   0  0  0  0  0  0  0  0  0  0  0  0
   -5.8375   -2.5242    1.1034 C   0  0  0  0  0  0  0  0  0  0  0  0
   -5.2826   -1.2702    1.1877 C   0  0  0  0  0  0  0  0  0  0  0  0
   -4.0421   -1.0141    0.6384 C   0  0  0  0  0  0  0  0  0  0  0  0
   -2.8963    1.3583   -0.5462 C   0  0  0  0  0  0  0  0  0  0  0  0
   -3.3675    2.5281    0.0458 C   0  0  0  0  0  0  0  0  0  0  0  0
   -4.4642    3.3222   -0.6097 C   0  0  0  0  0  0  0  0  0  0  0  0
  1  2  1  0
  2  3  2  0
  3  4  1  0
  4  5  2  0
  5  6  1  0
  6  7  1  0
  7  8  1  0
  8  9  1  0
  9 10  1  0
 10 11  1  6
 10 12  1  0
 12 13  1  0
 13 14  1  0
 14 15  2  0
 15 16  1  0
 16 17  2  0
 17 18  1  0
 18 19  2  0
  7 20  2  0
 20 21  1  0
 21 22  2  0
 22 23  1  0
 23 24  2  0
 24 25  1  0
 25 26  2  0
 26 27  1  0
 27 28  2  0
  5 29  1  0
 29 30  2  0
 30 31  1  0
 30  2  1  0
 22  6  1  0
 28 23  1  0
 19 14  1  0
M  END
>  <zinc_id>  (1) 
ZINC000003323944

>  <smiles>  (1) 
Cc1ccc(-n2c(SC[C@H](O)COc3ccccc3)nnc2-c2ccccc2)cc1C

$$$$
