
     RDKit          3D

 30 34  0  0  0  0  0  0  0  0999 V2000
    5.8426    3.3982   -1.1551 C   0  0  0  0  0  0  0  0  0  0  0  0
    7.0319    2.5766   -0.7019 C   0  0  0  0  0  0  0  0  0  0  0  0
    6.9304    1.2731   -1.1673 O   0  0  0  0  0  0  0  0  0  0  0  0
    5.8678    0.4075   -0.8515 C   0  0  0  0  0  0  0  0  0  0  0  0
    5.8440   -0.8734   -1.3566 C   0  0  0  0  0  0  0  0  0  0  0  0
    4.7837   -1.7395   -1.0425 C   0  0  0  0  0  0  0  0  0  0  0  0
    3.7694   -1.2885   -0.2226 C   0  0  0  0  0  0  0  0  0  0  0  0
    2.6237   -2.3581    0.0625 C   0  0  1  0  0  0  0  0  0  0  0  0
    2.5284   -2.0903    1.6270 N   0  0  0  0  0  0  0  0  0  0  0  0
    1.4445   -2.9374    2.0423 C   0  0  0  0  0  0  0  0  0  0  0  0
    0.1721   -2.1449    1.7768 C   0  0  0  0  0  0  0  0  0  0  0  0
    0.3032   -1.4295    0.4555 C   0  0  0  0  0  0  0  0  0  0  0  0
    1.3838   -1.5023   -0.3355 C   0  0  0  0  0  0  0  0  0  0  0  0
    1.1800   -0.7708   -1.4029 N   0  0  0  0  0  0  0  0  0  0  0  0
   -0.0524   -0.1820   -1.3578 C   0  0  0  0  0  0  0  0  0  0  0  0
   -0.7669    0.6605   -2.1809 C   0  0  0  0  0  0  0  0  0  0  0  0
   -2.0323    1.1018   -1.8579 C   0  0  0  0  0  0  0  0  0  0  0  0
   -2.6074    0.6931   -0.6786 C   0  0  0  0  0  0  0  0  0  0  0  0
   -3.8696    1.0827   -0.2707 O   0  0  0  0  0  0  0  0  0  0  0  0
   -4.4174    0.6338    0.9537 C   0  0  0  0  0  0  0  0  0  0  0  0
   -5.7577    1.2146    1.1038 C   0  0  0  0  0  0  0  0  0  0  0  0
   -6.8366    0.5380    0.6168 C   0  0  0  0  0  0  0  0  0  0  0  0
   -8.0985    1.1048    0.7687 C   0  0  0  0  0  0  0  0  0  0  0  0
   -8.2720    2.3093    1.3880 C   0  0  0  0  0  0  0  0  0  0  0  0
   -7.1867    2.9825    1.8739 C   0  0  0  0  0  0  0  0  0  0  0  0
   -5.9366    2.4146    1.7201 C   0  0  0  0  0  0  0  0  0  0  0  0
   -1.8837   -0.1476    0.1337 C   0  0  0  0  0  0  0  0  0  0  0  0
   -0.6278   -0.6074   -0.1498 C   0  0  0  0  0  0  0  0  0  0  0  0
    3.8050   -0.0604    0.2536 C   0  0  0  0  0  0  0  0  0  0  0  0
    4.8351    0.7971   -0.0450 C   0  0  0  0  0  0  0  0  0  0  0  0
  1  2  1  0
  2  3  1  0
  3  4  1  0
  4  5  2  0
  5  6  1  0
  6  7  2  0
  8  7  1  6
  8  9  1  0
  9 10  1  0
 10 11  1  0
 11 12  1  0
 12 13  2  0
 13 14  1  0
 14 15  1  0
 15 16  2  0
 16 17  1  0
 17 18  2  0
 18 19  1  0
 19 20  1  0
 20 21  1  0
 21 22  2  0
 22 23  1  0
 23 24  2  0
 24 25  1  0
 25 26  2  0
 18 27  1  0
 27 28  2  0
  7 29  1  0
 29 30  2  0
 30  4  1  0
 13  8  1  0
 28 15  1  0
 28 12  1  0
 26 21  1  0
M  END
>  <zinc_id>  (1) 
ZINC000003735430

>  <smiles>  (1) 
CCOc1ccc([C@H]2NCCc3c2[nH]c2ccc(OCc4ccccc4)cc32)cc1

$$$$
