
     RDKit          3D

 35 38  0  0  0  0  0  0  0  0999 V2000
   -1.9294    7.1980   -3.7248 C   0  0  0  0  0  0  0  0  0  0  0  0
   -0.8098    6.5530   -2.9194 C   0  0  0  0  0  0  0  0  0  0  0  0
   -1.4339    5.8456   -1.7670 C   0  0  0  0  0  0  0  0  0  0  0  0
   -0.4792    5.1476   -0.8603 C   0  0  0  0  0  0  0  0  0  0  0  0
    0.3395    4.0846   -1.5416 C   0  0  0  0  0  0  0  0  0  0  0  0
    1.2542    3.4620   -0.5185 C   0  0  0  0  0  0  0  0  0  0  0  0
    0.4524    2.8663    0.5571 C   0  0  0  0  0  0  0  0  0  0  0  0
    0.4592    1.6108    0.8684 C   0  0  0  0  0  0  0  0  0  0  0  0
    1.1530    0.4624    0.3541 C   0  0  0  0  0  0  0  0  0  0  0  0
    1.0235   -0.6985    0.7997 O   0  0  0  0  0  0  0  0  0  0  0  0
    2.0440    0.6704   -0.7338 N   0  0  0  0  0  0  0  0  0  0  0  0
    2.8241   -0.3395   -1.3789 C   0  0  0  0  0  0  0  0  0  0  0  0
    3.7447   -0.9469   -0.4061 C   0  0  0  0  0  0  0  0  0  0  0  0
    3.7607   -0.5098    0.9020 C   0  0  0  0  0  0  0  0  0  0  0  0
    4.6313   -1.0861    1.7974 C   0  0  0  0  0  0  0  0  0  0  0  0
    5.4788   -2.0912    1.3872 C   0  0  0  0  0  0  0  0  0  0  0  0
    5.4441   -2.5068    0.0850 C   0  0  0  0  0  0  0  0  0  0  0  0
    4.5866   -1.9530   -0.8365 C   0  0  0  0  0  0  0  0  0  0  0  0
    4.5177   -2.3395   -2.1541 O   0  0  0  0  0  0  0  0  0  0  0  0
    5.3741   -3.3681   -2.6048 C   0  0  0  0  0  0  0  0  0  0  0  0
   -0.5300    1.4912    2.1392 C   0  0  2  0  0  0  0  0  0  0  0  0
   -1.4217    0.2894    1.5805 C   0  0  0  0  0  0  0  0  0  0  0  0
   -2.0115    0.2558    0.4016 C   0  0  0  0  0  0  0  0  0  0  0  0
   -2.7709   -0.8249   -0.0079 C   0  0  0  0  0  0  0  0  0  0  0  0
   -2.9420   -1.9168    0.8074 C   0  0  0  0  0  0  0  0  0  0  0  0
   -3.7484   -3.0667    0.3803 C   0  0  0  0  0  0  0  0  0  0  0  0
   -3.7671   -3.3646   -0.9595 C   0  0  0  0  0  0  0  0  0  0  0  0
   -4.5108   -4.4441   -1.4552 C   0  0  0  0  0  0  0  0  0  0  0  0
   -5.2199   -5.1960   -0.5680 C   0  0  0  0  0  0  0  0  0  0  0  0
   -5.2317   -4.9376    0.7757 C   0  0  0  0  0  0  0  0  0  0  0  0
   -4.4817   -3.8594    1.2236 C   0  0  0  0  0  0  0  0  0  0  0  0
   -2.3288   -1.8897    2.0416 C   0  0  0  0  0  0  0  0  0  0  0  0
   -1.5581   -0.7738    2.4360 C   0  0  0  0  0  0  0  0  0  0  0  0
   -1.4449    2.6450    1.7167 O   0  0  0  0  0  0  0  0  0  0  0  0
   -0.4680    3.5311    1.4269 N   0  0  0  0  0  0  0  0  0  0  0  0
  1  2  1  0
  2  3  1  0
  3  4  1  0
  4  5  1  0
  5  6  1  0
  6  7  1  0
  7  8  2  0
  8  9  1  0
  9 10  2  0
  9 11  1  0
 11 12  1  0
 12 13  1  0
 13 14  2  0
 14 15  1  0
 15 16  2  0
 16 17  1  0
 17 18  2  0
 18 19  1  0
 19 20  1  0
  8 21  1  0
 21 22  1  6
 22 23  2  0
 23 24  1  0
 24 25  2  0
 25 26  1  0
 26 27  2  0
 27 28  1  0
 28 29  2  0
 29 30  1  0
 30 31  2  0
 25 32  1  0
 32 33  2  0
 21 34  1  0
 34 35  1  0
 35  7  1  0
 18 13  1  0
 33 22  1  0
 31 26  1  0
M  END
>  <zinc_id>  (1) 
ZINC000002475780

>  <smiles>  (1) 
CCCCCCC1=C(C(=O)NCc2ccccc2OC)[C@H](c2ccc(-c3ccccc3)cc2)ON1

$$$$
