
     RDKit          3D

 33 36  0  0  0  0  0  0  0  0999 V2000
   -5.4679    4.7133    1.2302 C   0  0  0  0  0  0  0  0  0  0  0  0
   -5.3786    4.5811   -0.1726 O   0  0  0  0  0  0  0  0  0  0  0  0
   -4.4081    3.7900   -0.7625 C   0  0  0  0  0  0  0  0  0  0  0  0
   -4.3168    3.6591   -2.1305 C   0  0  0  0  0  0  0  0  0  0  0  0
   -3.3316    2.8580   -2.7006 C   0  0  0  0  0  0  0  0  0  0  0  0
   -2.4233    2.1767   -1.8928 C   0  0  0  0  0  0  0  0  0  0  0  0
   -1.4152    1.3551   -2.4716 N   0  0  0  0  0  0  0  0  0  0  0  0
   -0.4980    0.6921   -1.6175 C   0  0  0  0  0  0  0  0  0  0  0  0
   -0.7827   -0.4511   -0.9701 C   0  0  0  0  0  0  0  0  0  0  0  0
   -2.3106   -1.3615   -1.0302 S   0  0  0  0  0  0  0  0  0  0  0  0
   -2.1679   -2.7965   -0.0064 C   0  0  0  0  0  0  0  0  0  0  0  0
   -1.6975   -3.9504   -0.5974 C   0  0  0  0  0  0  0  0  0  0  0  0
   -1.5370   -5.1319    0.0807 C   0  0  0  0  0  0  0  0  0  0  0  0
   -1.8640   -5.1696    1.4303 C   0  0  0  0  0  0  0  0  0  0  0  0
   -1.7051   -6.4406    2.2097 C   0  0  0  0  0  0  0  0  0  0  0  0
   -2.3345   -4.0067    2.0122 C   0  0  0  0  0  0  0  0  0  0  0  0
   -2.4936   -2.8235    1.3255 C   0  0  0  0  0  0  0  0  0  0  0  0
    0.3913   -0.8322   -0.1944 C   0  0  0  0  0  0  0  0  0  0  0  0
    0.4826   -1.8495    0.5341 O   0  0  0  0  0  0  0  0  0  0  0  0
    1.4279    0.1243   -0.3838 N   0  0  0  0  0  0  0  0  0  0  0  0
    2.7290    0.1320    0.1831 C   0  0  0  0  0  0  0  0  0  0  0  0
    3.6185   -0.9274    0.0614 C   0  0  0  0  0  0  0  0  0  0  0  0
    4.8726   -0.8692    0.6305 C   0  0  0  0  0  0  0  0  0  0  0  0
    5.2991    0.2225    1.3357 C   0  0  0  0  0  0  0  0  0  0  0  0
    6.6460    0.3185    1.9606 C   0  0  0  0  0  0  0  0  0  0  0  0
    7.5382   -0.8185    1.4880 C   0  0  0  0  0  0  0  0  0  0  0  0
    7.2614    1.6433    1.5384 C   0  0  0  0  0  0  0  0  0  0  0  0
    4.4266    1.2813    1.4642 C   0  0  0  0  0  0  0  0  0  0  0  0
    3.1683    1.2312    0.8971 C   0  0  0  0  0  0  0  0  0  0  0  0
    0.8658    1.0844   -1.2811 C   0  0  0  0  0  0  0  0  0  0  0  0
    1.4800    2.1005   -1.6975 O   0  0  0  0  0  0  0  0  0  0  0  0
   -2.5524    2.3374   -0.5305 C   0  0  0  0  0  0  0  0  0  0  0  0
   -3.5227    3.1276    0.0577 C   0  0  0  0  0  0  0  0  0  0  0  0
  1  2  1  0
  2  3  1  0
  3  4  2  0
  4  5  1  0
  5  6  2  0
  6  7  1  0
  7  8  1  0
  8  9  2  0
  9 10  1  0
 10 11  1  0
 11 12  2  0
 12 13  1  0
 13 14  2  0
 14 15  1  0
 14 16  1  0
 16 17  2  0
  9 18  1  0
 18 19  2  0
 18 20  1  0
 20 21  1  0
 21 22  2  0
 22 23  1  0
 23 24  2  0
 24 25  1  0
 25 26  1  0
 25 27  1  0
 24 28  1  0
 28 29  2  0
 20 30  1  0
 30 31  2  0
  6 32  1  0
 32 33  2  0
 33  3  1  0
 30  8  1  0
 17 11  1  0
 29 21  1  0
M  END
>  <zinc_id>  (1) 
ZINC000001954993

>  <smiles>  (1) 
COc1ccc(NC2=C(Sc3ccc(C)cc3)C(=O)N(c3ccc(C(C)C)cc3)C2=O)cc1

$$$$
