
     RDKit          3D

 31 33  0  0  0  0  0  0  0  0999 V2000
    4.8181    2.8677    0.8105 C   0  0  0  0  0  0  0  0  0  0  0  0
    4.7597    1.3528    0.7656 C   0  0  0  0  0  0  0  0  0  0  0  0
    6.0554    0.7149    1.0585 C   0  0  0  0  0  0  0  0  0  0  0  0
    6.1626   -0.7179    1.0534 C   0  0  0  0  0  0  0  0  0  0  0  0
    5.8327   -1.4099   -0.3584 C   0  0  1  0  0  0  0  0  0  0  0  0
    6.1879   -2.9463    0.2300 C   0  0  0  0  0  0  0  0  0  0  0  0
    5.9341   -3.8000   -0.9942 C   0  0  0  0  0  0  0  0  0  0  0  0
    4.2828   -1.5644   -0.1947 C   0  0  0  0  0  0  0  0  0  0  0  0
    3.7572   -2.6108    0.2061 O   0  0  0  0  0  0  0  0  0  0  0  0
    3.4484   -0.4846   -0.5114 N   0  0  0  0  0  0  0  0  0  0  0  0
    2.0441   -0.5394   -0.3922 C   0  0  0  0  0  0  0  0  0  0  0  0
    1.2633    0.5451   -0.6992 C   0  0  0  0  0  0  0  0  0  0  0  0
   -0.1212    0.4220   -0.5582 C   0  0  0  0  0  0  0  0  0  0  0  0
   -0.7497   -0.7184   -0.1307 C   0  0  0  0  0  0  0  0  0  0  0  0
   -2.1946   -0.8333    0.0139 C   0  0  0  0  0  0  0  0  0  0  0  0
   -2.6570   -1.9378    0.4099 O   0  0  0  0  0  0  0  0  0  0  0  0
   -3.0709    0.2179   -0.2660 N   0  0  0  0  0  0  0  0  0  0  0  0
   -2.5433    1.4518   -0.7087 C   0  0  0  0  0  0  0  0  0  0  0  0
   -2.2855    2.4858    0.1446 C   0  0  0  0  0  0  0  0  0  0  0  0
   -1.7673    3.6836   -0.3438 C   0  0  0  0  0  0  0  0  0  0  0  0
   -1.5094    3.8391   -1.6891 C   0  0  0  0  0  0  0  0  0  0  0  0
   -1.7695    2.7984   -2.5427 C   0  0  0  0  0  0  0  0  0  0  0  0
   -2.2809    1.6218   -2.0469 C   0  0  0  0  0  0  0  0  0  0  0  0
   -4.4815    0.0324   -0.1000 C   0  0  0  0  0  0  0  0  0  0  0  0
   -4.9547   -0.6624    0.9823 C   0  0  0  0  0  0  0  0  0  0  0  0
   -6.3144   -0.8458    1.1509 C   0  0  0  0  0  0  0  0  0  0  0  0
   -7.2327   -0.3487    0.2572 C   0  0  0  0  0  0  0  0  0  0  0  0
   -6.7382    0.3501   -0.8299 C   0  0  0  0  0  0  0  0  0  0  0  0
   -5.3787    0.5352   -1.0011 C   0  0  0  0  0  0  0  0  0  0  0  0
    0.0643   -1.8070    0.1753 C   0  0  0  0  0  0  0  0  0  0  0  0
    1.4389   -1.6918    0.0376 C   0  0  0  0  0  0  0  0  0  0  0  0
  1  2  1  0
  2  3  1  0
  3  4  1  0
  5  4  1  1
  5  6  1  0
  6  7  1  0
  5  8  1  0
  8  9  2  0
  8 10  1  0
 10 11  1  0
 11 12  2  0
 12 13  1  0
 13 14  2  0
 14 15  1  0
 15 16  2  0
 15 17  1  0
 17 18  1  0
 18 19  2  0
 19 20  1  0
 20 21  2  0
 21 22  1  0
 22 23  2  0
 17 24  1  0
 24 25  2  0
 25 26  1  0
 26 27  2  0
 27 28  1  0
 28 29  2  0
 14 30  1  0
 30 31  2  0
 31 11  1  0
 23 18  1  0
 29 24  1  0
M  END
>  <zinc_id>  (1) 
ZINC000003101100

>  <smiles>  (1) 
CCCC[C@@H](CC)C(=O)Nc1ccc(C(=O)N(c2ccccc2)c2ccccc2)cc1

$$$$
