
     RDKit          3D

 30 32  0  0  0  0  0  0  0  0999 V2000
   -2.2093   -2.4333   -2.9939 C   0  0  0  0  0  0  0  0  0  0  0  0
   -2.3239   -1.3391   -2.2265 C   0  0  0  0  0  0  0  0  0  0  0  0
   -3.4997   -1.2591   -1.3934 C   0  0  0  0  0  0  0  0  0  0  0  0
   -3.6790   -0.1837   -0.5792 C   0  0  0  0  0  0  0  0  0  0  0  0
   -4.8652   -0.2038    0.2082 C   0  0  0  0  0  0  0  0  0  0  0  0
   -5.4222    0.5721    1.0585 C   0  0  0  0  0  0  0  0  0  0  0  0
   -6.6922    0.2495    1.7113 C   0  0  0  0  0  0  0  0  0  0  0  0
   -7.2511    1.1302    2.5825 C   0  0  0  0  0  0  0  0  0  0  0  0
   -8.4551    0.8243    3.2292 C   0  0  0  0  0  0  0  0  0  0  0  0
   -9.0598   -0.3831    2.9636 C   0  0  0  0  0  0  0  0  0  0  0  0
   -8.5214   -1.2901    2.0891 C   0  0  0  0  0  0  0  0  0  0  0  0
   -7.3318   -0.9514    1.4729 C   0  0  0  0  0  0  0  0  0  0  0  0
   -1.3154   -0.3779   -2.3112 N   0  0  0  0  0  0  0  0  0  0  0  0
   -0.5699    0.1789   -1.2898 N   0  0  0  0  0  0  0  0  0  0  0  0
    0.7262   -0.2188   -0.9230 C   0  0  0  0  0  0  0  0  0  0  0  0
    1.2988   -1.0980   -1.4893 O   0  0  0  0  0  0  0  0  0  0  0  0
    1.2742    0.6366    0.2918 C   0  0  2  0  0  0  0  0  0  0  0  0
    1.7407    1.9319   -0.5586 C   0  0  0  0  0  0  0  0  0  0  0  0
    2.6334    1.6106   -1.5572 O   0  0  0  0  0  0  0  0  0  0  0  0
    3.8710    1.1334   -1.1634 C   0  0  0  0  0  0  0  0  0  0  0  0
    5.0907    1.3730   -1.6769 C   0  0  0  0  0  0  0  0  0  0  0  0
    6.2669    0.8091   -1.1579 C   0  0  0  0  0  0  0  0  0  0  0  0
    6.1766   -0.0296   -0.0701 C   0  0  0  0  0  0  0  0  0  0  0  0
    7.4059   -0.6680    0.5365 C   0  0  0  0  0  0  0  0  0  0  0  0
    7.0310   -1.8845    1.3300 C   0  0  0  0  0  0  0  0  0  0  0  0
    7.9677    0.3412    1.5565 C   0  0  0  0  0  0  0  0  0  0  0  0
    8.4128   -0.9175   -0.5283 C   0  0  0  0  0  0  0  0  0  0  0  0
    4.9271   -0.2690    0.4460 C   0  0  0  0  0  0  0  0  0  0  0  0
    3.7645    0.2793   -0.0564 C   0  0  0  0  0  0  0  0  0  0  0  0
    2.6087   -0.0033    0.4990 O   0  0  0  0  0  0  0  0  0  0  0  0
  1  2  2  0
  2  3  1  0
  3  4  2  0
  4  5  1  0
  5  6  2  0
  6  7  1  0
  7  8  2  0
  8  9  1  0
  9 10  2  0
 10 11  1  0
 11 12  2  0
  2 13  1  0
 13 14  1  0
 14 15  1  0
 15 16  2  0
 17 15  1  6
 17 18  1  0
 18 19  1  0
 19 20  1  0
 20 21  2  0
 21 22  1  0
 22 23  2  0
 23 24  1  0
 24 25  1  0
 24 26  1  0
 24 27  1  0
 23 28  1  0
 28 29  2  0
 29 30  1  0
 12  7  1  0
 30 17  1  0
 29 20  1  0
M  END
>  <zinc_id>  (1) 
ZINC000002312392

>  <smiles>  (1) 
C=C(/C=C/C=C/c1ccccc1)NNC(=O)[C@@H]1COc2ccc(C(C)(C)C)cc2O1

$$$$
