
     RDKit          3D

 32 35  0  0  0  0  0  0  0  0999 V2000
    7.2699   -1.5495   -1.2410 C   0  0  0  0  0  0  0  0  0  0  0  0
    7.7091   -0.4818   -0.2781 C   0  0  0  0  0  0  0  0  0  0  0  0
    7.0906    0.7499   -0.5051 O   0  0  0  0  0  0  0  0  0  0  0  0
    5.6939    0.9051   -0.4404 C   0  0  0  0  0  0  0  0  0  0  0  0
    5.1297    2.1396   -0.6722 C   0  0  0  0  0  0  0  0  0  0  0  0
    3.7670    2.2787   -0.6064 C   0  0  0  0  0  0  0  0  0  0  0  0
    2.9185    1.1978   -0.3084 C   0  0  0  0  0  0  0  0  0  0  0  0
    1.5635    1.5007   -0.2799 N   0  0  0  0  0  0  0  0  0  0  0  0
    0.4620    0.6910   -0.0160 C   0  0  0  0  0  0  0  0  0  0  0  0
   -0.7726    1.1552    0.0911 C   0  0  0  0  0  0  0  0  0  0  0  0
   -1.2359    2.8921   -0.0838 S   0  0  0  0  0  0  0  0  0  0  0  0
   -2.9903    3.0919    0.1190 C   0  0  0  0  0  0  0  0  0  0  0  0
   -3.8800    3.0243   -0.9288 C   0  0  0  0  0  0  0  0  0  0  0  0
   -5.2445    3.1896   -0.6995 C   0  0  0  0  0  0  0  0  0  0  0  0
   -5.7281    3.4212    0.5640 C   0  0  0  0  0  0  0  0  0  0  0  0
   -4.8401    3.4883    1.6078 C   0  0  0  0  0  0  0  0  0  0  0  0
   -3.4894    3.3248    1.3810 C   0  0  0  0  0  0  0  0  0  0  0  0
   -1.7003    0.0704    0.3682 C   0  0  0  0  0  0  0  0  0  0  0  0
   -2.9592    0.1744    0.5280 O   0  0  0  0  0  0  0  0  0  0  0  0
   -0.9623   -1.1555    0.4342 N   0  0  0  0  0  0  0  0  0  0  0  0
   -1.4306   -2.4617    0.6788 C   0  0  0  0  0  0  0  0  0  0  0  0
   -0.9916   -3.1906    1.7552 C   0  0  0  0  0  0  0  0  0  0  0  0
   -1.4635   -4.4903    1.9912 C   0  0  0  0  0  0  0  0  0  0  0  0
   -2.3712   -5.0426    1.1426 C   0  0  0  0  0  0  0  0  0  0  0  0
   -2.8104   -4.3005    0.0571 C   0  0  0  0  0  0  0  0  0  0  0  0
   -2.3424   -3.0248   -0.1682 C   0  0  0  0  0  0  0  0  0  0  0  0
   -2.7960   -2.3121   -1.2532 O   0  0  0  0  0  0  0  0  0  0  0  0
   -3.7384   -2.8182   -2.1794 C   0  0  0  0  0  0  0  0  0  0  0  0
    0.3973   -0.7308    0.1879 C   0  0  0  0  0  0  0  0  0  0  0  0
    1.3232   -1.5706    0.1748 O   0  0  0  0  0  0  0  0  0  0  0  0
    3.5300    0.0075   -0.0896 C   0  0  0  0  0  0  0  0  0  0  0  0
    4.8921   -0.1734   -0.1462 C   0  0  0  0  0  0  0  0  0  0  0  0
  1  2  1  0
  2  3  1  0
  3  4  1  0
  4  5  2  0
  5  6  1  0
  6  7  2  0
  7  8  1  0
  8  9  1  0
  9 10  2  0
 10 11  1  0
 11 12  1  0
 12 13  2  0
 13 14  1  0
 14 15  2  0
 15 16  1  0
 16 17  2  0
 10 18  1  0
 18 19  2  0
 18 20  1  0
 20 21  1  0
 21 22  2  0
 22 23  1  0
 23 24  2  0
 24 25  1  0
 25 26  2  0
 26 27  1  0
 27 28  1  0
 20 29  1  0
 29 30  2  0
  7 31  1  0
 31 32  2  0
 32  4  1  0
 29  9  1  0
 17 12  1  0
 26 21  1  0
M  END
>  <zinc_id>  (1) 
ZINC000001930146

>  <smiles>  (1) 
CCOc1ccc(NC2=C(Sc3ccccc3)C(=O)N(c3ccccc3OC)C2=O)cc1

$$$$
