
     RDKit          3D

 30 33  0  0  0  0  0  0  0  0999 V2000
   -2.8178   -0.7191    0.3007 O   0  0  0  0  0  0  0  0  0  0  0  0
   -3.4907   -0.3505   -0.6839 C   0  0  0  0  0  0  0  0  0  0  0  0
   -4.9045   -0.3443   -0.5843 N   0  0  0  0  0  0  0  0  0  0  0  0
   -5.5143   -0.7623    0.6527 C   0  0  0  0  0  0  0  0  0  0  0  0
   -5.5147    0.4218    1.5791 C   0  0  0  0  0  0  0  0  0  0  0  0
   -6.1981    0.1540    2.8975 C   0  0  0  0  0  0  0  0  0  0  0  0
   -5.7991   -1.2032    3.4477 C   0  0  0  0  0  0  0  0  0  0  0  0
   -4.6078   -1.7776    2.7103 C   0  0  0  0  0  0  0  0  0  0  0  0
   -4.9327   -2.0064    1.2398 C   0  0  0  0  0  0  0  0  0  0  0  0
   -2.7821    0.0591   -1.8986 C   0  0  0  0  0  0  0  0  0  0  0  0
   -3.5136    0.4911   -3.0117 C   0  0  0  0  0  0  0  0  0  0  0  0
   -2.8400    0.8873   -4.1414 C   0  0  0  0  0  0  0  0  0  0  0  0
   -1.4578    0.8503   -4.1547 C   0  0  0  0  0  0  0  0  0  0  0  0
   -0.7836    0.4247   -3.0559 N   0  0  0  0  0  0  0  0  0  0  0  0
   -1.4117    0.0317   -1.9388 C   0  0  0  0  0  0  0  0  0  0  0  0
   -0.6409   -0.4215   -0.8437 N   0  0  0  0  0  0  0  0  0  0  0  0
    0.7996   -0.4233   -0.8880 C   0  0  0  0  0  0  0  0  0  0  0  0
    1.5540   -0.9980    0.1144 C   0  0  0  0  0  0  0  0  0  0  0  0
    2.9419   -0.9721    0.0642 C   0  0  0  0  0  0  0  0  0  0  0  0
    3.6391   -0.3828   -0.9696 C   0  0  0  0  0  0  0  0  0  0  0  0
    5.0141   -0.3247   -1.0736 O   0  0  0  0  0  0  0  0  0  0  0  0
    5.8998   -0.8567   -0.1421 C   0  0  0  0  0  0  0  0  0  0  0  0
    5.7062   -0.2115    1.1771 C   0  0  0  0  0  0  0  0  0  0  0  0
    4.7851    0.8023    1.2810 C   0  0  0  0  0  0  0  0  0  0  0  0
    4.5822    1.4129    2.4744 C   0  0  0  0  0  0  0  0  0  0  0  0
    5.2923    1.0212    3.5723 C   0  0  0  0  0  0  0  0  0  0  0  0
    6.2170    0.0121    3.4907 C   0  0  0  0  0  0  0  0  0  0  0  0
    6.4292   -0.6111    2.2884 C   0  0  0  0  0  0  0  0  0  0  0  0
    2.8623    0.1963   -1.9812 C   0  0  0  0  0  0  0  0  0  0  0  0
    1.4864    0.1663   -1.9226 C   0  0  0  0  0  0  0  0  0  0  0  0
  1  2  2  0
  2  3  1  0
  3  4  1  0
  4  5  1  0
  5  6  1  0
  6  7  1  0
  7  8  1  0
  8  9  1  0
  2 10  1  0
 10 11  2  0
 11 12  1  0
 12 13  2  0
 13 14  1  0
 14 15  2  0
 15 16  1  0
 16 17  1  0
 17 18  2  0
 18 19  1  0
 19 20  2  0
 20 21  1  0
 21 22  1  0
 22 23  1  0
 23 24  2  0
 24 25  1  0
 25 26  2  0
 26 27  1  0
 27 28  2  0
 20 29  1  0
 29 30  2  0
  9  4  1  0
 15 10  1  0
 30 17  1  0
 28 23  1  0
M  END
>  <zinc_id>  (1) 
ZINC000004217617

>  <smiles>  (1) 
O=C(NC1CCCCC1)c1cccnc1Nc1ccc(OCc2ccccc2)cc1

$$$$
