
     RDKit          3D

 33 37  0  0  0  0  0  0  0  0999 V2000
   -0.9315    1.0150   -1.1668 N   0  0  0  0  0  0  0  0  0  0  0  0
   -1.6070    0.0760   -0.6027 C   0  0  0  0  0  0  0  0  0  0  0  0
   -2.8236   -0.3159   -0.9565 N   0  0  0  0  0  0  0  0  0  0  0  0
   -3.6895    0.1605   -2.0226 C   0  0  0  0  0  0  0  0  0  0  0  0
   -4.4665    1.3790   -1.5944 C   0  0  0  0  0  0  0  0  0  0  0  0
   -5.2921    1.2483   -0.4629 N   0  0  0  0  0  0  0  0  0  0  0  0
   -6.4617    0.4374   -0.5662 C   0  0  0  0  0  0  0  0  0  0  0  0
   -7.2456    0.4155    0.7403 C   0  0  0  0  0  0  0  0  0  0  0  0
   -6.9233    1.5682    1.6437 C   0  0  0  0  0  0  0  0  0  0  0  0
   -5.4567    1.8071    1.8513 C   0  0  0  0  0  0  0  0  0  0  0  0
   -4.5958    1.1638    0.7966 C   0  0  0  0  0  0  0  0  0  0  0  0
   -3.1450   -1.3061   -0.1111 C   0  0  0  0  0  0  0  0  0  0  0  0
   -4.3004   -2.0812   -0.0326 C   0  0  0  0  0  0  0  0  0  0  0  0
   -4.3797   -3.0590    0.9368 C   0  0  0  0  0  0  0  0  0  0  0  0
   -3.3350   -3.2516    1.8052 C   0  0  0  0  0  0  0  0  0  0  0  0
   -2.1908   -2.4881    1.7364 C   0  0  0  0  0  0  0  0  0  0  0  0
   -2.1135   -1.5072    0.7577 C   0  0  0  0  0  0  0  0  0  0  0  0
   -1.1346   -0.6361    0.4557 N   0  0  0  0  0  0  0  0  0  0  0  0
    0.1155   -0.4641    1.1259 C   0  0  0  0  0  0  0  0  0  0  0  0
    1.1858   -1.3014    0.6012 C   0  0  0  0  0  0  0  0  0  0  0  0
    1.0009   -2.5198    0.2957 O   0  0  0  0  0  0  0  0  0  0  0  0
    2.5173   -0.6977    0.4247 C   0  0  0  0  0  0  0  0  0  0  0  0
    3.5728   -1.4405   -0.0139 C   0  0  0  0  0  0  0  0  0  0  0  0
    4.8207   -0.8264   -0.2215 C   0  0  0  0  0  0  0  0  0  0  0  0
    5.0151    0.5079    0.0025 C   0  0  0  0  0  0  0  0  0  0  0  0
    6.3156    1.1212   -0.2481 C   0  0  0  0  0  0  0  0  0  0  0  0
    7.0974    0.6197   -1.2362 C   0  0  0  0  0  0  0  0  0  0  0  0
    8.3248    1.1883   -1.5164 C   0  0  0  0  0  0  0  0  0  0  0  0
    8.7580    2.2790   -0.7824 C   0  0  0  0  0  0  0  0  0  0  0  0
    7.9762    2.7944    0.2184 C   0  0  0  0  0  0  0  0  0  0  0  0
    6.7533    2.2061    0.4796 C   0  0  0  0  0  0  0  0  0  0  0  0
    3.9411    1.2544    0.4478 C   0  0  0  0  0  0  0  0  0  0  0  0
    2.6978    0.6532    0.6590 C   0  0  0  0  0  0  0  0  0  0  0  0
  1  2  2  0
  2  3  1  0
  3  4  1  0
  4  5  1  0
  5  6  1  0
  6  7  1  0
  7  8  1  0
  8  9  1  0
  9 10  1  0
 10 11  1  0
  3 12  1  0
 12 13  2  0
 13 14  1  0
 14 15  2  0
 15 16  1  0
 16 17  2  0
 17 18  1  0
 18 19  1  0
 19 20  1  0
 20 21  2  0
 20 22  1  0
 22 23  2  0
 23 24  1  0
 24 25  2  0
 25 26  1  0
 26 27  2  0
 27 28  1  0
 28 29  2  0
 29 30  1  0
 30 31  2  0
 25 32  1  0
 32 33  2  0
 18  2  1  0
 33 22  1  0
 11  6  1  0
 17 12  1  0
 31 26  1  0
M  END
>  <zinc_id>  (1) 
ZINC000003873537

>  <smiles>  (1) 
N=c1n(CCN2CCCCC2)c2ccccc2n1CC(=O)c1ccc(-c2ccccc2)cc1

$$$$
