
     RDKit          3D

 31 34  0  0  0  0  0  0  0  0999 V2000
   -6.5973    4.3879   -0.7732 C   0  0  0  0  0  0  0  0  0  0  0  0
   -5.6580    3.2469   -0.6043 C   0  0  0  0  0  0  0  0  0  0  0  0
   -4.7577    2.9570   -1.5879 C   0  0  0  0  0  0  0  0  0  0  0  0
   -3.8887    1.9013   -1.4313 C   0  0  0  0  0  0  0  0  0  0  0  0
   -3.8863    1.1086   -0.3053 C   0  0  0  0  0  0  0  0  0  0  0  0
   -2.9421    0.0079   -0.2014 C   0  0  0  0  0  0  0  0  0  0  0  0
   -1.6417    0.1165   -0.5230 N   0  0  0  0  0  0  0  0  0  0  0  0
   -0.8275   -0.9250   -0.4069 N   0  0  0  0  0  0  0  0  0  0  0  0
    0.5673   -0.7610   -0.7654 C   0  0  0  0  0  0  0  0  0  0  0  0
    1.3908   -0.3197    0.4256 C   0  0  0  0  0  0  0  0  0  0  0  0
    2.8103   -0.1748   -0.0286 C   0  0  0  0  0  0  0  0  0  0  0  0
    3.1413   -0.4093   -1.2263 O   0  0  0  0  0  0  0  0  0  0  0  0
    3.8425    0.2297    0.8590 N   0  0  0  0  0  0  0  0  0  0  0  0
    5.1803    0.3519    0.3728 C   0  0  0  0  0  0  0  0  0  0  0  0
    5.4844    0.0830   -0.9456 C   0  0  0  0  0  0  0  0  0  0  0  0
    6.7665    0.1920   -1.4444 C   0  0  0  0  0  0  0  0  0  0  0  0
    7.8144    0.5837   -0.6204 C   0  0  0  0  0  0  0  0  0  0  0  0
    9.1936    0.6988   -1.1660 C   0  0  0  0  0  0  0  0  0  0  0  0
    7.5046    0.8513    0.6967 C   0  0  0  0  0  0  0  0  0  0  0  0
    6.2195    0.7406    1.1910 C   0  0  0  0  0  0  0  0  0  0  0  0
    5.9178    1.0387    2.6265 C   0  0  0  0  0  0  0  0  0  0  0  0
   -1.2556   -2.1217    0.0310 C   0  0  0  0  0  0  0  0  0  0  0  0
   -0.4795   -3.1034    0.1383 O   0  0  0  0  0  0  0  0  0  0  0  0
   -2.5864   -2.3119    0.3826 C   0  0  0  0  0  0  0  0  0  0  0  0
   -3.0502   -3.5293    0.8344 C   0  0  0  0  0  0  0  0  0  0  0  0
   -4.3841   -3.6347    1.1625 C   0  0  0  0  0  0  0  0  0  0  0  0
   -5.2205   -2.5453    1.0377 C   0  0  0  0  0  0  0  0  0  0  0  0
   -4.7473   -1.3299    0.5844 C   0  0  0  0  0  0  0  0  0  0  0  0
   -3.4221   -1.2225    0.2577 C   0  0  0  0  0  0  0  0  0  0  0  0
   -4.8029    1.4142    0.6812 C   0  0  0  0  0  0  0  0  0  0  0  0
   -5.6852    2.4783    0.5334 C   0  0  0  0  0  0  0  0  0  0  0  0
  1  2  1  0
  2  3  2  0
  3  4  1  0
  4  5  2  0
  5  6  1  0
  6  7  2  0
  7  8  1  0
  8  9  1  0
  9 10  1  0
 10 11  1  0
 11 12  2  0
 11 13  1  0
 13 14  1  0
 14 15  2  0
 15 16  1  0
 16 17  2  0
 17 18  1  0
 17 19  1  0
 19 20  2  0
 20 21  1  0
  8 22  1  0
 22 23  2  0
 22 24  1  0
 24 25  2  0
 25 26  1  0
 26 27  2  0
 27 28  1  0
 28 29  2  0
  5 30  1  0
 30 31  2  0
 31  2  1  0
 29  6  1  0
 20 14  1  0
 29 24  1  0
M  END
>  <zinc_id>  (1) 
ZINC000000801804

>  <smiles>  (1) 
Cc1ccc(-c2nn(CCC(=O)Nc3ccc(C)cc3C)c(=O)c3ccccc23)cc1

$$$$
