
     RDKit          3D

 32 36  0  0  0  0  0  0  0  0999 V2000
    1.1985    1.9585   -0.8925 N   0  0  0  0  0  0  0  0  0  0  0  0
    0.4121    0.7918   -0.7099 C   0  0  0  0  0  0  0  0  0  0  0  0
    0.8001   -0.3823   -0.1141 C   0  0  0  0  0  0  0  0  0  0  0  0
    2.1381   -0.6270    0.4493 C   0  0  0  0  0  0  0  0  0  0  0  0
    2.3450   -1.7471    0.9606 O   0  0  0  0  0  0  0  0  0  0  0  0
    3.1552    0.3012    0.4409 O   0  0  0  0  0  0  0  0  0  0  0  0
    4.4432    0.0094    1.0053 C   0  0  0  0  0  0  0  0  0  0  0  0
    5.3562    1.1480    0.8781 C   0  0  0  0  0  0  0  0  0  0  0  0
    5.3978    2.0821    1.8869 C   0  0  0  0  0  0  0  0  0  0  0  0
    6.2368    3.1878    1.8383 C   0  0  0  0  0  0  0  0  0  0  0  0
    7.0668    3.3834    0.7571 C   0  0  0  0  0  0  0  0  0  0  0  0
    7.0300    2.4499   -0.2587 C   0  0  0  0  0  0  0  0  0  0  0  0
    6.1909    1.3524   -0.2005 C   0  0  0  0  0  0  0  0  0  0  0  0
   -0.2655   -1.2355   -0.1522 C   0  0  0  0  0  0  0  0  0  0  0  0
   -0.3950   -2.4872    0.2885 N   0  0  0  0  0  0  0  0  0  0  0  0
   -1.5738   -3.1359    0.1254 C   0  0  0  0  0  0  0  0  0  0  0  0
   -1.7224   -4.4492    0.5833 C   0  0  0  0  0  0  0  0  0  0  0  0
   -2.9339   -5.0715    0.3983 C   0  0  0  0  0  0  0  0  0  0  0  0
   -3.9766   -4.4243   -0.2204 C   0  0  0  0  0  0  0  0  0  0  0  0
   -3.8093   -3.1302   -0.6641 C   0  0  0  0  0  0  0  0  0  0  0  0
   -2.5967   -2.4570   -0.4986 C   0  0  0  0  0  0  0  0  0  0  0  0
   -2.4412   -1.1962   -0.9334 N   0  0  0  0  0  0  0  0  0  0  0  0
   -1.2855   -0.5350   -0.7831 C   0  0  0  0  0  0  0  0  0  0  0  0
   -0.8698    0.6892   -1.1174 N   0  0  0  0  0  0  0  0  0  0  0  0
   -1.6349    1.7538   -1.7920 C   0  0  0  0  0  0  0  0  0  0  0  0
   -2.2720    2.6212   -0.7516 C   0  0  0  0  0  0  0  0  0  0  0  0
   -3.2187    1.8797    0.0965 C   0  0  0  0  0  0  0  0  0  0  0  0
   -3.0639    1.6981    1.4036 C   0  0  0  0  0  0  0  0  0  0  0  0
   -4.1564    0.9058    2.0793 C   0  0  0  0  0  0  0  0  0  0  0  0
   -5.4490    1.6216    1.7551 C   0  0  0  0  0  0  0  0  0  0  0  0
   -5.6590    1.7345    0.2652 C   0  0  0  0  0  0  0  0  0  0  0  0
   -4.4470    1.3098   -0.5298 C   0  0  0  0  0  0  0  0  0  0  0  0
  1  2  1  0
  2  3  2  0
  3  4  1  0
  4  5  2  0
  4  6  1  0
  6  7  1  0
  7  8  1  0
  8  9  2  0
  9 10  1  0
 10 11  2  0
 11 12  1  0
 12 13  2  0
  3 14  1  0
 14 15  2  0
 15 16  1  0
 16 17  2  0
 17 18  1  0
 18 19  2  0
 19 20  1  0
 20 21  2  0
 21 22  1  0
 22 23  2  0
 23 24  1  0
 24 25  1  0
 25 26  1  0
 26 27  1  0
 27 28  2  0
 28 29  1  0
 29 30  1  0
 30 31  1  0
 31 32  1  0
 24  2  1  0
 32 27  1  0
 13  8  1  0
 23 14  1  0
 21 16  1  0
M  END
>  <zinc_id>  (1) 
ZINC000002415267

>  <smiles>  (1) 
Nc1c(C(=O)OCc2ccccc2)c2nc3ccccc3nc2n1CCC1=CCCCC1

$$$$
