
     RDKit          3D

 30 32  0  0  0  0  0  0  0  0999 V2000
   -9.3043    4.1183    1.3162 C   0  0  0  0  0  0  0  0  0  0  0  0
   -8.3899    3.9033    0.2262 O   0  0  0  0  0  0  0  0  0  0  0  0
   -7.3892    2.9249    0.3690 C   0  0  0  0  0  0  0  0  0  0  0  0
   -6.4757    2.6920   -0.6532 C   0  0  0  0  0  0  0  0  0  0  0  0
   -5.4699    1.7334   -0.5445 C   0  0  0  0  0  0  0  0  0  0  0  0
   -5.3491    0.9707    0.6180 C   0  0  0  0  0  0  0  0  0  0  0  0
   -4.2839   -0.0361    0.7779 C   0  0  0  0  0  0  0  0  0  0  0  0
   -3.3536   -0.2656    0.0386 N   0  0  0  0  0  0  0  0  0  0  0  0
   -2.2941   -0.9793   -0.2010 N   0  0  0  0  0  0  0  0  0  0  0  0
   -1.7325   -1.8270   -1.1117 C   0  0  0  0  0  0  0  0  0  0  0  0
   -2.3301   -2.1141   -2.1634 O   0  0  0  0  0  0  0  0  0  0  0  0
   -0.3971   -2.4109   -0.8412 C   0  0  0  0  0  0  0  0  0  0  0  0
    0.3991   -3.1940   -1.6488 C   0  0  0  0  0  0  0  0  0  0  0  0
    1.5716   -3.4897   -0.9375 C   0  0  0  0  0  0  0  0  0  0  0  0
    1.4470   -2.8710    0.2868 C   0  0  0  0  0  0  0  0  0  0  0  0
    2.4000   -2.8569    1.4256 C   0  0  0  0  0  0  0  0  0  0  0  0
    3.6505   -2.5191    1.2083 O   0  0  0  0  0  0  0  0  0  0  0  0
    4.3794   -1.4815    0.7245 C   0  0  0  0  0  0  0  0  0  0  0  0
    3.9114   -0.2763    0.2255 C   0  0  0  0  0  0  0  0  0  0  0  0
    4.7434    0.7407   -0.2324 C   0  0  0  0  0  0  0  0  0  0  0  0
    6.1261    0.5669   -0.2054 C   0  0  0  0  0  0  0  0  0  0  0  0
    6.9812    1.6712   -0.6639 C   0  0  0  0  0  0  0  0  0  0  0  0
    8.4314    1.2929   -0.3147 C   0  0  0  0  0  0  0  0  0  0  0  0
    6.8889    1.9005   -2.1530 C   0  0  0  0  0  0  0  0  0  0  0  0
    6.6885    2.9439    0.1245 C   0  0  0  0  0  0  0  0  0  0  0  0
    6.6195   -0.6389    0.2915 C   0  0  0  0  0  0  0  0  0  0  0  0
    5.7782   -1.6151    0.7324 C   0  0  0  0  0  0  0  0  0  0  0  0
    0.2735   -2.2576    0.2754 O   0  0  0  0  0  0  0  0  0  0  0  0
   -6.2568    1.2124    1.6166 C   0  0  0  0  0  0  0  0  0  0  0  0
   -7.2639    2.1619    1.5150 C   0  0  0  0  0  0  0  0  0  0  0  0
  1  2  1  0
  2  3  1  0
  3  4  2  0
  4  5  1  0
  5  6  2  0
  6  7  1  0
  7  8  2  0
  8  9  1  0
  9 10  1  0
 10 11  2  0
 10 12  1  0
 12 13  2  0
 13 14  1  0
 14 15  2  0
 15 16  1  0
 16 17  1  0
 17 18  1  0
 18 19  2  0
 19 20  1  0
 20 21  2  0
 21 22  1  0
 22 23  1  0
 22 24  1  0
 22 25  1  0
 21 26  1  0
 26 27  2  0
 15 28  1  0
  6 29  1  0
 29 30  2  0
 30  3  1  0
 28 12  1  0
 27 18  1  0
M  END
>  <zinc_id>  (1) 
ZINC000000654879

>  <smiles>  (1) 
COc1ccc(/C=N/NC(=O)c2ccc(COc3ccc(C(C)(C)C)cc3)o2)cc1

$$$$
