
     RDKit          3D

 28 30  0  0  0  0  0  0  0  0999 V2000
    4.1913   -0.4748   -0.2216 C   0  0  0  0  0  0  0  0  0  0  0  0
    4.2764   -1.9607   -0.4428 C   0  0  0  0  0  0  0  0  0  0  0  0
    3.6860   -2.3932   -1.7903 C   0  0  0  0  0  0  0  0  0  0  0  0
    4.4028   -1.7195   -2.9522 C   0  0  0  0  0  0  0  0  0  0  0  0
    4.1985    0.0560   -2.8698 S   0  0  0  0  0  0  0  0  0  0  0  0
    2.5129    0.5968   -3.3434 C   0  0  0  0  0  0  0  0  0  0  0  0
    2.4861    2.1046   -3.0211 C   0  0  0  0  0  0  0  0  0  0  0  0
    2.6921    2.2325   -1.5398 C   0  0  0  0  0  0  0  0  0  0  0  0
    1.7119    1.8021   -0.6733 N   0  0  0  0  0  0  0  0  0  0  0  0
    1.0037    0.6073   -0.5096 C   0  0  0  0  0  0  0  0  0  0  0  0
    1.2055   -0.3480   -1.3014 O   0  0  0  0  0  0  0  0  0  0  0  0
    0.0505    0.5222    0.5771 C   0  0  0  0  0  0  0  0  0  0  0  0
   -1.2890    0.2714    0.3950 C   0  0  0  0  0  0  0  0  0  0  0  0
   -2.1699    0.2200    1.4508 C   0  0  0  0  0  0  0  0  0  0  0  0
   -3.5618   -0.0134    1.2864 N   0  0  0  0  0  0  0  0  0  0  0  0
   -4.2351   -0.1832    0.0776 C   0  0  0  0  0  0  0  0  0  0  0  0
   -5.6287   -0.2573    0.0964 C   0  0  0  0  0  0  0  0  0  0  0  0
   -6.3415   -0.4211   -1.0528 C   0  0  0  0  0  0  0  0  0  0  0  0
   -5.7095   -0.5191   -2.2876 C   0  0  0  0  0  0  0  0  0  0  0  0
   -4.3198   -0.4417   -2.2965 C   0  0  0  0  0  0  0  0  0  0  0  0
   -3.5871   -0.2787   -1.1561 C   0  0  0  0  0  0  0  0  0  0  0  0
   -1.6520    0.4299    2.6986 N   0  0  0  0  0  0  0  0  0  0  0  0
   -0.3482    0.6789    2.9128 C   0  0  0  0  0  0  0  0  0  0  0  0
    0.1638    0.8658    4.1829 C   0  0  0  0  0  0  0  0  0  0  0  0
    1.4822    1.0981    4.4393 C   0  0  0  0  0  0  0  0  0  0  0  0
    2.3676    1.1556    3.3846 C   0  0  0  0  0  0  0  0  0  0  0  0
    1.8732    0.9705    2.0958 C   0  0  0  0  0  0  0  0  0  0  0  0
    0.5379    0.7330    1.8610 C   0  0  0  0  0  0  0  0  0  0  0  0
  1  2  1  0
  2  3  1  0
  3  4  1  0
  4  5  1  0
  5  6  1  0
  6  7  1  0
  7  8  1  0
  8  9  1  0
  9 10  1  0
 10 11  2  0
 10 12  1  0
 12 13  2  0
 13 14  1  0
 14 15  1  0
 15 16  1  0
 16 17  2  0
 17 18  1  0
 18 19  2  0
 19 20  1  0
 20 21  2  0
 14 22  2  0
 22 23  1  0
 23 24  2  0
 24 25  1  0
 25 26  2  0
 26 27  1  0
 27 28  2  0
 28 12  1  0
 21 16  1  0
 28 23  1  0
M  END
>  <zinc_id>  (1) 
ZINC000003027356

>  <smiles>  (1) 
CCCCSCCCNC(=O)c1cc(Nc2ccccc2)nc2ccccc12

$$$$
