
     RDKit          3D

 33 36  0  0  0  0  0  0  0  0999 V2000
    2.8363   -2.4001    4.0280 C   0  0  0  0  0  0  0  0  0  0  0  0
    2.2907   -1.7889    2.8482 O   0  0  0  0  0  0  0  0  0  0  0  0
    3.1535   -1.2554    1.9138 C   0  0  0  0  0  0  0  0  0  0  0  0
    4.5372   -1.3146    2.1305 C   0  0  0  0  0  0  0  0  0  0  0  0
    5.3913   -0.7694    1.1989 C   0  0  0  0  0  0  0  0  0  0  0  0
    4.9117   -0.1655    0.0529 C   0  0  0  0  0  0  0  0  0  0  0  0
    5.8685    0.4157   -0.9292 C   0  0  0  0  0  0  0  0  0  0  0  0
    5.2188    1.2718   -1.9633 C   0  0  0  0  0  0  0  0  0  0  0  0
    6.9432    1.1753   -0.1927 C   0  0  0  0  0  0  0  0  0  0  0  0
    6.6075   -0.7574   -1.6141 C   0  0  0  0  0  0  0  0  0  0  0  0
    3.5408   -0.1191   -0.1452 C   0  0  0  0  0  0  0  0  0  0  0  0
    2.6644   -0.6619    0.7827 C   0  0  0  0  0  0  0  0  0  0  0  0
    1.2429   -0.6816    0.5588 N   0  0  0  0  0  0  0  0  0  0  0  0
    0.6591    0.0685   -0.4716 C   0  0  0  0  0  0  0  0  0  0  0  0
    1.4810    0.7865   -1.1610 O   0  0  0  0  0  0  0  0  0  0  0  0
   -0.7257    0.1250   -0.8422 C   0  0  0  0  0  0  0  0  0  0  0  0
   -1.6108   -0.7767   -0.3461 N   0  0  0  0  0  0  0  0  0  0  0  0
   -2.8949   -0.8000   -0.6576 N   0  0  0  0  0  0  0  0  0  0  0  0
   -3.7726   -1.8073   -0.1203 C   0  0  0  0  0  0  0  0  0  0  0  0
   -4.4492   -1.4033    1.1319 C   0  0  0  0  0  0  0  0  0  0  0  0
   -3.8810   -1.5535    2.3545 C   0  0  0  0  0  0  0  0  0  0  0  0
   -4.4646   -1.1890    3.5702 C   0  0  0  0  0  0  0  0  0  0  0  0
   -5.7174   -0.6351    3.4683 C   0  0  0  0  0  0  0  0  0  0  0  0
   -6.3345   -0.4629    2.2952 C   0  0  0  0  0  0  0  0  0  0  0  0
   -5.7444   -0.8317    1.0661 C   0  0  0  0  0  0  0  0  0  0  0  0
   -3.3559    0.1239   -1.5120 C   0  0  0  0  0  0  0  0  0  0  0  0
   -4.5668    0.1077   -1.8125 O   0  0  0  0  0  0  0  0  0  0  0  0
   -2.5167    1.0753   -2.0585 C   0  0  0  0  0  0  0  0  0  0  0  0
   -2.9277    2.0391   -2.9432 C   0  0  0  0  0  0  0  0  0  0  0  0
   -2.1143    3.0050   -3.5129 C   0  0  0  0  0  0  0  0  0  0  0  0
   -0.7748    2.9758   -3.1438 C   0  0  0  0  0  0  0  0  0  0  0  0
   -0.3132    2.0288   -2.2567 C   0  0  0  0  0  0  0  0  0  0  0  0
   -1.1825    1.0747   -1.7172 C   0  0  0  0  0  0  0  0  0  0  0  0
  1  2  1  0
  2  3  1  0
  3  4  2  0
  4  5  1  0
  5  6  2  0
  6  7  1  0
  7  8  1  0
  7  9  1  0
  7 10  1  0
  6 11  1  0
 11 12  2  0
 12 13  1  0
 13 14  1  0
 14 15  2  0
 14 16  1  0
 16 17  2  0
 17 18  1  0
 18 19  1  0
 19 20  1  0
 20 21  2  0
 21 22  1  0
 22 23  2  0
 23 24  1  0
 24 25  2  0
 18 26  1  0
 26 27  2  0
 26 28  1  0
 28 29  2  0
 29 30  1  0
 30 31  2  0
 31 32  1  0
 32 33  2  0
 12  3  1  0
 33 16  1  0
 25 20  1  0
 33 28  1  0
M  END
>  <zinc_id>  (1) 
ZINC000002626267

>  <smiles>  (1) 
COc1ccc(C(C)(C)C)cc1NC(=O)c1nn(Cc2ccccc2)c(=O)c2ccccc12

$$$$
