
     RDKit          3D

 32 36  0  0  0  0  0  0  0  0999 V2000
    6.0818   -2.6610   -0.5386 C   0  0  0  0  0  0  0  0  0  0  0  0
    6.7789   -1.3778   -0.1396 C   0  0  0  0  0  0  0  0  0  0  0  0
    5.9928   -0.6699    0.9257 C   0  0  0  0  0  0  0  0  0  0  0  0
    4.6312   -0.3303    0.4451 C   0  0  0  0  0  0  0  0  0  0  0  0
    4.2151   -0.6089   -0.7053 O   0  0  0  0  0  0  0  0  0  0  0  0
    3.7396    0.3487    1.3287 N   0  0  0  0  0  0  0  0  0  0  0  0
    2.4530    0.7052    0.9679 N   0  0  0  0  0  0  0  0  0  0  0  0
    1.3822    0.2867    1.5540 C   0  0  0  0  0  0  0  0  0  0  0  0
    0.0730    0.7487    1.0637 C   0  0  0  0  0  0  0  0  0  0  0  0
   -1.1591    0.3976    1.5765 C   0  0  0  0  0  0  0  0  0  0  0  0
   -2.1165    1.0256    0.8584 N   0  0  0  0  0  0  0  0  0  0  0  0
   -3.5575    0.9425    1.0522 C   0  0  0  0  0  0  0  0  0  0  0  0
   -4.0584   -0.1985    0.2120 C   0  0  0  0  0  0  0  0  0  0  0  0
   -3.2000   -0.9537   -0.5598 C   0  0  0  0  0  0  0  0  0  0  0  0
   -3.6455   -2.0067   -1.3381 C   0  0  0  0  0  0  0  0  0  0  0  0
   -4.9738   -2.3374   -1.3671 C   0  0  0  0  0  0  0  0  0  0  0  0
   -5.8486   -1.5853   -0.5948 C   0  0  0  0  0  0  0  0  0  0  0  0
   -7.1882   -1.9172   -0.6227 C   0  0  0  0  0  0  0  0  0  0  0  0
   -8.0743   -1.1783    0.1408 C   0  0  0  0  0  0  0  0  0  0  0  0
   -7.6251   -0.1251    0.9186 C   0  0  0  0  0  0  0  0  0  0  0  0
   -6.2828    0.2182    0.9553 C   0  0  0  0  0  0  0  0  0  0  0  0
   -5.3976   -0.5295    0.1848 C   0  0  0  0  0  0  0  0  0  0  0  0
   -1.5647    1.7785   -0.1095 C   0  0  0  0  0  0  0  0  0  0  0  0
   -2.1035    2.5927   -1.0847 C   0  0  0  0  0  0  0  0  0  0  0  0
   -1.2360    3.2427   -1.9449 C   0  0  0  0  0  0  0  0  0  0  0  0
    0.1456    3.0952   -1.8490 C   0  0  0  0  0  0  0  0  0  0  0  0
    0.6519    2.2680   -0.8557 C   0  0  0  0  0  0  0  0  0  0  0  0
   -0.1988    1.6064    0.0178 C   0  0  0  0  0  0  0  0  0  0  0  0
    8.0188   -1.7484    0.4077 O   0  0  0  0  0  0  0  0  0  0  0  0
    8.6906   -0.5256    0.4095 C   0  0  0  0  0  0  0  0  0  0  0  0
    8.2863    0.0777   -0.9213 C   0  0  0  0  0  0  0  0  0  0  0  0
    7.0895   -0.5808   -1.2207 O   0  0  0  0  0  0  0  0  0  0  0  0
  1  2  1  0
  2  3  1  0
  3  4  1  0
  4  5  2  0
  4  6  1  0
  6  7  1  0
  7  8  2  0
  8  9  1  0
  9 10  2  0
 10 11  1  0
 11 12  1  0
 12 13  1  0
 13 14  2  0
 14 15  1  0
 15 16  2  0
 16 17  1  0
 17 18  2  0
 18 19  1  0
 19 20  2  0
 20 21  1  0
 21 22  2  0
 11 23  1  0
 23 24  2  0
 24 25  1  0
 25 26  2  0
 26 27  1  0
 27 28  2  0
  2 29  1  0
 29 30  1  0
 30 31  1  0
 31 32  1  0
 32  2  1  0
 28  9  1  0
 22 13  1  0
 28 23  1  0
 22 17  1  0
M  END
>  <zinc_id>  (1) 
ZINC000001101162

>  <smiles>  (1) 
CC1(CC(=O)N/N=C/c2cn(Cc3cccc4ccccc34)c3ccccc23)OCCO1

$$$$
