
     RDKit          3D

 33 36  0  0  0  0  0  0  0  0999 V2000
    7.1993   -1.8104   -0.2512 C   0  0  0  0  0  0  0  0  0  0  0  0
    7.5208   -0.6033   -1.1103 C   0  0  0  0  0  0  0  0  0  0  0  0
    6.6221   -0.5811   -2.1936 O   0  0  0  0  0  0  0  0  0  0  0  0
    5.2552   -0.4953   -1.9769 C   0  0  0  0  0  0  0  0  0  0  0  0
    4.7759   -0.4306   -0.6648 C   0  0  0  0  0  0  0  0  0  0  0  0
    3.4044   -0.3438   -0.4250 C   0  0  0  0  0  0  0  0  0  0  0  0
    2.5231   -0.3220   -1.4754 C   0  0  0  0  0  0  0  0  0  0  0  0
    1.1262   -0.2347   -1.2452 N   0  0  0  0  0  0  0  0  0  0  0  0
    0.1311   -1.1508   -1.7199 C   0  0  0  0  0  0  0  0  0  0  0  0
    0.4179   -2.1631   -2.4161 O   0  0  0  0  0  0  0  0  0  0  0  0
   -1.1502   -0.6865   -1.2581 C   0  0  0  0  0  0  0  0  0  0  0  0
   -2.3968   -1.3345   -1.5273 N   0  0  0  0  0  0  0  0  0  0  0  0
   -3.1573   -1.8471   -0.4584 C   0  0  0  0  0  0  0  0  0  0  0  0
   -4.3739   -2.4784   -0.6741 C   0  0  0  0  0  0  0  0  0  0  0  0
   -5.0926   -2.9683    0.3940 C   0  0  0  0  0  0  0  0  0  0  0  0
   -4.6578   -2.8630    1.7011 C   0  0  0  0  0  0  0  0  0  0  0  0
   -5.4688   -3.4080    2.8282 C   0  0  0  0  0  0  0  0  0  0  0  0
   -5.0911   -4.8531    3.1089 C   0  0  0  0  0  0  0  0  0  0  0  0
   -3.4376   -2.2285    1.9040 C   0  0  0  0  0  0  0  0  0  0  0  0
   -2.7160   -1.7374    0.8386 C   0  0  0  0  0  0  0  0  0  0  0  0
   -1.0214    0.4201   -0.5518 C   0  0  0  0  0  0  0  0  0  0  0  0
   -2.3595    1.3569    0.2255 S   0  0  0  0  0  0  0  0  0  0  0  0
   -1.6594    2.7571    1.0597 C   0  0  0  0  0  0  0  0  0  0  0  0
   -1.2745    2.6319    2.3730 C   0  0  0  0  0  0  0  0  0  0  0  0
   -0.7251    3.7344    3.0295 C   0  0  0  0  0  0  0  0  0  0  0  0
   -0.5894    4.9080    2.3348 C   0  0  0  0  0  0  0  0  0  0  0  0
   -0.0084    6.1253    2.9822 C   0  0  0  0  0  0  0  0  0  0  0  0
   -0.9673    5.0561    1.0213 C   0  0  0  0  0  0  0  0  0  0  0  0
   -1.5141    3.9435    0.3824 C   0  0  0  0  0  0  0  0  0  0  0  0
    0.3921    0.7382   -0.5193 C   0  0  0  0  0  0  0  0  0  0  0  0
    0.9032    1.7283    0.0638 O   0  0  0  0  0  0  0  0  0  0  0  0
    3.0143   -0.3866   -2.7568 C   0  0  0  0  0  0  0  0  0  0  0  0
    4.3757   -0.4734   -3.0229 C   0  0  0  0  0  0  0  0  0  0  0  0
  1  2  1  0
  2  3  1  0
  3  4  1  0
  4  5  2  0
  5  6  1  0
  6  7  2  0
  7  8  1  0
  8  9  1  0
  9 10  2  0
  9 11  1  0
 11 12  1  0
 12 13  1  0
 13 14  2  0
 14 15  1  0
 15 16  2  0
 16 17  1  0
 17 18  1  0
 16 19  1  0
 19 20  2  0
 11 21  2  0
 21 22  1  0
 22 23  1  0
 23 24  2  0
 24 25  1  0
 25 26  2  0
 26 27  1  0
 26 28  1  0
 28 29  2  0
 21 30  1  0
 30 31  2  0
  7 32  1  0
 32 33  2  0
 33  4  1  0
 30  8  1  0
 20 13  1  0
 29 23  1  0
M  END
>  <zinc_id>  (1) 
ZINC000001928694

>  <smiles>  (1) 
CCOc1ccc(N2C(=O)C(Nc3ccc(CC)cc3)=C(Sc3ccc(C)cc3)C2=O)cc1

$$$$
