
     RDKit          3D

 29 31  0  0  0  0  0  0  0  0999 V2000
  -10.2739    0.4550   -0.5399 C   0  0  0  0  0  0  0  0  0  0  0  0
   -8.8186    0.3232   -0.2227 C   0  0  0  0  0  0  0  0  0  0  0  0
   -8.0472   -0.7640   -0.5674 C   0  0  0  0  0  0  0  0  0  0  0  0
   -6.6785   -0.7753   -0.2422 C   0  0  0  0  0  0  0  0  0  0  0  0
   -6.0630    0.2690    0.4191 C   0  0  0  0  0  0  0  0  0  0  0  0
   -4.6462    0.2312    0.7333 C   0  0  0  0  0  0  0  0  0  0  0  0
   -3.9697    1.2287    1.3763 C   0  0  0  0  0  0  0  0  0  0  0  0
   -2.5984    1.1695    1.6918 C   0  0  0  0  0  0  0  0  0  0  0  0
   -1.8867    0.0588    1.3478 C   0  0  0  0  0  0  0  0  0  0  0  0
   -0.1741   -0.2813    1.8059 S   0  0  0  0  0  0  0  0  0  0  0  0
    0.6884   -0.9042    0.4366 C   0  0  0  0  0  0  0  0  0  0  0  0
    1.6957   -0.0394   -0.2459 C   0  0  0  0  0  0  0  0  0  0  0  0
    1.3776    0.9138   -1.1199 C   0  0  0  0  0  0  0  0  0  0  0  0
    2.3694    1.6793   -1.7659 C   0  0  0  0  0  0  0  0  0  0  0  0
    3.7275    1.3951   -1.4459 C   0  0  0  0  0  0  0  0  0  0  0  0
    4.0675    0.4373   -0.5639 C   0  0  0  0  0  0  0  0  0  0  0  0
    5.4808    0.1762   -0.3016 C   0  0  0  0  0  0  0  0  0  0  0  0
    6.2973    1.1414   -0.5171 O   0  0  0  0  0  0  0  0  0  0  0  0
    5.9819   -1.0206    0.1449 N   0  0  0  0  0  0  0  0  0  0  0  0
    7.4752   -1.3175    0.4082 C   0  0  2  0  0  0  0  0  0  0  0  0
    7.8380    0.1945    0.9264 C   0  0  0  0  0  0  0  0  0  0  0  0
    8.0004   -1.0000   -1.1342 C   0  0  0  0  0  0  0  0  0  0  0  0
    7.2067   -2.0188   -1.9271 C   0  0  0  0  0  0  0  0  0  0  0  0
    9.4633   -1.2978   -1.0448 C   0  0  0  0  0  0  0  0  0  0  0  0
    3.0590   -0.2807    0.0362 C   0  0  0  0  0  0  0  0  0  0  0  0
   -2.5927   -0.9302    0.7023 N   0  0  0  0  0  0  0  0  0  0  0  0
   -3.8709   -0.8355    0.4239 N   0  0  0  0  0  0  0  0  0  0  0  0
   -6.8904    1.3509    0.7509 C   0  0  0  0  0  0  0  0  0  0  0  0
   -8.2185    1.3660    0.4348 C   0  0  0  0  0  0  0  0  0  0  0  0
  1  2  1  0
  2  3  2  0
  3  4  1  0
  4  5  2  0
  5  6  1  0
  6  7  2  0
  7  8  1  0
  8  9  2  0
  9 10  1  0
 10 11  1  0
 11 12  1  0
 12 13  2  0
 13 14  1  0
 14 15  2  0
 15 16  1  0
 16 17  1  0
 17 18  2  0
 17 19  1  0
 19 20  1  0
 20 21  1  1
 20 22  1  0
 22 23  1  0
 22 24  1  0
 16 25  2  0
  9 26  1  0
 26 27  2  0
  5 28  1  0
 28 29  2  0
 29  2  1  0
 27  6  1  0
 25 12  1  0
M  END
>  <zinc_id>  (1) 
ZINC000000737782

>  <smiles>  (1) 
Cc1ccc(-c2ccc(SCc3cccc(C(=O)N[C@H](C)C(C)C)c3)nn2)cc1

$$$$
