
     RDKit          3D

 33 36  0  0  0  0  0  0  0  0999 V2000
   -0.1477    1.0946   -1.6718 C   0  0  0  0  0  0  0  0  0  0  0  0
   -0.8616    0.2885   -0.9170 C   0  0  0  0  0  0  0  0  0  0  0  0
   -1.3631   -1.0304   -1.3532 C   0  0  0  0  0  0  0  0  0  0  0  0
   -2.8530   -1.0203   -1.3199 C   0  0  0  0  0  0  0  0  0  0  0  0
   -3.1664   -0.8682    0.2737 C   0  0  1  0  0  0  0  0  0  0  0  0
   -2.8725    0.7345    0.3228 C   0  0  1  0  0  0  0  0  0  0  0  0
   -3.2438    1.3846   -0.8899 C   0  0  0  0  0  0  0  0  0  0  0  0
   -3.3262    1.2686    1.6352 C   0  0  0  0  0  0  0  0  0  0  0  0
   -4.8476    1.3441    1.6242 C   0  0  0  0  0  0  0  0  0  0  0  0
   -5.2890   -0.0746    1.3916 C   0  0  0  0  0  0  0  0  0  0  0  0
   -4.7751   -0.7125    0.1554 C   0  0  2  0  0  0  0  0  0  0  0  0
   -5.1927   -2.1978    0.2383 C   0  0  0  0  0  0  0  0  0  0  0  0
   -5.1987   -0.1817   -1.0949 C   0  0  0  0  0  0  0  0  0  0  0  0
   -4.9514   -0.9003   -2.0968 O   0  0  0  0  0  0  0  0  0  0  0  0
   -5.8412    1.0095   -1.3030 O   0  0  0  0  0  0  0  0  0  0  0  0
   -6.2507    1.4887   -2.5488 C   0  0  0  0  0  0  0  0  0  0  0  0
   -1.2698    0.8090    0.5006 C   0  0  1  0  0  0  0  0  0  0  0  0
   -1.0273   -0.3712    1.4852 C   0  0  0  0  0  0  0  0  0  0  0  0
    0.2962   -0.8217    1.7599 C   0  0  0  0  0  0  0  0  0  0  0  0
    1.2491   -1.1835    0.7832 C   0  0  0  0  0  0  0  0  0  0  0  0
    1.3460   -2.4080    0.0841 C   0  0  0  0  0  0  0  0  0  0  0  0
    2.3678   -2.3185   -0.7564 C   0  0  0  0  0  0  0  0  0  0  0  0
    2.9471   -1.1336   -0.6309 O   0  0  0  0  0  0  0  0  0  0  0  0
    2.2750   -0.4652    0.2926 C   0  0  0  0  0  0  0  0  0  0  0  0
    2.5975    0.9456    0.7430 C   0  0  0  0  0  0  0  0  0  0  0  0
    3.8824    0.6263    1.3941 N   0  0  0  0  0  0  0  0  0  0  0  0
    4.7178    1.7989    1.3423 C   0  0  0  0  0  0  0  0  0  0  0  0
    5.8607    1.0568    0.5733 C   0  0  0  0  0  0  0  0  0  0  0  0
    6.3251   -0.0920    0.9338 C   0  0  0  0  0  0  0  0  0  0  0  0
    7.2999   -0.8402    0.3024 C   0  0  0  0  0  0  0  0  0  0  0  0
    7.7613   -0.1195   -0.8887 C   0  0  0  0  0  0  0  0  0  0  0  0
    7.2819    1.0571   -1.2194 C   0  0  0  0  0  0  0  0  0  0  0  0
    6.2699    1.8330   -0.5483 C   0  0  0  0  0  0  0  0  0  0  0  0
  1  2  2  0
  2  3  1  0
  3  4  1  0
  5  4  1  6
  5  6  1  0
  6  7  1  6
  6  8  1  0
  8  9  1  0
  9 10  1  0
 10 11  1  0
 11 12  1  6
 11 13  1  0
 13 14  2  0
 13 15  1  0
 15 16  1  0
  6 17  1  0
 17 18  1  1
 18 19  1  0
 19 20  1  0
 20 21  1  0
 21 22  2  0
 22 23  1  0
 23 24  1  0
 24 25  1  0
 25 26  1  0
 26 27  1  0
 27 28  1  0
 28 29  2  0
 29 30  1  0
 30 31  2  0
 31 32  1  0
 32 33  2  0
 17  2  1  0
 24 20  2  0
 33 28  1  0
 11  5  1  0
M  END
>  <zinc_id>  (1) 
ZINC000002134453

>  <smiles>  (1) 
C=C1CC[C@H]2[C@@](C)(CCC[C@@]2(C)C(=O)OC)[C@H]1CCc1ccoc1CNCc1ccccc1

$$$$
