
     RDKit          3D

 33 36  0  0  0  0  0  0  0  0999 V2000
   -7.1838   -0.5886    0.3575 C   0  0  0  0  0  0  0  0  0  0  0  0
   -6.2909   -0.7145    1.5768 C   0  0  0  0  0  0  0  0  0  0  0  0
   -4.9353   -0.7038    1.2524 O   0  0  0  0  0  0  0  0  0  0  0  0
   -4.3983   -1.6844    0.4002 C   0  0  0  0  0  0  0  0  0  0  0  0
   -5.1928   -2.6621   -0.1260 C   0  0  0  0  0  0  0  0  0  0  0  0
   -4.6708   -3.6192   -0.9583 C   0  0  0  0  0  0  0  0  0  0  0  0
   -3.3198   -3.5875   -1.2644 C   0  0  0  0  0  0  0  0  0  0  0  0
   -2.5270   -2.6003   -0.7311 C   0  0  0  0  0  0  0  0  0  0  0  0
   -3.0562   -1.6508    0.0980 C   0  0  0  0  0  0  0  0  0  0  0  0
   -2.2674   -0.6342    0.6540 N   0  0  0  0  0  0  0  0  0  0  0  0
   -0.8693   -0.4552    0.4355 C   0  0  0  0  0  0  0  0  0  0  0  0
   -0.2864    0.7281    0.1918 C   0  0  0  0  0  0  0  0  0  0  0  0
   -1.1850    2.2230    0.1112 S   0  0  0  0  0  0  0  0  0  0  0  0
   -0.2783    3.6645   -0.2250 C   0  0  0  0  0  0  0  0  0  0  0  0
   -1.0235    4.8546   -0.2804 C   0  0  0  0  0  0  0  0  0  0  0  0
   -0.4346    6.0672   -0.5368 C   0  0  0  0  0  0  0  0  0  0  0  0
    0.9168    6.1531   -0.7493 C   0  0  0  0  0  0  0  0  0  0  0  0
    1.6303    7.4276   -1.0344 C   0  0  0  0  0  0  0  0  0  0  0  0
    1.6934    5.0152   -0.7056 C   0  0  0  0  0  0  0  0  0  0  0  0
    1.0574    3.8235   -0.4450 C   0  0  0  0  0  0  0  0  0  0  0  0
    1.1094    0.4817    0.0312 C   0  0  0  0  0  0  0  0  0  0  0  0
    2.0096    1.3073   -0.2074 O   0  0  0  0  0  0  0  0  0  0  0  0
    1.4094   -0.9193    0.1816 N   0  0  0  0  0  0  0  0  0  0  0  0
    2.6994   -1.5080    0.0840 C   0  0  0  0  0  0  0  0  0  0  0  0
    2.9252   -2.8285   -0.2349 C   0  0  0  0  0  0  0  0  0  0  0  0
    4.2365   -3.2866   -0.3050 C   0  0  0  0  0  0  0  0  0  0  0  0
    5.3234   -2.4572   -0.0634 C   0  0  0  0  0  0  0  0  0  0  0  0
    6.7013   -2.9695   -0.1453 C   0  0  0  0  0  0  0  0  0  0  0  0
    7.2110   -2.7925   -1.5683 C   0  0  0  0  0  0  0  0  0  0  0  0
    5.0923   -1.1400    0.2550 C   0  0  0  0  0  0  0  0  0  0  0  0
    3.8005   -0.7086    0.3181 C   0  0  0  0  0  0  0  0  0  0  0  0
    0.1449   -1.5027    0.4378 C   0  0  0  0  0  0  0  0  0  0  0  0
   -0.0415   -2.7324    0.6318 O   0  0  0  0  0  0  0  0  0  0  0  0
  1  2  1  0
  2  3  1  0
  3  4  1  0
  4  5  2  0
  5  6  1  0
  6  7  2  0
  7  8  1  0
  8  9  2  0
  9 10  1  0
 10 11  1  0
 11 12  2  0
 12 13  1  0
 13 14  1  0
 14 15  2  0
 15 16  1  0
 16 17  2  0
 17 18  1  0
 17 19  1  0
 19 20  2  0
 12 21  1  0
 21 22  2  0
 21 23  1  0
 23 24  1  0
 24 25  2  0
 25 26  1  0
 26 27  2  0
 27 28  1  0
 28 29  1  0
 27 30  1  0
 30 31  2  0
 23 32  1  0
 32 33  2  0
  9  4  1  0
 32 11  1  0
 20 14  1  0
 31 24  1  0
M  END
>  <zinc_id>  (1) 
ZINC000001928917

>  <smiles>  (1) 
CCOc1ccccc1NC1=C(Sc2ccc(C)cc2)C(=O)N(c2ccc(CC)cc2)C1=O

$$$$
