
     RDKit          3D

 34 38  0  0  0  0  0  0  0  0999 V2000
    4.3690    2.8214   -0.9943 C   0  0  0  0  0  0  0  0  0  0  0  0
    5.3662    1.8151   -1.3926 N   0  0  0  0  0  0  0  0  0  0  0  0
    6.3291    1.7120   -0.4087 C   0  0  0  0  0  0  0  0  0  0  0  0
    7.0247    0.4232   -0.2105 C   0  0  0  0  0  0  0  0  0  0  0  0
    6.6896   -0.6389   -1.2050 C   0  0  0  0  0  0  0  0  0  0  0  0
    5.6092   -0.4093   -2.1283 C   0  0  0  0  0  0  0  0  0  0  0  0
    4.4486    0.5443   -1.4724 C   0  0  1  0  0  0  0  0  0  0  0  0
    4.6428    0.0484    0.0844 C   0  0  0  0  0  0  0  0  0  0  0  0
    3.8244   -1.1074    0.0581 O   0  0  0  0  0  0  0  0  0  0  0  0
    2.4856   -0.9557   -0.2542 C   0  0  0  0  0  0  0  0  0  0  0  0
    1.6970   -2.0774   -0.2747 C   0  0  0  0  0  0  0  0  0  0  0  0
    0.3823   -1.9782   -0.5752 C   0  0  0  0  0  0  0  0  0  0  0  0
   -0.2658   -0.7536   -0.8820 C   0  0  0  0  0  0  0  0  0  0  0  0
   -1.7212   -0.7932   -1.2010 C   0  0  0  0  0  0  0  0  0  0  0  0
   -2.4732   -0.6498    0.0646 C   0  0  0  0  0  0  0  0  0  0  0  0
   -2.8739    0.5832    0.4663 C   0  0  0  0  0  0  0  0  0  0  0  0
   -2.8390    1.8072   -0.3251 C   0  0  0  0  0  0  0  0  0  0  0  0
   -3.9633    2.6591   -0.2260 C   0  0  0  0  0  0  0  0  0  0  0  0
   -4.0720    3.8343   -0.9254 C   0  0  0  0  0  0  0  0  0  0  0  0
   -3.0686    4.2539   -1.7798 C   0  0  0  0  0  0  0  0  0  0  0  0
   -3.1877    5.4411   -2.4815 O   0  0  0  0  0  0  0  0  0  0  0  0
   -1.9663    3.4303   -1.8843 C   0  0  0  0  0  0  0  0  0  0  0  0
   -1.8878    2.2579   -1.1692 C   0  0  0  0  0  0  0  0  0  0  0  0
   -3.4779    0.6333    1.7448 C   0  0  0  0  0  0  0  0  0  0  0  0
   -3.6472   -0.4893    2.5175 C   0  0  0  0  0  0  0  0  0  0  0  0
   -3.2345   -1.7312    2.0844 C   0  0  0  0  0  0  0  0  0  0  0  0
   -3.3834   -2.8838    2.8228 C   0  0  0  0  0  0  0  0  0  0  0  0
   -2.9588   -4.1163    2.3644 C   0  0  0  0  0  0  0  0  0  0  0  0
   -3.1040   -5.2711    3.0969 O   0  0  0  0  0  0  0  0  0  0  0  0
   -2.3657   -4.1871    1.1218 C   0  0  0  0  0  0  0  0  0  0  0  0
   -2.2135   -3.0143    0.3682 C   0  0  0  0  0  0  0  0  0  0  0  0
   -2.6478   -1.8011    0.8548 C   0  0  0  0  0  0  0  0  0  0  0  0
    0.5689    0.3140   -0.8439 C   0  0  0  0  0  0  0  0  0  0  0  0
    1.9144    0.2790   -0.5457 C   0  0  0  0  0  0  0  0  0  0  0  0
  1  2  1  0
  2  3  1  0
  3  4  1  0
  4  5  1  0
  5  6  1  0
  6  7  1  0
  7  8  1  1
  8  9  1  0
  9 10  1  0
 10 11  2  0
 11 12  1  0
 12 13  2  0
 13 14  1  0
 14 15  1  0
 15 16  1  0
 16 17  1  0
 17 18  2  0
 18 19  1  0
 19 20  2  0
 20 21  1  0
 20 22  1  0
 22 23  2  0
 16 24  2  0
 24 25  1  0
 25 26  2  0
 26 27  1  0
 27 28  2  0
 28 29  1  0
 28 30  1  0
 30 31  2  0
 31 32  1  0
 13 33  1  0
 33 34  2  0
  7  2  1  0
 34 10  1  0
 32 15  2  0
 23 17  1  0
 32 26  1  0
M  END
>  <zinc_id>  (1) 
ZINC000003916788

>  <smiles>  (1) 
CN1CCCC[C@H]1COc1ccc(Cc2c(-c3ccc(O)cc3)ccc3cc(O)ccc23)cc1

$$$$
