
     RDKit          3D

 29 31  0  0  0  0  0  0  0  0999 V2000
    7.4917    1.0688   -2.0642 C   0  0  0  0  0  0  0  0  0  0  0  0
    6.8902    0.4633   -0.7934 C   0  0  0  0  0  0  0  0  0  0  0  0
    6.5878    1.6112    0.1283 C   0  0  0  0  0  0  0  0  0  0  0  0
    5.9863    1.1041    1.4182 C   0  0  0  0  0  0  0  0  0  0  0  0
    4.7198    0.3682    1.1401 C   0  0  0  0  0  0  0  0  0  0  0  0
    4.7544   -0.9911    0.8989 C   0  0  0  0  0  0  0  0  0  0  0  0
    3.5705   -1.6890    0.6371 C   0  0  0  0  0  0  0  0  0  0  0  0
    2.3773   -1.0090    0.6226 C   0  0  0  0  0  0  0  0  0  0  0  0
    1.1818   -1.7703    0.3480 N   0  0  0  0  0  0  0  0  0  0  0  0
   -0.0910   -1.1238    0.3088 C   0  0  0  0  0  0  0  0  0  0  0  0
   -0.1011    0.0789    0.5171 O   0  0  0  0  0  0  0  0  0  0  0  0
   -1.3528   -1.8678    0.0269 C   0  0  0  0  0  0  0  0  0  0  0  0
   -2.5452   -1.2437   -0.1319 C   0  0  0  0  0  0  0  0  0  0  0  0
   -3.0254    0.0376   -0.3978 N   0  0  0  0  0  0  0  0  0  0  0  0
   -2.6672    1.2459   -0.8479 C   0  0  0  0  0  0  0  0  0  0  0  0
   -1.4988    1.4567   -1.2375 O   0  0  0  0  0  0  0  0  0  0  0  0
   -3.6653    2.3367   -0.8827 C   0  0  0  0  0  0  0  0  0  0  0  0
   -4.9524    2.1233   -0.4644 C   0  0  0  0  0  0  0  0  0  0  0  0
   -5.9084    3.1140   -0.4822 C   0  0  0  0  0  0  0  0  0  0  0  0
   -5.5682    4.3669   -0.9346 C   0  0  0  0  0  0  0  0  0  0  0  0
   -4.2815    4.6029   -1.3592 C   0  0  0  0  0  0  0  0  0  0  0  0
   -3.3383    3.5906   -1.3318 C   0  0  0  0  0  0  0  0  0  0  0  0
   -3.6458   -2.6364   -0.1790 S   0  0  0  0  0  0  0  0  0  0  0  0
   -2.5335   -3.8780   -0.0062 C   0  0  0  0  0  0  0  0  0  0  0  0
   -2.7701   -5.3807    0.0376 C   0  0  0  0  0  0  0  0  0  0  0  0
   -1.3446   -3.2331    0.0887 C   0  0  0  0  0  0  0  0  0  0  0  0
   -0.0780   -4.0818    0.2546 C   0  0  0  0  0  0  0  0  0  0  0  0
    2.3089    0.3365    0.8574 C   0  0  0  0  0  0  0  0  0  0  0  0
    3.4989    0.9993    1.1136 C   0  0  0  0  0  0  0  0  0  0  0  0
  1  2  1  0
  2  3  1  0
  3  4  1  0
  4  5  1  0
  5  6  2  0
  6  7  1  0
  7  8  2  0
  8  9  1  0
  9 10  1  0
 10 11  2  0
 10 12  1  0
 12 13  2  0
 13 14  1  0
 14 15  1  0
 15 16  2  0
 15 17  1  0
 17 18  2  0
 18 19  1  0
 19 20  2  0
 20 21  1  0
 21 22  2  0
 13 23  1  0
 23 24  1  0
 24 25  1  0
 24 26  2  0
 26 27  1  0
  8 28  1  0
 28 29  2  0
 29  5  1  0
 26 12  1  0
 22 17  1  0
M  END
>  <zinc_id>  (1) 
ZINC000001933861

>  <smiles>  (1) 
CCCCc1ccc(NC(=O)c2c(NC(=O)c3ccccc3)sc(C)c2C)cc1

$$$$
