
     RDKit          3D

 33 37  0  0  0  0  0  0  0  0999 V2000
   -2.3252    2.7601   -4.3770 C   0  0  0  0  0  0  0  0  0  0  0  0
   -1.7466    1.7984   -3.4029 C   0  0  0  0  0  0  0  0  0  0  0  0
   -0.6588    1.0104   -3.7001 C   0  0  0  0  0  0  0  0  0  0  0  0
   -0.1134    0.1144   -2.8027 C   0  0  0  0  0  0  0  0  0  0  0  0
   -0.6452   -0.0420   -1.5266 C   0  0  0  0  0  0  0  0  0  0  0  0
   -1.7360    0.7464   -1.2250 C   0  0  0  0  0  0  0  0  0  0  0  0
   -2.2841    1.6426   -2.1173 C   0  0  0  0  0  0  0  0  0  0  0  0
   -2.0571    0.3990    0.0730 C   0  0  0  0  0  0  0  0  0  0  0  0
   -3.1470    0.9619    0.8471 C   0  0  0  0  0  0  0  0  0  0  0  0
   -3.0755    2.3431    1.0637 C   0  0  0  0  0  0  0  0  0  0  0  0
   -4.0272    2.9986    1.7711 C   0  0  0  0  0  0  0  0  0  0  0  0
   -5.1207    2.3431    2.3177 C   0  0  0  0  0  0  0  0  0  0  0  0
   -5.1795    0.9720    2.0952 C   0  0  0  0  0  0  0  0  0  0  0  0
   -4.2054    0.3072    1.3725 C   0  0  0  0  0  0  0  0  0  0  0  0
   -1.1996   -0.5669    0.5580 C   0  0  0  0  0  0  0  0  0  0  0  0
   -1.2615   -1.1582    1.9009 C   0  0  0  0  0  0  0  0  0  0  0  0
   -2.3883   -1.8798    2.2421 C   0  0  0  0  0  0  0  0  0  0  0  0
   -2.6081   -2.4890    3.4277 C   0  0  0  0  0  0  0  0  0  0  0  0
   -1.6118   -2.3709    4.3691 C   0  0  0  0  0  0  0  0  0  0  0  0
   -0.4506   -1.6515    4.0758 C   0  0  0  0  0  0  0  0  0  0  0  0
   -0.2882   -1.0509    2.8400 C   0  0  0  0  0  0  0  0  0  0  0  0
   -0.3489   -0.8079   -0.4565 N   0  0  0  0  0  0  0  0  0  0  0  0
    0.7255   -1.7387   -0.4359 C   0  0  0  0  0  0  0  0  0  0  0  0
    2.0521   -0.9529    0.1083 C   0  0  1  0  0  0  0  0  0  0  0  0
    2.9241   -2.2049   -0.0070 O   0  0  0  0  0  0  0  0  0  0  0  0
    2.5178   -0.4263   -1.3849 C   0  0  0  0  0  0  0  0  0  0  0  0
    3.9330   -0.2730   -1.3138 N   0  0  0  0  0  0  0  0  0  0  0  0
    4.7106   -1.4390   -1.1843 C   0  0  0  0  0  0  0  0  0  0  0  0
    6.0614   -1.4008   -1.8152 C   0  0  0  0  0  0  0  0  0  0  0  0
    6.6102   -0.0323   -2.0485 C   0  0  0  0  0  0  0  0  0  0  0  0
    6.8851    0.6772   -0.7422 C   0  0  0  0  0  0  0  0  0  0  0  0
    5.6550    0.5120    0.1393 C   0  0  0  0  0  0  0  0  0  0  0  0
    4.4038    0.8985   -0.6616 C   0  0  0  0  0  0  0  0  0  0  0  0
  1  2  1  0
  2  3  2  0
  3  4  1  0
  4  5  2  0
  5  6  1  0
  6  7  2  0
  6  8  1  0
  8  9  1  0
  9 10  2  0
 10 11  1  0
 11 12  2  0
 12 13  1  0
 13 14  2  0
  8 15  2  0
 15 16  1  0
 16 17  2  0
 17 18  1  0
 18 19  2  0
 19 20  1  0
 20 21  2  0
 15 22  1  0
 22 23  1  0
 23 24  1  0
 24 25  1  6
 24 26  1  0
 26 27  1  0
 27 28  1  0
 28 29  1  0
 29 30  1  0
 30 31  1  0
 31 32  1  0
 32 33  1  0
  7  2  1  0
 14  9  1  0
 21 16  1  0
 33 27  1  0
 22  5  1  0
M  END
>  <zinc_id>  (1) 
ZINC000002182536

>  <smiles>  (1) 
Cc1ccc2c(c1)c(-c1ccccc1)c(-c1ccccc1)n2C[C@@H](O)CN1CCCCCC1

$$$$
