
     RDKit          3D

 30 32  0  0  0  0  0  0  0  0999 V2000
   -7.1928    0.2805   -3.4459 C   0  0  0  0  0  0  0  0  0  0  0  0
   -6.3365    0.2153   -2.3064 O   0  0  0  0  0  0  0  0  0  0  0  0
   -6.9604    0.2298   -1.0359 C   0  0  0  0  0  0  0  0  0  0  0  0
   -8.3245    0.2983   -0.9246 C   0  0  0  0  0  0  0  0  0  0  0  0
   -8.9647    0.3115    0.3004 C   0  0  0  0  0  0  0  0  0  0  0  0
   -8.1907    0.2555    1.4528 C   0  0  0  0  0  0  0  0  0  0  0  0
   -6.8400    0.1900    1.3440 C   0  0  0  0  0  0  0  0  0  0  0  0
   -6.1861    0.1754    0.0956 C   0  0  0  0  0  0  0  0  0  0  0  0
   -4.7285    0.1334    0.1189 C   0  0  0  0  0  0  0  0  0  0  0  0
   -4.1583   -1.2293   -0.2385 C   0  0  0  0  0  0  0  0  0  0  0  0
   -2.7494   -1.1196   -0.0580 N   0  0  0  0  0  0  0  0  0  0  0  0
   -1.8646   -0.2577   -0.7211 C   0  0  0  0  0  0  0  0  0  0  0  0
   -2.3235    0.5048   -1.6202 O   0  0  0  0  0  0  0  0  0  0  0  0
   -0.4258   -0.2137   -0.3972 C   0  0  0  0  0  0  0  0  0  0  0  0
    0.5771    0.4716   -0.9631 C   0  0  0  0  0  0  0  0  0  0  0  0
    1.7406    0.1482   -0.2424 C   0  0  0  0  0  0  0  0  0  0  0  0
    1.3280   -0.7239    0.7192 C   0  0  0  0  0  0  0  0  0  0  0  0
    2.1294   -1.3797    1.7603 C   0  0  0  0  0  0  0  0  0  0  0  0
    3.1926   -0.6846    2.2506 O   0  0  0  0  0  0  0  0  0  0  0  0
    4.3125   -0.3133    1.5367 C   0  0  0  0  0  0  0  0  0  0  0  0
    4.5762   -0.6112    0.2370 C   0  0  0  0  0  0  0  0  0  0  0  0
    5.7292   -0.2248   -0.4560 C   0  0  0  0  0  0  0  0  0  0  0  0
    6.6973    0.5316    0.2423 C   0  0  0  0  0  0  0  0  0  0  0  0
    7.9741    0.9557   -0.3794 C   0  0  0  0  0  0  0  0  0  0  0  0
    8.5794    1.9727    0.5857 C   0  0  0  0  0  0  0  0  0  0  0  0
    8.9063   -0.2282   -0.5604 C   0  0  0  0  0  0  0  0  0  0  0  0
    7.7797    1.6278   -1.7067 C   0  0  0  0  0  0  0  0  0  0  0  0
    6.4192    0.8247    1.5447 C   0  0  0  0  0  0  0  0  0  0  0  0
    5.2912    0.4500    2.2348 C   0  0  0  0  0  0  0  0  0  0  0  0
    0.0132   -0.9517    0.6329 O   0  0  0  0  0  0  0  0  0  0  0  0
  1  2  1  0
  2  3  1  0
  3  4  2  0
  4  5  1  0
  5  6  2  0
  6  7  1  0
  7  8  2  0
  8  9  1  0
  9 10  1  0
 10 11  1  0
 11 12  1  0
 12 13  2  0
 12 14  1  0
 14 15  2  0
 15 16  1  0
 16 17  2  0
 17 18  1  0
 18 19  1  0
 19 20  1  0
 20 21  2  0
 21 22  1  0
 22 23  2  0
 23 24  1  0
 24 25  1  0
 24 26  1  0
 24 27  1  0
 23 28  1  0
 28 29  2  0
 17 30  1  0
  8  3  1  0
 30 14  1  0
 29 20  1  0
M  END
>  <zinc_id>  (1) 
ZINC000000998981

>  <smiles>  (1) 
COc1ccccc1CCNC(=O)c1ccc(COc2ccc(C(C)(C)C)cc2)o1

$$$$
