
     RDKit          3D

 30 33  0  0  0  0  0  0  0  0999 V2000
    9.3698   -0.5286   -0.1454 C   0  0  0  0  0  0  0  0  0  0  0  0
    8.7275    0.6722   -0.1124 C   0  0  0  0  0  0  0  0  0  0  0  0
    7.3571    0.6953   -0.0023 C   0  0  0  0  0  0  0  0  0  0  0  0
    6.6578   -0.4902    0.0726 C   0  0  0  0  0  0  0  0  0  0  0  0
    5.1844   -0.4766    0.1911 C   0  0  0  0  0  0  0  0  0  0  0  0
    4.6618    0.8336    0.2125 O   0  0  0  0  0  0  0  0  0  0  0  0
    3.3075    1.0351    0.3184 C   0  0  0  0  0  0  0  0  0  0  0  0
    2.7636    2.3189    0.3420 C   0  0  0  0  0  0  0  0  0  0  0  0
    1.3951    2.4545    0.4500 C   0  0  0  0  0  0  0  0  0  0  0  0
    0.5569    1.3423    0.5351 C   0  0  0  0  0  0  0  0  0  0  0  0
    1.1034    0.0775    0.5110 C   0  0  0  0  0  0  0  0  0  0  0  0
    0.3264   -1.0829    0.5919 O   0  0  0  0  0  0  0  0  0  0  0  0
   -1.0639   -1.0677    0.7037 C   0  0  0  0  0  0  0  0  0  0  0  0
   -1.7285   -0.3773   -0.4763 C   0  0  0  0  0  0  0  0  0  0  0  0
   -3.1249   -0.4221   -0.2559 O   0  0  0  0  0  0  0  0  0  0  0  0
   -4.0310    0.1336   -1.1684 C   0  0  0  0  0  0  0  0  0  0  0  0
   -3.5328    0.7177   -2.2728 N   0  0  0  0  0  0  0  0  0  0  0  0
   -4.3693    1.2520   -3.1537 C   0  0  0  0  0  0  0  0  0  0  0  0
   -5.7308    1.2105   -2.9426 C   0  0  0  0  0  0  0  0  0  0  0  0
   -6.1932    0.6288   -1.8462 N   0  0  0  0  0  0  0  0  0  0  0  0
   -5.3648    0.0703   -0.9209 C   0  0  0  0  0  0  0  0  0  0  0  0
   -5.8959   -0.5418    0.2373 N   0  0  0  0  0  0  0  0  0  0  0  0
   -5.6790   -1.9307    0.5545 C   0  0  0  0  0  0  0  0  0  0  0  0
   -5.2156   -2.1284    1.9794 C   0  0  0  0  0  0  0  0  0  0  0  0
   -4.9790   -0.7917    2.5363 N   0  0  0  0  0  0  0  0  0  0  0  0
   -6.2695   -0.1279    2.5527 C   0  0  0  0  0  0  0  0  0  0  0  0
   -6.6877    0.2600    1.1373 C   0  0  0  0  0  0  0  0  0  0  0  0
    2.4721   -0.0534    0.4029 C   0  0  0  0  0  0  0  0  0  0  0  0
    7.3106   -1.6949    0.0388 C   0  0  0  0  0  0  0  0  0  0  0  0
    8.6722   -1.7084   -0.0707 C   0  0  0  0  0  0  0  0  0  0  0  0
  1  2  2  0
  2  3  1  0
  3  4  2  0
  4  5  1  0
  5  6  1  0
  6  7  1  0
  7  8  2  0
  8  9  1  0
  9 10  2  0
 10 11  1  0
 11 12  1  0
 12 13  1  0
 13 14  1  0
 14 15  1  0
 15 16  1  0
 16 17  2  0
 17 18  1  0
 18 19  2  0
 19 20  1  0
 20 21  2  0
 21 22  1  0
 22 23  1  0
 23 24  1  0
 24 25  1  0
 25 26  1  0
 26 27  1  0
 11 28  2  0
  4 29  1  0
 29 30  2  0
 30  1  1  0
 28  7  1  0
 21 16  1  0
 27 22  1  0
M  END
>  <zinc_id>  (1) 
ZINC000001549934

>  <smiles>  (1) 
c1ccc(COc2cccc(OCCOc3nccnc3N3CCNCC3)c2)cc1

$$$$
