
     RDKit          3D

 30 33  0  0  0  0  0  0  0  0999 V2000
   -4.6510    5.1455   -0.5922 C   0  0  0  0  0  0  0  0  0  0  0  0
   -4.7348    3.8909   -1.0566 C   0  0  0  0  0  0  0  0  0  0  0  0
   -4.9287    2.8048   -0.0845 C   0  0  0  0  0  0  0  0  0  0  0  0
   -3.8806    1.8460   -0.1041 O   0  0  0  0  0  0  0  0  0  0  0  0
   -2.5652    2.1694    0.1572 C   0  0  0  0  0  0  0  0  0  0  0  0
   -2.2500    3.3541    0.4274 O   0  0  0  0  0  0  0  0  0  0  0  0
   -1.5160    1.1582    0.1279 C   0  0  0  0  0  0  0  0  0  0  0  0
   -0.1671    1.3089    0.3621 C   0  0  0  0  0  0  0  0  0  0  0  0
    0.4051    2.5828    0.6881 N   0  0  0  0  0  0  0  0  0  0  0  0
    0.4625    0.1290    0.2371 N   0  0  0  0  0  0  0  0  0  0  0  0
    1.8584   -0.0685    0.4131 C   0  0  0  0  0  0  0  0  0  0  0  0
    2.6112    0.8142    1.1733 C   0  0  0  0  0  0  0  0  0  0  0  0
    3.9665    0.6323    1.3508 C   0  0  0  0  0  0  0  0  0  0  0  0
    4.6545   -0.4249    0.7921 C   0  0  0  0  0  0  0  0  0  0  0  0
    6.1028   -0.6446    0.9648 C   0  0  0  0  0  0  0  0  0  0  0  0
    7.0020   -0.1009   -0.0672 C   0  0  0  0  0  0  0  0  0  0  0  0
    6.8920    1.3800   -0.2002 C   0  0  0  0  0  0  0  0  0  0  0  0
    5.5432    1.8671   -0.6069 C   0  0  0  0  0  0  0  0  0  0  0  0
    3.8798   -1.3075    0.0272 C   0  0  0  0  0  0  0  0  0  0  0  0
    2.5273   -1.1187   -0.1451 C   0  0  0  0  0  0  0  0  0  0  0  0
   -0.4539   -0.8194   -0.0806 C   0  0  0  0  0  0  0  0  0  0  0  0
   -0.3846   -2.1395   -0.3174 N   0  0  0  0  0  0  0  0  0  0  0  0
   -1.5127   -2.8165   -0.6165 C   0  0  0  0  0  0  0  0  0  0  0  0
   -1.4259   -4.1821   -0.8591 C   0  0  0  0  0  0  0  0  0  0  0  0
   -2.5424   -4.9245   -1.1687 C   0  0  0  0  0  0  0  0  0  0  0  0
   -3.7662   -4.2942   -1.2374 C   0  0  0  0  0  0  0  0  0  0  0  0
   -3.8844   -2.9412   -1.0019 C   0  0  0  0  0  0  0  0  0  0  0  0
   -2.7533   -2.2202   -0.6941 C   0  0  0  0  0  0  0  0  0  0  0  0
   -2.8067   -0.8821   -0.4515 N   0  0  0  0  0  0  0  0  0  0  0  0
   -1.6819   -0.1986   -0.1517 C   0  0  0  0  0  0  0  0  0  0  0  0
  1  2  2  0
  2  3  1  0
  3  4  1  0
  4  5  1  0
  5  6  2  0
  5  7  1  0
  7  8  2  0
  8  9  1  0
  8 10  1  0
 10 11  1  0
 11 12  2  0
 12 13  1  0
 13 14  2  0
 14 15  1  0
 15 16  1  0
 16 17  1  0
 17 18  1  0
 14 19  1  0
 19 20  2  0
 10 21  1  0
 21 22  2  0
 22 23  1  0
 23 24  2  0
 24 25  1  0
 25 26  2  0
 26 27  1  0
 27 28  2  0
 28 29  1  0
 29 30  2  0
 30  7  1  0
 20 11  1  0
 30 21  1  0
 28 23  1  0
M  END
>  <zinc_id>  (1) 
ZINC000002371801

>  <smiles>  (1) 
C=CCOC(=O)c1c(N)n(-c2ccc(CCCC)cc2)c2nc3ccccc3nc12

$$$$
