
     RDKit          3D

 32 35  0  0  0  0  0  0  0  0999 V2000
    8.9297    2.0979   -0.3910 C   0  0  0  0  0  0  0  0  0  0  0  0
    8.2423    0.8806   -0.1664 O   0  0  0  0  0  0  0  0  0  0  0  0
    6.8513    0.8202   -0.0270 C   0  0  0  0  0  0  0  0  0  0  0  0
    6.3033   -0.4281    0.1884 C   0  0  0  0  0  0  0  0  0  0  0  0
    4.9291   -0.5746    0.3375 C   0  0  0  0  0  0  0  0  0  0  0  0
    4.1145    0.5367    0.2687 C   0  0  0  0  0  0  0  0  0  0  0  0
    2.6405    0.4542    0.4187 C   0  0  0  0  0  0  0  0  0  0  0  0
    2.0025    0.2386   -0.9601 C   0  0  0  0  0  0  0  0  0  0  0  0
    0.5526    0.1629   -0.7690 N   0  0  0  0  0  0  0  0  0  0  0  0
   -0.3095    1.1910   -0.7981 C   0  0  0  0  0  0  0  0  0  0  0  0
   -0.0197    2.5761   -1.0187 N   0  0  0  0  0  0  0  0  0  0  0  0
   -1.5532    0.6492   -0.5707 C   0  0  0  0  0  0  0  0  0  0  0  0
   -2.8327    1.3549   -0.5049 C   0  0  0  0  0  0  0  0  0  0  0  0
   -2.8551    2.6011   -0.6679 O   0  0  0  0  0  0  0  0  0  0  0  0
   -4.0191    0.7078   -0.2706 O   0  0  0  0  0  0  0  0  0  0  0  0
   -5.2725    1.3133   -0.1947 C   0  0  0  0  0  0  0  0  0  0  0  0
   -5.3542    2.3480    0.9086 C   0  0  0  0  0  0  0  0  0  0  0  0
   -6.7219    2.9876    0.9681 C   0  0  0  0  0  0  0  0  0  0  0  0
   -6.9409    3.6506   -0.3966 C   0  0  0  0  0  0  0  0  0  0  0  0
   -6.6846    4.1124    1.9779 C   0  0  0  0  0  0  0  0  0  0  0  0
   -1.4354   -0.7366   -0.4010 C   0  0  0  0  0  0  0  0  0  0  0  0
   -2.3504   -1.6949   -0.1592 N   0  0  0  0  0  0  0  0  0  0  0  0
   -1.9468   -2.9727   -0.0396 C   0  0  0  0  0  0  0  0  0  0  0  0
   -2.8752   -3.9898    0.2117 C   0  0  0  0  0  0  0  0  0  0  0  0
   -2.4483   -5.2884    0.3312 C   0  0  0  0  0  0  0  0  0  0  0  0
   -1.1076   -5.5697    0.2013 C   0  0  0  0  0  0  0  0  0  0  0  0
   -0.1823   -4.5847   -0.0454 C   0  0  0  0  0  0  0  0  0  0  0  0
   -0.6083   -3.2575   -0.1688 C   0  0  0  0  0  0  0  0  0  0  0  0
    0.3146   -2.2844   -0.4135 N   0  0  0  0  0  0  0  0  0  0  0  0
   -0.0933   -1.0045   -0.5329 C   0  0  0  0  0  0  0  0  0  0  0  0
    4.6795    1.7616    0.0547 C   0  0  0  0  0  0  0  0  0  0  0  0
    6.0511    1.9412   -0.0985 C   0  0  0  0  0  0  0  0  0  0  0  0
  1  2  1  0
  2  3  1  0
  3  4  2  0
  4  5  1  0
  5  6  2  0
  6  7  1  0
  7  8  1  0
  8  9  1  0
  9 10  1  0
 10 11  1  0
 10 12  2  0
 12 13  1  0
 13 14  2  0
 13 15  1  0
 15 16  1  0
 16 17  1  0
 17 18  1  0
 18 19  1  0
 18 20  1  0
 12 21  1  0
 21 22  2  0
 22 23  1  0
 23 24  2  0
 24 25  1  0
 25 26  2  0
 26 27  1  0
 27 28  2  0
 28 29  1  0
 29 30  2  0
  6 31  1  0
 31 32  2  0
 32  3  1  0
 30  9  1  0
 30 21  1  0
 28 23  1  0
M  END
>  <zinc_id>  (1) 
ZINC000002247191

>  <smiles>  (1) 
COc1ccc(CCn2c(N)c(C(=O)OCCC(C)C)c3nc4ccccc4nc32)cc1

$$$$
