
     RDKit          3D

 30 32  0  0  0  0  0  0  0  0999 V2000
    2.8293   -0.1118    2.0552 C   0  0  0  0  0  0  0  0  0  0  0  0
    2.6083   -0.2647    0.4926 C   0  0  1  0  0  0  0  0  0  0  0  0
    4.1660   -1.2957    0.1676 S   0  0  0  0  0  0  0  0  0  0  0  0
    5.5594   -0.1871    0.5227 C   0  0  0  0  0  0  0  0  0  0  0  0
    5.6044    0.9386   -0.4847 C   0  0  0  0  0  0  0  0  0  0  0  0
    6.3238    0.8030   -1.6341 C   0  0  0  0  0  0  0  0  0  0  0  0
    6.3825    1.8071   -2.5700 C   0  0  0  0  0  0  0  0  0  0  0  0
    5.7075    2.9947   -2.3694 C   0  0  0  0  0  0  0  0  0  0  0  0
    4.9922    3.0964   -1.1985 C   0  0  0  0  0  0  0  0  0  0  0  0
    4.9210    2.1079   -0.2545 C   0  0  0  0  0  0  0  0  0  0  0  0
    1.5786   -1.3973    0.5330 C   0  0  0  0  0  0  0  0  0  0  0  0
    1.9459   -2.4920    0.9770 O   0  0  0  0  0  0  0  0  0  0  0  0
    0.2635   -1.2442    0.0962 N   0  0  0  0  0  0  0  0  0  0  0  0
   -0.7299   -2.2825    0.1183 C   0  0  0  0  0  0  0  0  0  0  0  0
   -0.3531   -3.5453    0.5943 C   0  0  0  0  0  0  0  0  0  0  0  0
   -1.3238   -4.5353    0.6063 C   0  0  0  0  0  0  0  0  0  0  0  0
   -2.6080   -4.2930    0.1695 C   0  0  0  0  0  0  0  0  0  0  0  0
   -2.9176   -3.0347   -0.2859 C   0  0  0  0  0  0  0  0  0  0  0  0
   -1.9807   -1.9955   -0.3220 C   0  0  0  0  0  0  0  0  0  0  0  0
   -2.3346   -0.6774   -0.8086 C   0  0  0  0  0  0  0  0  0  0  0  0
   -1.4079    0.1898   -0.8030 O   0  0  0  0  0  0  0  0  0  0  0  0
   -3.6164   -0.3102   -1.2761 N   0  0  0  0  0  0  0  0  0  0  0  0
   -3.7682    1.1936   -1.7621 C   0  0  1  0  0  0  0  0  0  0  0  0
   -5.3492    0.9617   -2.2078 C   0  0  0  0  0  0  0  0  0  0  0  0
   -4.1271    1.7670   -0.3024 C   0  0  0  0  0  0  0  0  0  0  0  0
   -5.1541    2.6474   -0.2146 C   0  0  0  0  0  0  0  0  0  0  0  0
   -5.4615    3.1707    1.0476 C   0  0  0  0  0  0  0  0  0  0  0  0
   -4.7077    2.7692    2.1469 C   0  0  0  0  0  0  0  0  0  0  0  0
   -3.6722    1.8696    2.0042 C   0  0  0  0  0  0  0  0  0  0  0  0
   -3.3706    1.3501    0.7389 C   0  0  0  0  0  0  0  0  0  0  0  0
  2  1  1  6
  2  3  1  0
  3  4  1  0
  4  5  1  0
  5  6  2  0
  6  7  1  0
  7  8  2  0
  8  9  1  0
  9 10  2  0
  2 11  1  0
 11 12  2  0
 11 13  1  0
 13 14  1  0
 14 15  2  0
 15 16  1  0
 16 17  2  0
 17 18  1  0
 18 19  2  0
 19 20  1  0
 20 21  2  0
 20 22  1  0
 22 23  1  0
 23 24  1  6
 23 25  1  0
 25 26  2  0
 26 27  1  0
 27 28  2  0
 28 29  1  0
 29 30  2  0
 10  5  1  0
 19 14  1  0
 30 25  1  0
M  END
>  <zinc_id>  (1) 
ZINC000001141419

>  <smiles>  (1) 
C[C@H](SCc1ccccc1)C(=O)Nc1ccccc1C(=O)N[C@@H](C)c1ccccc1

$$$$
