
     RDKit          3D

 32 35  0  0  0  0  0  0  0  0999 V2000
    5.9679   -3.7229    0.7986 C   0  0  0  0  0  0  0  0  0  0  0  0
    7.1206   -2.7555    0.7941 C   0  0  0  0  0  0  0  0  0  0  0  0
    7.1027   -2.0476   -0.4314 O   0  0  0  0  0  0  0  0  0  0  0  0
    5.9697   -1.2941   -0.7246 C   0  0  0  0  0  0  0  0  0  0  0  0
    5.9148   -0.5928   -1.9049 C   0  0  0  0  0  0  0  0  0  0  0  0
    4.8052    0.1582   -2.2151 C   0  0  0  0  0  0  0  0  0  0  0  0
    3.7351    0.2185   -1.3496 C   0  0  0  0  0  0  0  0  0  0  0  0
    2.6417    1.0247   -1.7714 N   0  0  0  0  0  0  0  0  0  0  0  0
    1.4740    1.1516   -0.9305 C   0  0  0  0  0  0  0  0  0  0  0  0
    0.3952    1.8561   -1.1847 N   0  0  0  0  0  0  0  0  0  0  0  0
   -0.5775    1.8705   -0.3221 C   0  0  0  0  0  0  0  0  0  0  0  0
   -1.8004    2.6828   -0.5745 C   0  0  0  0  0  0  0  0  0  0  0  0
   -1.9855    3.3906   -1.7439 C   0  0  0  0  0  0  0  0  0  0  0  0
   -3.1043    4.1639   -1.9730 C   0  0  0  0  0  0  0  0  0  0  0  0
   -4.0875    4.2508   -1.0179 C   0  0  0  0  0  0  0  0  0  0  0  0
   -5.3193    5.0736   -1.2142 C   0  0  0  0  0  0  0  0  0  0  0  0
   -3.9305    3.5589    0.1525 C   0  0  0  0  0  0  0  0  0  0  0  0
   -2.8019    2.7940    0.3542 C   0  0  0  0  0  0  0  0  0  0  0  0
   -0.4378    1.1604    0.7952 N   0  0  0  0  0  4  0  0  0  0  0  0
   -1.3625    0.9455    1.9228 C   0  0  0  0  0  0  0  0  0  0  0  0
   -2.1131   -0.3125    1.6792 C   0  0  0  0  0  0  0  0  0  0  0  0
   -3.3221   -0.3957    1.0421 C   0  0  0  0  0  0  0  0  0  0  0  0
   -3.9762   -1.5903    0.8422 C   0  0  0  0  0  0  0  0  0  0  0  0
   -3.4448   -2.7834    1.2769 C   0  0  0  0  0  0  0  0  0  0  0  0
   -4.1048   -4.0288    1.0803 N   0  0  0  0  0  4  0  0  0  0  0  0
   -5.1915   -4.0878    0.5056 O   0  0  0  0  0  0  0  0  0  0  0  0
   -3.5346   -5.1904    1.5319 O   0  0  0  0  0  1  0  0  0  0  0  0
   -2.2274   -2.7400    1.9235 C   0  0  0  0  0  0  0  0  0  0  0  0
   -1.5862   -1.5373    2.1155 C   0  0  0  0  0  0  0  0  0  0  0  0
    1.1137    0.4743    0.5885 S   0  0  0  0  0  0  0  0  0  0  0  0
    3.7760   -0.4721   -0.1754 C   0  0  0  0  0  0  0  0  0  0  0  0
    4.8910   -1.2232    0.1302 C   0  0  0  0  0  0  0  0  0  0  0  0
  1  2  1  0
  2  3  1  0
  3  4  1  0
  4  5  2  0
  5  6  1  0
  6  7  2  0
  7  8  1  0
  8  9  1  0
  9 10  2  0
 10 11  1  0
 11 12  1  0
 12 13  2  0
 13 14  1  0
 14 15  2  0
 15 16  1  0
 15 17  1  0
 17 18  2  0
 11 19  2  0
 19 20  1  0
 20 21  1  0
 21 22  2  0
 22 23  1  0
 23 24  2  0
 24 25  1  0
 25 26  2  0
 25 27  1  0
 24 28  1  0
 28 29  2  0
 19 30  1  0
  7 31  1  0
 31 32  2  0
 32  4  1  0
 30  9  1  0
 18 12  1  0
 29 21  1  0
M  CHG  3  19   1  25   1  27  -1
M  END
>  <zinc_id>  (1) 
ZINC000002666224

>  <smiles>  (1) 
CCOc1ccc(Nc2nc(-c3ccc(C)cc3)[n+](Cc3ccc([N+](=O)[O-])cc3)s2)cc1

$$$$
