
     RDKit          3D

 31 34  0  0  0  0  0  0  0  0999 V2000
   -6.6222   -2.7121   -1.0217 C   0  0  0  0  0  0  0  0  0  0  0  0
   -5.7810   -2.8094    0.2261 C   0  0  0  0  0  0  0  0  0  0  0  0
   -5.5090   -4.2742    0.5890 C   0  0  0  0  0  0  0  0  0  0  0  0
   -6.4680   -2.0914    1.3653 C   0  0  0  0  0  0  0  0  0  0  0  0
   -4.4838   -2.1140   -0.0505 C   0  0  0  0  0  0  0  0  0  0  0  0
   -4.5328   -0.8281   -0.5202 C   0  0  0  0  0  0  0  0  0  0  0  0
   -3.3307   -0.1779   -0.7624 C   0  0  0  0  0  0  0  0  0  0  0  0
   -2.1396   -0.8257   -0.5309 C   0  0  0  0  0  0  0  0  0  0  0  0
   -0.8683   -0.1088   -0.7884 C   0  0  0  0  0  0  0  0  0  0  0  0
   -0.4406    0.4701    0.4171 N   0  0  0  0  0  0  0  0  0  0  0  0
   -1.2223    1.4630    1.0305 C   0  0  0  0  0  0  0  0  0  0  0  0
   -1.3694    2.7093    0.2582 C   0  0  0  0  0  0  0  0  0  0  0  0
   -0.7620    2.9303   -0.9781 C   0  0  0  0  0  0  0  0  0  0  0  0
   -0.9417    4.1472   -1.6342 C   0  0  0  0  0  0  0  0  0  0  0  0
   -1.7081    5.1513   -1.0953 C   0  0  0  0  0  0  0  0  0  0  0  0
   -2.2985    4.9355    0.1079 C   0  0  0  0  0  0  0  0  0  0  0  0
   -2.1270    3.7319    0.7682 C   0  0  0  0  0  0  0  0  0  0  0  0
    0.7193    0.0049    1.0564 C   0  0  0  0  0  0  0  0  0  0  0  0
    1.9366    0.1843    0.1812 C   0  0  0  0  0  0  0  0  0  0  0  0
    2.0159    0.7702   -1.0672 C   0  0  0  0  0  0  0  0  0  0  0  0
    3.3263    0.7036   -1.4741 C   0  0  0  0  0  0  0  0  0  0  0  0
    4.0211    0.0700   -0.4499 C   0  0  0  0  0  0  0  0  0  0  0  0
    5.4656   -0.2201   -0.4475 C   0  0  0  0  0  0  0  0  0  0  0  0
    6.1323    0.0902   -1.4473 O   0  0  0  0  0  0  0  0  0  0  0  0
    6.0787   -0.8327    0.6626 N   0  0  0  0  0  0  0  0  0  0  0  0
    7.5052   -1.1332    0.7040 C   0  0  0  0  0  0  0  0  0  0  0  0
    7.9373   -1.5179    2.1409 C   0  0  0  0  0  0  0  0  0  0  0  0
    7.7539   -2.6044    1.0850 C   0  0  0  0  0  0  0  0  0  0  0  0
    3.1487   -0.1968    0.4679 O   0  0  0  0  0  0  0  0  0  0  0  0
   -2.1272   -2.1284   -0.0559 C   0  0  0  0  0  0  0  0  0  0  0  0
   -3.3088   -2.7867    0.1896 C   0  0  0  0  0  0  0  0  0  0  0  0
  1  2  1  0
  2  3  1  0
  2  4  1  0
  2  5  1  0
  5  6  2  0
  6  7  1  0
  7  8  2  0
  8  9  1  0
  9 10  1  0
 10 11  1  0
 11 12  1  0
 12 13  2  0
 13 14  1  0
 14 15  2  0
 15 16  1  0
 16 17  2  0
 10 18  1  0
 18 19  1  0
 19 20  2  0
 20 21  1  0
 21 22  2  0
 22 23  1  0
 23 24  2  0
 23 25  1  0
 25 26  1  0
 26 27  1  0
 27 28  1  0
 22 29  1  0
  8 30  1  0
 30 31  2  0
 31  5  1  0
 17 12  1  0
 29 19  1  0
 28 26  1  0
M  END
>  <zinc_id>  (1) 
ZINC000004424334

>  <smiles>  (1) 
CC(C)(C)c1ccc(CN(Cc2ccccc2)Cc2ccc(C(=O)NC3CC3)o2)cc1

$$$$
