
     RDKit          3D

 30 33  0  0  0  0  0  0  0  0999 V2000
    2.2037    2.1165    1.8754 N   0  0  0  0  0  0  0  0  0  0  0  0
    2.1685    1.1653    1.1745 C   0  0  0  0  0  0  0  0  0  0  0  0
    2.1670   -0.0240    0.2963 C   0  0  0  0  0  0  0  0  0  0  0  0
    0.9989   -0.5941   -0.0780 C   0  0  0  0  0  0  0  0  0  0  0  0
   -0.3703   -0.4014    0.1190 N   0  0  0  0  0  0  0  0  0  0  0  0
   -1.1483    0.4837    0.8035 C   0  0  0  0  0  0  0  0  0  0  0  0
   -0.5961    1.3942    1.4538 O   0  0  0  0  0  0  0  0  0  0  0  0
   -2.6289    0.4639    0.8480 C   0  0  0  0  0  0  0  0  0  0  0  0
   -3.2161   -0.7638    1.3983 C   0  0  0  0  0  0  0  0  0  0  0  0
   -2.8988   -2.0025    0.6930 C   0  0  0  0  0  0  0  0  0  0  0  0
   -1.8076   -2.7561    1.0214 C   0  0  0  0  0  0  0  0  0  0  0  0
   -1.4839   -3.9353    0.3682 C   0  0  0  0  0  0  0  0  0  0  0  0
   -2.3315   -4.3242   -0.6522 C   0  0  0  0  0  0  0  0  0  0  0  0
   -3.4376   -3.6092   -1.0234 C   0  0  0  0  0  0  0  0  0  0  0  0
   -3.7228   -2.4270   -0.3354 C   0  0  0  0  0  0  0  0  0  0  0  0
   -3.2789    1.0302   -0.3629 C   0  0  0  0  0  0  0  0  0  0  0  0
   -2.8359    2.4548   -0.4939 C   0  0  0  0  0  0  0  0  0  0  0  0
   -3.5495    3.4770    0.1023 C   0  0  0  0  0  0  0  0  0  0  0  0
   -3.1910    4.8027    0.0164 C   0  0  0  0  0  0  0  0  0  0  0  0
   -2.0638    5.1226   -0.7007 C   0  0  0  0  0  0  0  0  0  0  0  0
   -1.3501    4.1176   -1.2949 C   0  0  0  0  0  0  0  0  0  0  0  0
   -1.7032    2.8025   -1.2114 C   0  0  0  0  0  0  0  0  0  0  0  0
    1.5547   -1.9152   -1.0757 S   0  0  0  0  0  0  0  0  0  0  0  0
    3.2260   -1.6678   -0.9598 C   0  0  0  0  0  0  0  0  0  0  0  0
    3.3206   -0.5655   -0.1496 C   0  0  0  0  0  0  0  0  0  0  0  0
    4.6793    0.0322    0.2378 C   0  0  0  0  0  0  0  0  0  0  0  0
    5.3623    0.5488   -1.0100 C   0  0  0  0  0  0  0  0  0  0  0  0
    5.9772   -0.6084   -1.7717 C   0  0  0  0  0  0  0  0  0  0  0  0
    5.6339   -1.9382   -1.1385 C   0  0  0  0  0  0  0  0  0  0  0  0
    4.3220   -2.4792   -1.6028 C   0  0  0  0  0  0  0  0  0  0  0  0
  1  2  3  0
  2  3  1  0
  3  4  2  0
  4  5  1  0
  5  6  1  0
  6  7  2  0
  6  8  1  0
  8  9  1  0
  9 10  1  0
 10 11  2  0
 11 12  1  0
 12 13  2  0
 13 14  1  0
 14 15  2  0
  8 16  1  0
 16 17  1  0
 17 18  2  0
 18 19  1  0
 19 20  2  0
 20 21  1  0
 21 22  2  0
  4 23  1  0
 23 24  1  0
 24 25  2  0
 25 26  1  0
 26 27  1  0
 27 28  1  0
 28 29  1  0
 29 30  1  0
 25  3  1  0
 15 10  1  0
 22 17  1  0
 30 24  1  0
M  END
>  <zinc_id>  (1) 
ZINC000002769108

>  <smiles>  (1) 
N#Cc1c(NC(=O)C(Cc2ccccc2)Cc2ccccc2)sc2c1CCCCC2

$$$$
