
     RDKit          3D

 29 31  0  0  0  0  0  0  0  0999 V2000
    3.2817    2.6994   -2.3268 C   0  0  0  0  0  0  0  0  0  0  0  0
    2.5910    2.2228   -1.0512 C   0  0  0  0  0  0  0  0  0  0  0  0
    2.6607    3.3533   -0.0379 C   0  0  0  0  0  0  0  0  0  0  0  0
    1.0952    1.9904   -1.3457 C   0  0  0  0  0  0  0  0  0  0  0  0
    0.5734    1.4951    0.1098 C   0  0  2  0  0  0  0  0  0  0  0  0
    1.2950    0.2434    0.3349 N   0  0  0  0  0  0  0  0  0  0  0  0
    2.1762   -0.5889   -0.2376 C   0  0  0  0  0  0  0  0  0  0  0  0
    2.5206   -0.2500   -1.3786 O   0  0  0  0  0  0  0  0  0  0  0  0
    2.6783   -1.7253    0.4316 O   0  0  0  0  0  0  0  0  0  0  0  0
    3.7645   -2.3685   -0.3357 C   0  0  0  0  0  0  0  0  0  0  0  0
    4.8384   -1.3038   -0.2644 C   0  0  0  0  0  0  0  0  0  0  0  0
    4.9385   -0.2882   -1.1289 C   0  0  0  0  0  0  0  0  0  0  0  0
    5.8455    0.7369   -1.1234 C   0  0  0  0  0  0  0  0  0  0  0  0
    6.7675    0.7097   -0.0778 C   0  0  0  0  0  0  0  0  0  0  0  0
    6.6935   -0.3164    0.8275 C   0  0  0  0  0  0  0  0  0  0  0  0
    5.7641   -1.3539    0.8005 C   0  0  0  0  0  0  0  0  0  0  0  0
   -0.8699    1.0700   -0.3022 C   0  0  0  0  0  0  0  0  0  0  0  0
   -1.2707    1.2163   -1.4724 O   0  0  0  0  0  0  0  0  0  0  0  0
   -1.7038    0.5214    0.6265 N   0  0  0  0  0  0  0  0  0  0  0  0
   -3.0025    0.0427    0.5724 C   0  0  0  0  0  0  0  0  0  0  0  0
   -3.4135   -0.6343    1.7099 C   0  0  0  0  0  0  0  0  0  0  0  0
   -4.6765   -1.2016    1.8026 C   0  0  0  0  0  0  0  0  0  0  0  0
   -5.5835   -1.1320    0.7633 C   0  0  0  0  0  0  0  0  0  0  0  0
   -6.8275   -1.7359    0.8872 C   0  0  0  0  0  0  0  0  0  0  0  0
   -7.6546   -1.6529   -0.1820 C   0  0  0  0  0  0  0  0  0  0  0  0
   -7.3060   -1.0007   -1.3776 C   0  0  0  0  0  0  0  0  0  0  0  0
   -6.0598   -0.3957   -1.4886 C   0  0  0  0  0  0  0  0  0  0  0  0
   -5.1868   -0.4566   -0.4025 C   0  0  0  0  0  0  0  0  0  0  0  0
   -3.9291    0.1034   -0.4391 C   0  0  0  0  0  0  0  0  0  0  0  0
  1  2  1  0
  2  3  1  0
  2  4  1  0
  5  4  1  6
  5  6  1  0
  6  7  1  0
  7  8  2  0
  7  9  1  0
  9 10  1  0
 10 11  1  0
 11 12  2  0
 12 13  1  0
 13 14  2  0
 14 15  1  0
 15 16  2  0
  5 17  1  0
 17 18  2  0
 17 19  1  0
 19 20  1  0
 20 21  2  0
 21 22  1  0
 22 23  2  0
 23 24  1  0
 24 25  2  0
 25 26  1  0
 26 27  2  0
 27 28  1  0
 28 29  2  0
 16 11  1  0
 29 20  1  0
 28 23  1  0
M  END
>  <zinc_id>  (1) 
ZINC000002516263

>  <smiles>  (1) 
CC(C)C[C@H](NC(=O)OCc1ccccc1)C(=O)Nc1ccc2ccccc2c1

$$$$
