
     RDKit          3D

 29 31  0  0  0  0  0  0  0  0999 V2000
    9.1357    1.9335    0.7285 C   0  0  0  0  0  0  0  0  0  0  0  0
    7.7467    1.4324    0.4998 C   0  0  0  0  0  0  0  0  0  0  0  0
    6.6671    1.9304    1.1983 C   0  0  0  0  0  0  0  0  0  0  0  0
    5.3866    1.4390    0.9584 C   0  0  0  0  0  0  0  0  0  0  0  0
    5.1517    0.4501    0.0270 C   0  0  0  0  0  0  0  0  0  0  0  0
    3.8191   -0.0070   -0.1691 N   0  0  0  0  0  0  0  0  0  0  0  0
    3.4636   -1.0060   -1.0873 C   0  0  0  0  0  0  0  0  0  0  0  0
    4.3728   -1.5293   -1.7780 O   0  0  0  0  0  0  0  0  0  0  0  0
    2.0763   -1.4964   -1.3058 C   0  0  0  0  0  0  0  0  0  0  0  0
    1.1677   -0.8011   -0.4455 O   0  0  0  0  0  0  0  0  0  0  0  0
   -0.1685   -1.0914   -0.4763 C   0  0  0  0  0  0  0  0  0  0  0  0
   -0.5660   -1.9765   -1.2738 O   0  0  0  0  0  0  0  0  0  0  0  0
   -1.1111   -0.3998    0.3868 C   0  0  0  0  0  0  0  0  0  0  0  0
   -0.6732    0.5705    1.2608 C   0  0  0  0  0  0  0  0  0  0  0  0
   -1.5413    1.2510    2.0986 C   0  0  0  0  0  0  0  0  0  0  0  0
   -2.8758    0.9215    2.0288 C   0  0  0  0  0  0  0  0  0  0  0  0
   -3.2927   -0.0393    1.1603 C   0  0  0  0  0  0  0  0  0  0  0  0
   -2.4692   -0.7299    0.3210 C   0  0  0  0  0  0  0  0  0  0  0  0
   -2.9217   -1.7010   -0.5421 N   0  0  0  0  0  0  0  0  0  0  0  0
   -4.1331   -2.2742   -0.8939 C   0  0  0  0  0  0  0  0  0  0  0  0
   -5.2052   -1.4773   -1.5107 C   0  0  0  0  0  0  0  0  0  0  0  0
   -5.7725   -0.3664   -0.7007 C   0  0  0  0  0  0  0  0  0  0  0  0
   -5.6227    0.8705   -1.1308 C   0  0  0  0  0  0  0  0  0  0  0  0
   -6.1179    2.0797   -0.4591 C   0  0  0  0  0  0  0  0  0  0  0  0
   -7.1235    1.7199    0.6443 C   0  0  0  0  0  0  0  0  0  0  0  0
   -6.5893    0.5531    1.4454 C   0  0  0  0  0  0  0  0  0  0  0  0
   -6.5317   -0.6496    0.5657 C   0  0  0  0  0  0  0  0  0  0  0  0
    6.2259   -0.0496   -0.6722 C   0  0  0  0  0  0  0  0  0  0  0  0
    7.5024    0.4428   -0.4305 C   0  0  0  0  0  0  0  0  0  0  0  0
  1  2  1  0
  2  3  2  0
  3  4  1  0
  4  5  2  0
  5  6  1  0
  6  7  1  0
  7  8  2  0
  7  9  1  0
  9 10  1  0
 10 11  1  0
 11 12  2  0
 11 13  1  0
 13 14  2  0
 14 15  1  0
 15 16  2  0
 16 17  1  0
 17 18  2  0
 18 19  1  0
 19 20  1  0
 20 21  1  0
 21 22  1  0
 22 23  2  0
 23 24  1  0
 24 25  1  0
 25 26  1  0
 26 27  1  0
  5 28  1  0
 28 29  2  0
 29  2  1  0
 18 13  1  0
 27 22  1  0
M  END
>  <zinc_id>  (1) 
ZINC000003279100

>  <smiles>  (1) 
Cc1ccc(NC(=O)COC(=O)c2ccccc2NCCC2=CCCCC2)cc1

$$$$
