
     RDKit          3D

 32 35  0  0  0  0  0  0  0  0999 V2000
    6.6441    1.3647    1.2034 C   0  0  0  0  0  0  0  0  0  0  0  0
    5.2610    1.0255    1.5759 C   0  0  0  0  0  0  0  0  0  0  0  0
    4.9659    0.8691    2.9022 C   0  0  0  0  0  0  0  0  0  0  0  0
    3.7187    0.5571    3.3284 C   0  0  0  0  0  0  0  0  0  0  0  0
    2.6993    0.3897    2.3750 C   0  0  0  0  0  0  0  0  0  0  0  0
    1.3659    0.0556    2.9251 C   0  0  0  0  0  0  0  0  0  0  0  0
    2.9544    0.5374    1.0411 C   0  0  0  0  0  0  0  0  0  0  0  0
    1.9684    0.3743    0.0628 N   0  0  0  0  0  0  0  0  0  0  0  0
    2.0946    0.5217   -1.2990 C   0  0  0  0  0  0  0  0  0  0  0  0
    3.2081    0.8416   -1.7817 O   0  0  0  0  0  0  0  0  0  0  0  0
    1.0226    0.3461   -2.3647 C   0  0  2  0  0  0  0  0  0  0  0  0
   -0.4494    1.0490   -1.4053 S   0  0  0  0  0  0  0  0  0  0  0  0
   -0.8666   -0.0191   -0.0728 C   0  0  0  0  0  0  0  0  0  0  0  0
   -0.2422   -1.1705    0.2230 N   0  0  0  0  0  0  0  0  0  0  0  0
   -0.7996   -1.7535    1.2828 N   0  0  0  0  0  0  0  0  0  0  0  0
   -1.8026   -0.9257    1.6482 C   0  0  0  0  0  0  0  0  0  0  0  0
   -2.7218   -1.1506    2.7918 C   0  0  0  0  0  0  0  0  0  0  0  0
   -1.8439    0.1333    0.8212 N   0  0  0  0  0  0  0  0  0  0  0  0
   -2.7689    1.2278    0.8882 C   0  0  0  0  0  0  0  0  0  0  0  0
   -4.0090    0.9802    0.0814 C   0  0  0  0  0  0  0  0  0  0  0  0
   -4.0915    1.3470   -1.2417 C   0  0  0  0  0  0  0  0  0  0  0  0
   -5.1940    1.1437   -2.0124 C   0  0  0  0  0  0  0  0  0  0  0  0
   -6.2998    0.5394   -1.4587 C   0  0  0  0  0  0  0  0  0  0  0  0
   -6.2521    0.1584   -0.1344 C   0  0  0  0  0  0  0  0  0  0  0  0
   -5.1226    0.3742    0.6303 C   0  0  0  0  0  0  0  0  0  0  0  0
    0.6909   -1.1424   -2.2187 C   0  0  0  0  0  0  0  0  0  0  0  0
   -0.5508   -1.5557   -2.5978 C   0  0  0  0  0  0  0  0  0  0  0  0
   -0.8504   -2.9083   -2.4849 C   0  0  0  0  0  0  0  0  0  0  0  0
    0.0825   -3.7917   -2.0051 C   0  0  0  0  0  0  0  0  0  0  0  0
    1.3468   -3.3846   -1.6165 C   0  0  0  0  0  0  0  0  0  0  0  0
    1.6066   -2.0229   -1.7453 C   0  0  0  0  0  0  0  0  0  0  0  0
    4.2353    0.8542    0.6582 C   0  0  0  0  0  0  0  0  0  0  0  0
  1  2  1  0
  2  3  2  0
  3  4  1  0
  4  5  2  0
  5  6  1  0
  5  7  1  0
  7  8  1  0
  8  9  1  0
  9 10  2  0
 11  9  1  1
 11 12  1  0
 12 13  1  0
 13 14  2  0
 14 15  1  0
 15 16  2  0
 16 17  1  0
 16 18  1  0
 18 19  1  0
 19 20  1  0
 20 21  2  0
 21 22  1  0
 22 23  2  0
 23 24  1  0
 24 25  2  0
 11 26  1  0
 26 27  2  0
 27 28  1  0
 28 29  2  0
 29 30  1  0
 30 31  2  0
  7 32  2  0
 32  2  1  0
 18 13  1  0
 25 20  1  0
 31 26  1  0
M  END
>  <zinc_id>  (1) 
ZINC000002660742

>  <smiles>  (1) 
Cc1ccc(C)c(NC(=O)[C@H](Sc2nnc(C)n2Cc2ccccc2)c2ccccc2)c1

$$$$
