
     RDKit          3D

 30 32  0  0  0  0  0  0  0  0999 V2000
   -6.0727    3.6021    0.6638 C   0  0  0  0  0  0  0  0  0  0  0  0
   -4.9584    2.6909    0.3801 C   0  0  0  0  0  0  0  0  0  0  0  0
   -3.6584    3.1467    0.2476 C   0  0  0  0  0  0  0  0  0  0  0  0
   -2.6754    2.2360   -0.0207 C   0  0  0  0  0  0  0  0  0  0  0  0
   -2.9303    0.8456   -0.1654 C   0  0  0  0  0  0  0  0  0  0  0  0
   -1.7370    0.0963   -0.3902 N   0  0  0  0  0  0  0  0  0  0  0  0
   -0.9605   -0.3851    0.6518 C   0  0  0  0  0  0  0  0  0  0  0  0
   -1.2426   -0.2442    1.8373 O   0  0  0  0  0  0  0  0  0  0  0  0
    0.4146   -1.1586    0.4727 C   0  0  1  0  0  0  0  0  0  0  0  0
    0.2437   -1.9674   -0.9007 C   0  0  0  0  0  0  0  0  0  0  0  0
   -0.8805   -2.9017   -0.8614 C   0  0  0  0  0  0  0  0  0  0  0  0
   -0.8847   -4.0787   -0.2108 C   0  0  0  0  0  0  0  0  0  0  0  0
   -1.9591   -4.9098   -0.2554 C   0  0  0  0  0  0  0  0  0  0  0  0
   -3.0814   -4.5855   -0.9617 C   0  0  0  0  0  0  0  0  0  0  0  0
   -3.1296   -3.3523   -1.6541 C   0  0  0  0  0  0  0  0  0  0  0  0
   -2.0308   -2.5394   -1.5890 C   0  0  0  0  0  0  0  0  0  0  0  0
    1.1462    0.0710   -0.0656 N   0  0  0  0  0  0  0  0  0  0  0  0
    2.3167    0.6051    0.3827 C   0  0  0  0  0  0  0  0  0  0  0  0
    2.9054    0.0216    1.3711 O   0  0  0  0  0  0  0  0  0  0  0  0
    2.9078    1.7312   -0.1461 O   0  0  0  0  0  0  0  0  0  0  0  0
    4.0158    2.4244    0.0631 C   0  0  0  0  0  0  0  0  0  0  0  0
    5.2560    1.6427   -0.2856 C   0  0  0  0  0  0  0  0  0  0  0  0
    5.5154    1.6733   -1.6790 C   0  0  0  0  0  0  0  0  0  0  0  0
    6.7023    0.9867   -2.1006 C   0  0  0  0  0  0  0  0  0  0  0  0
    7.4844    0.3801   -1.2158 C   0  0  0  0  0  0  0  0  0  0  0  0
    7.2327    0.3481    0.1408 C   0  0  0  0  0  0  0  0  0  0  0  0
    6.0472    1.0312    0.5723 C   0  0  0  0  0  0  0  0  0  0  0  0
   -4.1949    0.4312   -0.0429 C   0  0  0  0  0  0  0  0  0  0  0  0
   -5.1996    1.3421    0.2304 C   0  0  0  0  0  0  0  0  0  0  0  0
   -6.5924    0.8164    0.3825 C   0  0  0  0  0  0  0  0  0  0  0  0
  1  2  1  0
  2  3  2  0
  3  4  1  0
  4  5  2  0
  5  6  1  0
  6  7  1  0
  7  8  2  0
  7  9  1  0
  9 10  1  6
 10 11  1  0
 11 12  2  0
 12 13  1  0
 13 14  2  0
 14 15  1  0
 15 16  2  0
  9 17  1  0
 17 18  1  0
 18 19  2  0
 18 20  1  0
 20 21  1  0
 21 22  1  0
 22 23  2  0
 23 24  1  0
 24 25  2  0
 25 26  1  0
 26 27  2  0
  5 28  1  0
 28 29  2  0
 29 30  1  0
 29  2  1  0
 16 11  1  0
 27 22  1  0
M  END
>  <zinc_id>  (1) 
ZINC000000788078

>  <smiles>  (1) 
Cc1ccc(NC(=O)[C@@H](Cc2ccccc2)NC(=O)OCc2ccccc2)cc1C

$$$$
