
     RDKit          3D

 31 34  0  0  0  0  0  0  0  0999 V2000
    0.2887    0.4714    2.6307 C   0  0  0  0  0  0  0  0  0  0  0  0
    0.9952    1.3622    1.7878 O   0  0  0  0  0  0  0  0  0  0  0  0
    1.8991    0.8212    1.0380 C   0  0  0  0  0  0  0  0  0  0  0  0
    1.8565    0.0109   -0.1142 C   0  0  0  0  0  0  0  0  0  0  0  0
    3.0901   -0.5246   -0.5470 C   0  0  0  0  0  0  0  0  0  0  0  0
    4.2970   -0.2398    0.2208 C   0  0  0  0  0  0  0  0  0  0  0  0
    4.2716    0.4738    1.2597 O   0  0  0  0  0  0  0  0  0  0  0  0
    5.5381   -0.7353   -0.1451 O   0  0  0  0  0  0  0  0  0  0  0  0
    6.7136   -0.4542    0.6078 C   0  0  0  0  0  0  0  0  0  0  0  0
    7.9096   -1.1271   -0.0220 C   0  0  0  0  0  0  0  0  0  0  0  0
    6.9730    1.0252    0.7152 C   0  0  0  0  0  0  0  0  0  0  0  0
    6.5510   -1.0599    1.9955 C   0  0  0  0  0  0  0  0  0  0  0  0
    3.1349   -1.2702   -1.6350 N   0  0  0  0  0  0  0  0  0  0  0  0
    2.0726   -1.5687   -2.3854 C   0  0  0  0  0  0  0  0  0  0  0  0
    0.8367   -1.0791   -2.0271 C   0  0  0  0  0  0  0  0  0  0  0  0
   -0.3726   -1.1793   -2.5991 N   0  0  0  0  0  0  0  0  0  0  0  0
   -1.2761   -0.4938   -1.9106 C   0  0  0  0  0  0  0  0  0  0  0  0
   -2.6306   -0.2326   -2.0466 C   0  0  0  0  0  0  0  0  0  0  0  0
   -3.2488    0.5731   -1.1211 C   0  0  0  0  0  0  0  0  0  0  0  0
   -2.5881    1.1465   -0.0455 C   0  0  0  0  0  0  0  0  0  0  0  0
   -3.2281    1.9623    0.8838 O   0  0  0  0  0  0  0  0  0  0  0  0
   -4.5875    2.2394    0.7651 C   0  0  0  0  0  0  0  0  0  0  0  0
   -5.4270    1.0256    0.8281 C   0  0  0  0  0  0  0  0  0  0  0  0
   -5.9715    0.4725   -0.3223 C   0  0  0  0  0  0  0  0  0  0  0  0
   -6.7587   -0.6527   -0.2698 C   0  0  0  0  0  0  0  0  0  0  0  0
   -7.0244   -1.2577    0.9338 C   0  0  0  0  0  0  0  0  0  0  0  0
   -6.5072   -0.7456    2.0974 C   0  0  0  0  0  0  0  0  0  0  0  0
   -5.7214    0.3814    2.0258 C   0  0  0  0  0  0  0  0  0  0  0  0
   -1.2462    0.8693    0.0648 C   0  0  0  0  0  0  0  0  0  0  0  0
   -0.5958    0.0734   -0.8338 C   0  0  0  0  0  0  0  0  0  0  0  0
    0.7563   -0.2878   -0.8830 C   0  0  0  0  0  0  0  0  0  0  0  0
  1  2  1  0
  2  3  1  0
  3  4  1  0
  4  5  2  0
  5  6  1  0
  6  7  2  0
  6  8  1  0
  8  9  1  0
  9 10  1  0
  9 11  1  0
  9 12  1  0
  5 13  1  0
 13 14  2  0
 14 15  1  0
 15 16  1  0
 16 17  1  0
 17 18  2  0
 18 19  1  0
 19 20  2  0
 20 21  1  0
 21 22  1  0
 22 23  1  0
 23 24  2  0
 24 25  1  0
 25 26  2  0
 26 27  1  0
 27 28  2  0
 20 29  1  0
 29 30  2  0
 30 31  1  0
 31  4  1  0
 31 15  2  0
 30 17  1  0
 28 23  1  0
M  END
>  <zinc_id>  (1) 
ZINC000000607149

>  <smiles>  (1) 
COCc1c(C(=O)OC(C)(C)C)ncc2[nH]c3ccc(OCc4ccccc4)cc3c12

$$$$
