
     RDKit          3D

 30 33  0  0  0  0  0  0  0  0999 V2000
   -8.5754   -1.2358    3.1717 C   0  0  0  0  0  0  0  0  0  0  0  0
   -7.2304   -0.8050    3.1063 O   0  0  0  0  0  0  0  0  0  0  0  0
   -6.5670   -0.8423    1.8793 C   0  0  0  0  0  0  0  0  0  0  0  0
   -7.1688   -1.2835    0.7200 C   0  0  0  0  0  0  0  0  0  0  0  0
   -6.4690   -1.3040   -0.4844 C   0  0  0  0  0  0  0  0  0  0  0  0
   -5.1643   -0.8894   -0.5638 C   0  0  0  0  0  0  0  0  0  0  0  0
   -4.4474   -0.9265   -1.8745 C   0  0  0  0  0  0  0  0  0  0  0  0
   -4.6344    0.3984   -2.6207 C   0  0  0  0  0  0  0  0  0  0  0  0
   -4.0592    1.4722   -1.7311 C   0  0  0  0  0  0  0  0  0  0  0  0
   -2.6240    1.1811   -1.5004 C   0  0  0  0  0  0  0  0  0  0  0  0
   -2.0843    0.1698   -2.0175 O   0  0  0  0  0  0  0  0  0  0  0  0
   -1.7902    2.0080   -0.6993 N   0  0  0  0  0  0  0  0  0  0  0  0
   -0.4077    1.6684   -0.5167 C   0  0  0  0  0  0  0  0  0  0  0  0
    0.0977    0.5352   -1.1258 C   0  0  0  0  0  0  0  0  0  0  0  0
    1.4451    0.1809   -0.9634 C   0  0  0  0  0  0  0  0  0  0  0  0
    2.2862    0.9477   -0.2002 C   0  0  0  0  0  0  0  0  0  0  0  0
    3.6998    0.6056   -0.0100 C   0  0  0  0  0  0  0  0  0  0  0  0
    4.3967   -0.4024   -0.4785 N   0  0  0  0  0  0  0  0  0  0  0  0
    5.6558   -0.5305   -0.1907 C   0  0  0  0  0  0  0  0  0  0  0  0
    6.5117   -1.5610   -0.6272 C   0  0  0  0  0  0  0  0  0  0  0  0
    7.8162   -1.6017   -0.2674 C   0  0  0  0  0  0  0  0  0  0  0  0
    8.4004   -0.6603    0.5367 C   0  0  0  0  0  0  0  0  0  0  0  0
    9.8191   -0.7178    0.9191 C   0  0  0  0  0  0  0  0  0  0  0  0
    7.5764    0.3729    0.9843 C   0  0  0  0  0  0  0  0  0  0  0  0
    6.2246    0.4184    0.6137 C   0  0  0  0  0  0  0  0  0  0  0  0
    4.8952    1.4519    0.9116 S   0  0  0  0  0  0  0  0  0  0  0  0
    1.7717    2.0729    0.4008 C   0  0  0  0  0  0  0  0  0  0  0  0
    0.4356    2.4259    0.2409 C   0  0  0  0  0  0  0  0  0  0  0  0
   -4.5571   -0.4469    0.5933 C   0  0  0  0  0  0  0  0  0  0  0  0
   -5.2528   -0.4259    1.7938 C   0  0  0  0  0  0  0  0  0  0  0  0
  1  2  1  0
  2  3  1  0
  3  4  2  0
  4  5  1  0
  5  6  2  0
  6  7  1  0
  7  8  1  0
  8  9  1  0
  9 10  1  0
 10 11  2  0
 10 12  1  0
 12 13  1  0
 13 14  2  0
 14 15  1  0
 15 16  2  0
 16 17  1  0
 17 18  2  0
 18 19  1  0
 19 20  2  0
 20 21  1  0
 21 22  2  0
 22 23  1  0
 22 24  1  0
 24 25  2  0
 25 26  1  0
 16 27  1  0
 27 28  2  0
  6 29  1  0
 29 30  2  0
 30  3  1  0
 28 13  1  0
 26 17  1  0
 25 19  1  0
M  END
>  <zinc_id>  (1) 
ZINC000002910650

>  <smiles>  (1) 
COc1ccc(CCCC(=O)Nc2ccc(-c3nc4ccc(C)cc4s3)cc2)cc1

$$$$
