
     RDKit          3D

 30 33  0  0  0  0  0  0  0  0999 V2000
   -5.7617    0.3500    1.3073 C   0  0  0  0  0  0  0  0  0  0  0  0
   -4.6635    0.3462    0.4157 O   0  0  0  0  0  0  0  0  0  0  0  0
   -4.9037    0.8681   -0.8739 C   0  0  0  0  0  0  0  0  0  0  0  0
   -6.1619    1.3536   -1.2264 C   0  0  0  0  0  0  0  0  0  0  0  0
   -6.3435    1.8562   -2.5044 C   0  0  0  0  0  0  0  0  0  0  0  0
   -5.2835    1.8637   -3.3874 C   0  0  0  0  0  0  0  0  0  0  0  0
   -4.0392    1.3695   -2.9983 C   0  0  0  0  0  0  0  0  0  0  0  0
   -3.8462    0.8657   -1.7297 C   0  0  0  0  0  0  0  0  0  0  0  0
   -2.5278    0.3279   -1.3106 C   0  0  0  0  0  0  0  0  0  0  0  0
   -1.6253    0.3937   -2.1750 O   0  0  0  0  0  0  0  0  0  0  0  0
   -2.2615   -0.1984   -0.1125 N   0  0  0  0  0  0  0  0  0  0  0  0
   -1.2364   -0.7360    0.6487 C   0  0  0  0  0  0  0  0  0  0  0  0
   -1.5913   -1.7869    2.0409 S   0  0  0  0  0  0  0  0  0  0  0  0
   -0.0366   -2.1040    2.5580 C   0  0  0  0  0  0  0  0  0  0  0  0
    0.7405   -1.4183    1.6901 C   0  0  0  0  0  0  0  0  0  0  0  0
    0.1223   -0.7029    0.6974 C   0  0  0  0  0  0  0  0  0  0  0  0
    0.9501    0.2077   -0.1550 C   0  0  0  0  0  0  0  0  0  0  0  0
    0.4825    1.0754   -0.9031 O   0  0  0  0  0  0  0  0  0  0  0  0
    2.3780    0.1283   -0.1595 N   0  0  0  0  0  0  0  0  0  0  0  0
    3.1585    1.0291   -1.0100 C   0  0  0  0  0  0  0  0  0  0  0  0
    4.5787    1.0395   -0.5995 C   0  0  0  0  0  0  0  0  0  0  0  0
    5.5280    1.1341   -1.5940 C   0  0  0  0  0  0  0  0  0  0  0  0
    6.8589    1.1545   -1.2350 C   0  0  0  0  0  0  0  0  0  0  0  0
    7.2456    1.0821    0.0738 C   0  0  0  0  0  0  0  0  0  0  0  0
    6.3088    0.9885    1.0578 C   0  0  0  0  0  0  0  0  0  0  0  0
    4.9638    0.9670    0.7133 C   0  0  0  0  0  0  0  0  0  0  0  0
    2.2350   -1.5973    2.0111 C   0  0  0  0  0  0  0  0  0  0  0  0
    2.4393   -3.1146    1.8924 C   0  0  0  0  0  0  0  0  0  0  0  0
    1.6249   -3.8491    2.9356 C   0  0  0  0  0  0  0  0  0  0  0  0
    0.6674   -2.8935    3.6469 C   0  0  0  0  0  0  0  0  0  0  0  0
  1  2  1  0
  2  3  1  0
  3  4  2  0
  4  5  1  0
  5  6  2  0
  6  7  1  0
  7  8  2  0
  8  9  1  0
  9 10  2  0
  9 11  1  0
 11 12  1  0
 12 13  1  0
 13 14  1  0
 14 15  2  0
 15 16  1  0
 16 17  1  0
 17 18  2  0
 17 19  1  0
 19 20  1  0
 20 21  1  0
 21 22  2  0
 22 23  1  0
 23 24  2  0
 24 25  1  0
 25 26  2  0
 15 27  1  0
 27 28  1  0
 28 29  1  0
 29 30  1  0
  8  3  1  0
 16 12  2  0
 26 21  1  0
 30 14  1  0
M  END
>  <zinc_id>  (1) 
ZINC000001126371

>  <smiles>  (1) 
COc1ccccc1C(=O)Nc1sc2c(c1C(=O)NCc1ccccc1)CCCC2

$$$$
