
     RDKit          3D

 33 36  0  0  0  0  0  0  0  0999 V2000
   -4.8569   -3.2400    0.6891 C   0  0  0  0  0  0  0  0  0  0  0  0
   -5.6760   -2.1356    1.0004 O   0  0  0  0  0  0  0  0  0  0  0  0
   -5.1828   -0.8597    0.7157 C   0  0  0  0  0  0  0  0  0  0  0  0
   -3.9337   -0.6679    0.1468 C   0  0  0  0  0  0  0  0  0  0  0  0
   -3.5319    0.6139   -0.0973 C   0  0  0  0  0  0  0  0  0  0  0  0
   -2.2546    0.9248   -0.6847 N   0  0  0  0  0  0  0  0  0  0  0  0
   -1.3201   -0.0644   -1.0535 C   0  0  0  0  0  0  0  0  0  0  0  0
   -1.6664   -1.2698   -0.8380 O   0  0  0  0  0  0  0  0  0  0  0  0
   -0.0260    0.2203   -1.6471 C   0  0  0  0  0  0  0  0  0  0  0  0
    0.3192    1.5338   -1.8674 C   0  0  0  0  0  0  0  0  0  0  0  0
    1.5372    1.8883   -2.4304 C   0  0  0  0  0  0  0  0  0  0  0  0
    2.4096    0.9056   -2.7719 C   0  0  0  0  0  0  0  0  0  0  0  0
    2.0983   -0.4042   -2.5669 C   0  0  0  0  0  0  0  0  0  0  0  0
    2.9840   -1.5441   -2.9065 C   0  0  0  0  0  0  0  0  0  0  0  0
    3.5218   -2.0810   -1.7269 O   0  0  0  0  0  0  0  0  0  0  0  0
    4.3037   -1.2822   -0.9145 C   0  0  0  0  0  0  0  0  0  0  0  0
    4.6047    0.0277   -1.1804 C   0  0  0  0  0  0  0  0  0  0  0  0
    5.3837    0.7975   -0.3560 C   0  0  0  0  0  0  0  0  0  0  0  0
    5.9098    0.2767    0.8015 C   0  0  0  0  0  0  0  0  0  0  0  0
    6.6975    1.0672    1.6282 C   0  0  0  0  0  0  0  0  0  0  0  0
    7.2151    0.5238    2.7850 C   0  0  0  0  0  0  0  0  0  0  0  0
    6.9478   -0.7881    3.1068 C   0  0  0  0  0  0  0  0  0  0  0  0
    6.1646   -1.5442    2.2677 C   0  0  0  0  0  0  0  0  0  0  0  0
    5.6231   -1.0326    1.0904 C   0  0  0  0  0  0  0  0  0  0  0  0
    4.8419   -1.8110    0.2673 C   0  0  0  0  0  0  0  0  0  0  0  0
    0.8633   -0.7548   -1.9965 C   0  0  0  0  0  0  0  0  0  0  0  0
   -4.3516    1.6828    0.2161 C   0  0  0  0  0  0  0  0  0  0  0  0
   -5.5922    1.4893    0.7812 C   0  0  0  0  0  0  0  0  0  0  0  0
   -6.3848    2.5829    1.0813 O   0  0  0  0  0  0  0  0  0  0  0  0
   -5.9160    3.8822    0.8063 C   0  0  0  0  0  0  0  0  0  0  0  0
   -6.0097    0.2002    1.0328 C   0  0  0  0  0  0  0  0  0  0  0  0
   -7.2664    0.0380    1.6035 O   0  0  0  0  0  0  0  0  0  0  0  0
   -7.4562    0.0050    3.0178 C   0  0  0  0  0  0  0  0  0  0  0  0
  1  2  1  0
  2  3  1  0
  3  4  2  0
  4  5  1  0
  5  6  1  0
  6  7  1  0
  7  8  2  0
  7  9  1  0
  9 10  2  0
 10 11  1  0
 11 12  2  0
 12 13  1  0
 13 14  1  0
 14 15  1  0
 15 16  1  0
 16 17  2  0
 17 18  1  0
 18 19  2  0
 19 20  1  0
 20 21  2  0
 21 22  1  0
 22 23  2  0
 23 24  1  0
 24 25  2  0
 13 26  2  0
  5 27  2  0
 27 28  1  0
 28 29  1  0
 29 30  1  0
 28 31  2  0
 31 32  1  0
 32 33  1  0
 31  3  1  0
 26  9  1  0
 25 16  1  0
 24 19  1  0
M  END
>  <zinc_id>  (1) 
ZINC000000673177

>  <smiles>  (1) 
COc1cc(NC(=O)c2cccc(COc3ccc4ccccc4c3)c2)cc(OC)c1OC

$$$$
