
     RDKit          3D

 31 34  0  0  0  0  0  0  0  0999 V2000
    6.5810   -1.3544   -1.9951 C   0  0  0  0  0  0  0  0  0  0  0  0
    5.4012   -0.6791   -1.6894 O   0  0  0  0  0  0  0  0  0  0  0  0
    5.2185   -0.0619   -0.4360 C   0  0  0  0  0  0  0  0  0  0  0  0
    6.1703   -0.0828    0.5511 C   0  0  0  0  0  0  0  0  0  0  0  0
    5.9944    0.5195    1.7733 C   0  0  0  0  0  0  0  0  0  0  0  0
    4.7899    1.1590    1.9649 C   0  0  0  0  0  0  0  0  0  0  0  0
    4.4908    1.8530    3.2659 C   0  0  0  0  0  0  0  0  0  0  0  0
    3.7944    1.2158    1.0160 C   0  0  0  0  0  0  0  0  0  0  0  0
    4.0104    0.5996   -0.1943 C   0  0  0  0  0  0  0  0  0  0  0  0
    3.0569    0.5957   -1.2535 N   0  0  0  0  0  0  0  0  0  0  0  0
    1.7903    1.2030   -1.0439 C   0  0  0  0  0  0  0  0  0  0  0  0
    1.5779    1.7073    0.0628 O   0  0  0  0  0  0  0  0  0  0  0  0
    0.8356    1.1908   -2.1347 C   0  0  0  0  0  0  0  0  0  0  0  0
   -0.8042    1.7681   -1.8651 S   0  0  0  0  0  0  0  0  0  0  0  0
   -1.8199    0.7605   -0.8129 C   0  0  0  0  0  0  0  0  0  0  0  0
   -2.4982   -0.3138   -1.3294 N   0  0  0  0  0  0  0  0  0  0  0  0
   -3.2856   -1.0757   -0.5537 C   0  0  0  0  0  0  0  0  0  0  0  0
   -4.0176   -2.2190   -1.0786 C   0  0  0  0  0  0  0  0  0  0  0  0
   -4.7877   -3.0118   -0.2810 C   0  0  0  0  0  0  0  0  0  0  0  0
   -5.4982   -4.1016   -0.7333 C   0  0  0  0  0  0  0  0  0  0  0  0
   -5.4462   -4.4325   -2.0591 C   0  0  0  0  0  0  0  0  0  0  0  0
   -4.6787   -3.6632   -2.9131 C   0  0  0  0  0  0  0  0  0  0  0  0
   -3.9761   -2.5733   -2.4303 C   0  0  0  0  0  0  0  0  0  0  0  0
   -3.4180   -0.7830    0.7574 N   0  0  0  0  0  0  0  0  0  0  0  0
   -2.7817    0.2491    1.3006 C   0  0  0  0  0  0  0  0  0  0  0  0
   -2.9180    0.5814    2.6360 C   0  0  0  0  0  0  0  0  0  0  0  0
   -2.2741    1.6662    3.2019 C   0  0  0  0  0  0  0  0  0  0  0  0
   -1.4598    2.4659    2.4332 C   0  0  0  0  0  0  0  0  0  0  0  0
   -0.7535    3.6427    3.0392 C   0  0  0  0  0  0  0  0  0  0  0  0
   -1.3260    2.1337    1.1123 C   0  0  0  0  0  0  0  0  0  0  0  0
   -1.9684    1.0409    0.5220 C   0  0  0  0  0  0  0  0  0  0  0  0
  1  2  1  0
  2  3  1  0
  3  4  2  0
  4  5  1  0
  5  6  2  0
  6  7  1  0
  6  8  1  0
  8  9  2  0
  9 10  1  0
 10 11  1  0
 11 12  2  0
 11 13  1  0
 13 14  1  0
 14 15  1  0
 15 16  2  0
 16 17  1  0
 17 18  1  0
 18 19  2  0
 19 20  1  0
 20 21  2  0
 21 22  1  0
 22 23  2  0
 17 24  2  0
 24 25  1  0
 25 26  2  0
 26 27  1  0
 27 28  2  0
 28 29  1  0
 28 30  1  0
 30 31  2  0
  9  3  1  0
 31 15  1  0
 23 18  1  0
 31 25  1  0
M  END
>  <zinc_id>  (1) 
ZINC000000906284

>  <smiles>  (1) 
COc1ccc(C)cc1NC(=O)CSc1nc(-c2ccccc2)nc2ccc(C)cc12

$$$$
