
     RDKit          3D

 32 35  0  0  0  0  0  0  0  0999 V2000
    8.3914    1.9415    0.2666 C   0  0  0  0  0  0  0  0  0  0  0  0
    7.1964    2.6746    0.0823 O   0  0  0  0  0  0  0  0  0  0  0  0
    5.9879    2.0161    0.1033 C   0  0  0  0  0  0  0  0  0  0  0  0
    5.9449    0.6543    0.3036 C   0  0  0  0  0  0  0  0  0  0  0  0
    4.7098    0.0456    0.3150 C   0  0  0  0  0  0  0  0  0  0  0  0
    3.5151    0.7470    0.1335 C   0  0  0  0  0  0  0  0  0  0  0  0
    2.2290    0.0825    0.1537 C   0  0  0  0  0  0  0  0  0  0  0  0
    1.0945    0.8263   -0.0571 C   0  0  0  0  0  0  0  0  0  0  0  0
   -0.1542    0.1732   -0.0442 C   0  0  0  0  0  0  0  0  0  0  0  0
   -1.3487    0.9710   -0.2674 C   0  0  0  0  0  0  0  0  0  0  0  0
   -2.2491    0.5227   -0.9863 O   0  0  0  0  0  0  0  0  0  0  0  0
   -1.4722    2.2118    0.3167 N   0  0  0  0  0  0  0  0  0  0  0  0
   -2.7419    3.0981    0.0977 C   0  0  1  0  0  0  0  0  0  0  0  0
   -2.6615    3.0556   -1.5558 C   0  0  0  0  0  0  0  0  0  0  0  0
   -3.8282    1.9452    0.2523 C   0  0  0  0  0  0  0  0  0  0  0  0
   -3.6552    1.0829    1.2884 C   0  0  0  0  0  0  0  0  0  0  0  0
   -4.5775    0.0522    1.4834 C   0  0  0  0  0  0  0  0  0  0  0  0
   -5.6426   -0.0667    0.6171 C   0  0  0  0  0  0  0  0  0  0  0  0
   -5.7757    0.8273   -0.4145 C   0  0  0  0  0  0  0  0  0  0  0  0
   -4.8552    1.8402   -0.5909 C   0  0  0  0  0  0  0  0  0  0  0  0
   -0.1829   -1.1806    0.1795 C   0  0  0  0  0  0  0  0  0  0  0  0
   -1.4226   -1.8271    0.1937 C   0  0  0  0  0  0  0  0  0  0  0  0
   -1.5365   -3.1832    0.4128 C   0  0  0  0  0  0  0  0  0  0  0  0
   -2.8566   -3.8386    0.4221 C   0  0  0  0  0  0  0  0  0  0  0  0
   -2.9983   -4.8697    1.5218 C   0  0  0  0  0  0  0  0  0  0  0  0
   -3.2391   -4.4064   -0.9208 C   0  0  0  0  0  0  0  0  0  0  0  0
   -0.3434   -3.8804    0.6211 C   0  0  0  0  0  0  0  0  0  0  0  0
    0.8789   -3.2371    0.6060 C   0  0  0  0  0  0  0  0  0  0  0  0
    0.9682   -1.8924    0.3870 C   0  0  0  0  0  0  0  0  0  0  0  0
    2.1510   -1.2359    0.3678 N   0  0  0  0  0  0  0  0  0  0  0  0
    3.6380    2.1043   -0.0609 C   0  0  0  0  0  0  0  0  0  0  0  0
    4.8365    2.7457   -0.0791 C   0  0  0  0  0  0  0  0  0  0  0  0
  1  2  1  0
  2  3  1  0
  3  4  2  0
  4  5  1  0
  5  6  2  0
  6  7  1  0
  7  8  2  0
  8  9  1  0
  9 10  1  0
 10 11  2  0
 10 12  1  0
 12 13  1  0
 13 14  1  6
 13 15  1  0
 15 16  2  0
 16 17  1  0
 17 18  2  0
 18 19  1  0
 19 20  2  0
  9 21  2  0
 21 22  1  0
 22 23  2  0
 23 24  1  0
 24 25  1  0
 24 26  1  0
 23 27  1  0
 27 28  2  0
 28 29  1  0
 29 30  2  0
  6 31  1  0
 31 32  2  0
 32  3  1  0
 30  7  1  0
 20 15  1  0
 29 21  1  0
M  END
>  <zinc_id>  (1) 
ZINC000003046894

>  <smiles>  (1) 
COc1ccc(-c2cc(C(=O)N[C@@H](C)c3ccccc3)c3cc(C(C)C)ccc3n2)cc1

$$$$
