
     RDKit          3D

 32 36  0  0  0  0  0  0  0  0999 V2000
   -6.4198   -0.6029   -2.2884 C   0  0  0  0  0  0  0  0  0  0  0  0
   -5.7883    0.3484   -1.2975 C   0  0  0  0  0  0  0  0  0  0  0  0
   -6.0049    1.7644   -1.7499 C   0  0  0  0  0  0  0  0  0  0  0  0
   -4.3287   -0.0272   -1.1820 C   0  0  0  0  0  0  0  0  0  0  0  0
   -3.6307    0.7464   -0.1795 N   0  0  0  0  0  0  0  0  0  0  0  0
   -2.5696    1.5454   -0.7746 C   0  0  0  0  0  0  0  0  0  0  0  0
   -1.5401    0.5049   -1.2552 C   0  0  0  0  0  0  0  0  0  0  0  0
   -1.1050   -0.2593    0.0035 C   0  0  0  0  0  0  0  0  0  0  0  0
   -0.0988   -1.3414   -0.3324 C   0  0  0  0  0  0  0  0  0  0  0  0
    0.6965   -1.7391    0.8975 C   0  0  0  0  0  0  0  0  0  0  0  0
    1.6439   -0.5617    1.2086 C   0  0  0  0  0  0  0  0  0  0  0  0
    2.9927   -0.9059    0.8495 N   0  0  0  0  0  0  0  0  0  0  0  0
    3.8669   -0.1086    0.0824 C   0  0  0  0  0  0  0  0  0  0  0  0
    3.4190    1.0116   -0.3218 O   0  0  0  0  0  0  0  0  0  0  0  0
    5.2244   -0.5618   -0.2298 C   0  0  0  0  0  0  0  0  0  0  0  0
    5.6361   -1.8418   -0.5606 C   0  0  0  0  0  0  0  0  0  0  0  0
    6.9540   -1.8084   -0.7697 N   0  0  0  0  0  0  0  0  0  0  0  0
    7.4485   -0.5574   -0.5931 C   0  0  0  0  0  0  0  0  0  0  0  0
    8.6931   -0.0743   -0.6957 N   0  0  0  0  0  0  0  0  0  0  0  0
    8.9227    1.2207   -0.4653 C   0  0  0  0  0  0  0  0  0  0  0  0
    7.8762    2.0460   -0.1235 C   0  0  0  0  0  0  0  0  0  0  0  0
    6.6087    1.5422   -0.0220 C   0  0  0  0  0  0  0  0  0  0  0  0
    6.3435    0.2195   -0.2526 C   0  0  0  0  0  0  0  0  0  0  0  0
    1.1256    0.6742    0.4753 C   0  0  0  0  0  0  0  0  0  0  0  0
   -0.3575    0.7641    0.8601 C   0  0  0  0  0  0  0  0  0  0  0  0
   -4.4765    1.4803    0.7000 C   0  0  0  0  0  0  0  0  0  0  0  0
   -5.7067    0.7470    1.0895 C   0  0  0  0  0  0  0  0  0  0  0  0
   -6.1499    0.6507    2.3923 C   0  0  0  0  0  0  0  0  0  0  0  0
   -7.3155   -0.0587    2.6362 C   0  0  0  0  0  0  0  0  0  0  0  0
   -7.9932   -0.6442    1.5765 C   0  0  0  0  0  0  0  0  0  0  0  0
   -7.5540   -0.5502    0.2777 C   0  0  0  0  0  0  0  0  0  0  0  0
   -6.4124    0.1457    0.0444 C   0  0  0  0  0  0  0  0  0  0  0  0
  1  2  1  0
  2  3  1  0
  2  4  1  0
  4  5  1  0
  5  6  1  0
  6  7  1  0
  7  8  1  0
  8  9  1  0
  9 10  1  0
 10 11  1  0
 11 12  1  0
 12 13  1  0
 13 14  2  0
 13 15  1  0
 15 16  2  0
 16 17  1  0
 17 18  1  0
 18 19  2  0
 19 20  1  0
 20 21  2  0
 21 22  1  0
 22 23  2  0
 11 24  1  0
 24 25  1  0
  5 26  1  0
 26 27  1  0
 27 28  2  0
 28 29  1  0
 29 30  2  0
 30 31  1  0
 31 32  2  0
 32  2  1  0
 25  8  1  0
 32 27  1  0
 23 15  1  0
 23 18  1  0
M  END
>  <zinc_id>  (1) 
ZINC000000588611

>  <smiles>  (1) 
CC1(C)CN(CCC2CCC(NC(=O)c3c[nH]c4ncccc34)CC2)Cc2ccccc21

$$$$
