
     RDKit          3D

 29 31  0  0  0  0  0  0  0  0999 V2000
   -7.6187    1.0681   -1.3890 C   0  0  0  0  0  0  0  0  0  0  0  0
   -6.4921    1.0230   -0.3509 C   0  0  0  0  0  0  0  0  0  0  0  0
   -7.0621    0.6466    0.9818 C   0  0  0  0  0  0  0  0  0  0  0  0
   -5.9277    0.6085    1.9933 C   0  0  0  0  0  0  0  0  0  0  0  0
   -5.2485    1.9659    2.1019 C   0  0  0  0  0  0  0  0  0  0  0  0
   -4.7023    2.3855    0.8797 O   0  0  0  0  0  0  0  0  0  0  0  0
   -3.7226    1.6187    0.2471 C   0  0  0  0  0  0  0  0  0  0  0  0
   -3.2474    0.4355    0.7728 C   0  0  0  0  0  0  0  0  0  0  0  0
   -2.2890   -0.3024    0.1414 C   0  0  0  0  0  0  0  0  0  0  0  0
   -1.7466    0.1016   -1.0593 C   0  0  0  0  0  0  0  0  0  0  0  0
   -0.7236   -0.6994   -1.7196 C   0  0  0  0  0  0  0  0  0  0  0  0
   -0.3564   -1.7623   -1.1609 O   0  0  0  0  0  0  0  0  0  0  0  0
   -0.1486   -0.3372   -2.9246 O   0  0  0  0  0  0  0  0  0  0  0  0
    0.8451   -1.1162   -3.5651 C   0  0  0  0  0  0  0  0  0  0  0  0
    2.0472   -1.2772   -2.7194 C   0  0  0  0  0  0  0  0  0  0  0  0
    3.0125   -1.9343   -3.1349 O   0  0  0  0  0  0  0  0  0  0  0  0
    2.0949   -0.6855   -1.4456 N   0  0  0  0  0  0  0  0  0  0  0  0
    3.2070   -0.7850   -0.5608 C   0  0  0  0  0  0  0  0  0  0  0  0
    4.3547   -1.4666   -0.8482 C   0  0  0  0  0  0  0  0  0  0  0  0
    5.3693   -1.4941    0.0902 C   0  0  0  0  0  0  0  0  0  0  0  0
    5.2462   -0.8518    1.3014 C   0  0  0  0  0  0  0  0  0  0  0  0
    6.2592   -0.8781    2.2409 C   0  0  0  0  0  0  0  0  0  0  0  0
    6.1223   -0.2256    3.4596 C   0  0  0  0  0  0  0  0  0  0  0  0
    4.9718    0.4676    3.7683 C   0  0  0  0  0  0  0  0  0  0  0  0
    3.9687    0.4855    2.8213 C   0  0  0  0  0  0  0  0  0  0  0  0
    4.0998   -0.1606    1.6100 C   0  0  0  0  0  0  0  0  0  0  0  0
    3.0817   -0.1382    0.6576 C   0  0  0  0  0  0  0  0  0  0  0  0
   -2.2140    1.2836   -1.5950 C   0  0  0  0  0  0  0  0  0  0  0  0
   -3.1809    2.0244   -0.9541 C   0  0  0  0  0  0  0  0  0  0  0  0
  1  2  1  0
  2  3  1  0
  3  4  1  0
  4  5  1  0
  5  6  1  0
  6  7  1  0
  7  8  2  0
  8  9  1  0
  9 10  2  0
 10 11  1  0
 11 12  2  0
 11 13  1  0
 13 14  1  0
 14 15  1  0
 15 16  2  0
 15 17  1  0
 17 18  1  0
 18 19  2  0
 19 20  1  0
 20 21  2  0
 21 22  1  0
 22 23  2  0
 23 24  1  0
 24 25  2  0
 25 26  1  0
 26 27  2  0
 10 28  1  0
 28 29  2  0
 29  7  1  0
 27 18  1  0
 26 21  1  0
M  END
>  <zinc_id>  (1) 
ZINC000003297299

>  <smiles>  (1) 
CCCCCOc1ccc(C(=O)OCC(=O)Nc2ccc3ccccc3c2)cc1

$$$$
