
     RDKit          3D

 31 35  0  0  0  0  0  0  0  0999 V2000
   -5.7471    1.3920   -2.9227 O   0  0  0  0  0  0  0  0  0  0  0  0
   -4.6425    0.7174   -2.4155 C   0  0  0  0  0  0  0  0  0  0  0  0
   -3.3564    1.2007   -2.4931 C   0  0  0  0  0  0  0  0  0  0  0  0
   -2.2795    0.5022   -1.9769 C   0  0  0  0  0  0  0  0  0  0  0  0
   -2.4863   -0.6500   -1.3983 C   0  0  0  0  0  0  0  0  0  0  0  0
   -3.7431   -1.2190   -1.2721 C   0  0  0  0  0  0  0  0  0  0  0  0
   -4.8263   -0.5015   -1.7989 C   0  0  0  0  0  0  0  0  0  0  0  0
   -3.9852   -2.5257   -0.6344 C   0  0  0  0  0  0  0  0  0  0  0  0
   -3.1301   -2.7136    0.5918 C   0  0  0  0  0  0  0  0  0  0  0  0
   -2.1567   -1.6065    0.6310 N   0  0  0  0  0  0  0  0  0  0  0  0
   -1.9894   -0.7720    1.6764 C   0  0  0  0  0  0  0  0  0  0  0  0
   -2.4747   -1.2405    2.9136 C   0  0  0  0  0  0  0  0  0  0  0  0
   -2.4111   -0.5265    4.0619 C   0  0  0  0  0  0  0  0  0  0  0  0
   -1.8510    0.7218    4.0553 C   0  0  0  0  0  0  0  0  0  0  0  0
   -1.3551    1.2444    2.8792 C   0  0  0  0  0  0  0  0  0  0  0  0
   -1.4440    0.4862    1.7555 C   0  0  0  0  0  0  0  0  0  0  0  0
   -1.4142   -1.6044   -0.7306 C   0  0  2  0  0  0  0  0  0  0  0  0
   -0.1960   -0.6933   -0.4906 C   0  0  0  0  0  0  0  0  0  0  0  0
    0.6916   -0.7746    0.5044 C   0  0  0  0  0  0  0  0  0  0  0  0
    1.7757    0.0919    0.6407 C   0  0  0  0  0  0  0  0  0  0  0  0
    1.9786    1.0939   -0.2720 C   0  0  0  0  0  0  0  0  0  0  0  0
    3.0655    1.9862   -0.1616 O   0  0  0  0  0  0  0  0  0  0  0  0
    3.9938    1.8801    0.9025 C   0  0  0  0  0  0  0  0  0  0  0  0
    4.6145    0.4905    0.7844 C   0  0  0  0  0  0  0  0  0  0  0  0
    5.2422    0.4996   -0.5484 N   0  0  0  0  0  0  0  0  0  0  0  0
    5.8839   -0.7376   -0.8416 C   0  0  0  0  0  0  0  0  0  0  0  0
    7.3643   -0.5107   -0.9009 C   0  0  0  0  0  0  0  0  0  0  0  0
    7.5280    0.7493   -0.0713 C   0  0  0  0  0  0  0  0  0  0  0  0
    6.2843    1.5217   -0.4551 C   0  0  0  0  0  0  0  0  0  0  0  0
    1.0765    1.1935   -1.3023 C   0  0  0  0  0  0  0  0  0  0  0  0
   -0.0104    0.3043   -1.4161 C   0  0  0  0  0  0  0  0  0  0  0  0
  1  2  1  0
  2  3  2  0
  3  4  1  0
  4  5  2  0
  5  6  1  0
  6  7  2  0
  6  8  1  0
  8  9  1  0
  9 10  1  0
 10 11  1  0
 11 12  2  0
 12 13  1  0
 13 14  2  0
 14 15  1  0
 15 16  2  0
 10 17  1  0
 17 18  1  1
 18 19  2  0
 19 20  1  0
 20 21  2  0
 21 22  1  0
 22 23  1  0
 23 24  1  0
 24 25  1  0
 25 26  1  0
 26 27  1  0
 27 28  1  0
 28 29  1  0
 21 30  1  0
 30 31  2  0
  7  2  1  0
 16 11  1  0
 31 18  1  0
 17  5  1  0
 29 25  1  0
M  END
>  <zinc_id>  (1) 
ZINC000003826690

>  <smiles>  (1) 
Oc1ccc2c(c1)CCN(c1ccccc1)[C@@H]2c1ccc(OCCN2CCCC2)cc1

$$$$
