
     RDKit          3D

 31 34  0  0  0  0  0  0  0  0999 V2000
    7.8787    2.7829   -0.2377 C   0  0  0  0  0  0  0  0  0  0  0  0
    7.9196    1.8546    0.9675 C   0  0  0  0  0  0  0  0  0  0  0  0
    7.3215    0.5145    0.5830 C   0  0  0  0  0  0  0  0  0  0  0  0
    8.1890   -0.0082   -0.5680 C   0  0  0  0  0  0  0  0  0  0  0  0
    7.4662   -0.4609    1.7204 C   0  0  0  0  0  0  0  0  0  0  0  0
    5.9098    0.6529    0.1079 C   0  0  0  0  0  0  0  0  0  0  0  0
    5.5532    0.2065   -1.1618 C   0  0  0  0  0  0  0  0  0  0  0  0
    4.2687    0.3310   -1.6241 C   0  0  0  0  0  0  0  0  0  0  0  0
    3.2430    0.9093   -0.8597 C   0  0  0  0  0  0  0  0  0  0  0  0
    1.9722    1.0011   -1.3983 O   0  0  0  0  0  0  0  0  0  0  0  0
    0.9775    0.0646   -1.1093 C   0  0  0  0  0  0  0  0  0  0  0  0
   -0.0875    0.3200   -0.2855 C   0  0  0  0  0  0  0  0  0  0  0  0
   -1.0476   -0.6312   -0.0269 C   0  0  0  0  0  0  0  0  0  0  0  0
   -0.9907   -1.8852   -0.5768 C   0  0  0  0  0  0  0  0  0  0  0  0
   -2.0110   -2.8180   -0.3466 N   0  0  0  0  0  0  0  0  0  0  0  0
   -3.2999   -2.2936    0.0454 C   0  0  0  0  0  0  0  0  0  0  0  0
   -3.6603   -1.0760    0.0456 N   0  0  0  0  0  0  0  0  0  0  0  0
   -4.9821   -0.8874    0.4779 N   0  0  0  0  0  0  0  0  0  0  0  0
   -5.6420    0.3984    0.5565 C   0  0  0  0  0  0  0  0  0  0  0  0
   -5.4500    1.2461    1.6217 C   0  0  0  0  0  0  0  0  0  0  0  0
   -6.0715    2.4883    1.7071 C   0  0  0  0  0  0  0  0  0  0  0  0
   -6.9220    2.9247    0.7028 C   0  0  0  0  0  0  0  0  0  0  0  0
   -7.1167    2.0783   -0.3655 C   0  0  0  0  0  0  0  0  0  0  0  0
   -6.4897    0.8307   -0.4462 C   0  0  0  0  0  0  0  0  0  0  0  0
   -5.4981   -2.1656    0.7828 C   0  0  0  0  0  0  0  0  0  0  0  0
   -6.6530   -2.4183    1.1951 O   0  0  0  0  0  0  0  0  0  0  0  0
   -4.4033   -3.1415    0.5173 C   0  0  0  0  0  0  0  0  0  0  0  0
    0.0706   -2.1606   -1.4023 C   0  0  0  0  0  0  0  0  0  0  0  0
    1.0431   -1.2170   -1.6752 C   0  0  0  0  0  0  0  0  0  0  0  0
    3.6079    1.3434    0.3860 C   0  0  0  0  0  0  0  0  0  0  0  0
    4.9043    1.2162    0.8511 C   0  0  0  0  0  0  0  0  0  0  0  0
  1  2  1  0
  2  3  1  0
  3  4  1  0
  3  5  1  0
  3  6  1  0
  6  7  2  0
  7  8  1  0
  8  9  2  0
  9 10  1  0
 10 11  1  0
 11 12  2  0
 12 13  1  0
 13 14  2  0
 14 15  1  0
 15 16  1  0
 16 17  2  0
 17 18  1  0
 18 19  1  0
 19 20  2  0
 20 21  1  0
 21 22  2  0
 22 23  1  0
 23 24  2  0
 18 25  1  0
 25 26  2  0
 25 27  1  0
 14 28  1  0
 28 29  2  0
  9 30  1  0
 30 31  2  0
 31  6  1  0
 29 11  1  0
 27 16  1  0
 24 19  1  0
M  END
>  <zinc_id>  (1) 
ZINC000003147042

>  <smiles>  (1) 
CCC(C)(C)c1ccc(Oc2ccc(NC3=NN(c4ccccc4)C(=O)C3)cc2)cc1

$$$$
