
     RDKit          3D

 29 31  0  0  0  0  0  0  0  0999 V2000
   -6.8082    0.7521    3.0536 C   0  0  0  0  0  0  0  0  0  0  0  0
   -5.8006    0.6927    2.0635 O   0  0  0  0  0  0  0  0  0  0  0  0
   -6.0371    1.2785    0.8446 C   0  0  0  0  0  0  0  0  0  0  0  0
   -7.1353    1.8465    0.6467 O   0  0  0  0  0  0  0  0  0  0  0  0
   -5.0516    1.2677   -0.2444 C   0  0  0  0  0  0  0  0  0  0  0  0
   -5.3084    1.8620   -1.4608 C   0  0  0  0  0  0  0  0  0  0  0  0
   -4.4003    1.8649   -2.4990 C   0  0  0  0  0  0  0  0  0  0  0  0
   -3.1873    1.2408   -2.2925 C   0  0  0  0  0  0  0  0  0  0  0  0
   -2.1736    1.2124   -3.3708 C   0  0  0  0  0  0  0  0  0  0  0  0
   -2.8708    0.6279   -1.0967 C   0  0  0  0  0  0  0  0  0  0  0  0
   -1.6051   -0.0012   -0.9414 N   0  0  0  0  0  0  0  0  0  0  0  0
   -1.2088   -0.6457    0.2510 C   0  0  0  0  0  0  0  0  0  0  0  0
   -2.0252   -0.6561    1.2161 O   0  0  0  0  0  0  0  0  0  0  0  0
    0.0868   -1.2927    0.4155 C   0  0  0  0  0  0  0  0  0  0  0  0
    1.0285   -1.3144   -0.5897 C   0  0  0  0  0  0  0  0  0  0  0  0
    2.2623   -1.9249   -0.4501 C   0  0  0  0  0  0  0  0  0  0  0  0
    2.5801   -2.5403    0.7321 C   0  0  0  0  0  0  0  0  0  0  0  0
    3.8949   -3.1910    0.8811 C   0  0  0  0  0  0  0  0  0  0  0  0
    5.0822   -2.0091    1.5325 S   0  0  0  0  0  0  0  0  0  0  0  0
    5.4057   -0.6883    0.3622 C   0  0  0  0  0  0  0  0  0  0  0  0
    6.2963    0.3133    0.6944 C   0  0  0  0  0  0  0  0  0  0  0  0
    6.5810    1.3563   -0.1740 C   0  0  0  0  0  0  0  0  0  0  0  0
    5.9576    1.3996   -1.4104 C   0  0  0  0  0  0  0  0  0  0  0  0
    6.2963    2.5370   -2.3033 C   0  0  0  0  0  0  0  0  0  0  0  0
    5.0722    0.4230   -1.7664 C   0  0  0  0  0  0  0  0  0  0  0  0
    4.8013   -0.6178   -0.8749 C   0  0  0  0  0  0  0  0  0  0  0  0
    1.6672   -2.5376    1.7525 C   0  0  0  0  0  0  0  0  0  0  0  0
    0.4214   -1.9157    1.5982 C   0  0  0  0  0  0  0  0  0  0  0  0
   -3.8218    0.6602   -0.0990 C   0  0  0  0  0  0  0  0  0  0  0  0
  1  2  1  0
  2  3  1  0
  3  4  2  0
  3  5  1  0
  5  6  2  0
  6  7  1  0
  7  8  2  0
  8  9  1  0
  8 10  1  0
 10 11  1  0
 11 12  1  0
 12 13  2  0
 12 14  1  0
 14 15  2  0
 15 16  1  0
 16 17  2  0
 17 18  1  0
 18 19  1  0
 19 20  1  0
 20 21  2  0
 21 22  1  0
 22 23  2  0
 23 24  1  0
 23 25  1  0
 25 26  2  0
 17 27  1  0
 27 28  2  0
 10 29  2  0
 29  5  1  0
 28 14  1  0
 26 20  1  0
M  END
>  <zinc_id>  (1) 
ZINC000002884958

>  <smiles>  (1) 
COC(=O)c1ccc(C)c(NC(=O)c2ccc(CSc3ccc(C)cc3)cc2)c1

$$$$
