
     RDKit          3D

 32 35  0  0  0  0  0  0  0  0999 V2000
   -5.9716    5.0210   -1.4843 C   0  0  0  0  0  0  0  0  0  0  0  0
   -6.4377    3.9370   -0.7317 O   0  0  0  0  0  0  0  0  0  0  0  0
   -5.8918    2.6616   -0.7981 C   0  0  0  0  0  0  0  0  0  0  0  0
   -6.4069    1.6430   -0.0201 C   0  0  0  0  0  0  0  0  0  0  0  0
   -5.8825    0.3677   -0.0687 C   0  0  0  0  0  0  0  0  0  0  0  0
   -4.8206    0.1257   -0.9196 C   0  0  0  0  0  0  0  0  0  0  0  0
   -4.2563   -1.2454   -0.9673 C   0  0  0  0  0  0  0  0  0  0  0  0
   -3.0545   -1.4022   -0.1847 N   0  0  0  0  0  0  0  0  0  0  0  0
   -1.8032   -0.9410   -0.6706 C   0  0  0  0  0  0  0  0  0  0  0  0
   -1.6636   -0.3815   -1.7874 O   0  0  0  0  0  0  0  0  0  0  0  0
   -0.6267   -1.1293    0.1710 C   0  0  0  0  0  0  0  0  0  0  0  0
    0.6276   -0.8010   -0.3111 C   0  0  0  0  0  0  0  0  0  0  0  0
    1.7673   -0.9751    0.4553 C   0  0  0  0  0  0  0  0  0  0  0  0
    3.0889   -0.6346   -0.0628 C   0  0  0  0  0  0  0  0  0  0  0  0
    4.2020   -0.8385    0.7268 C   0  0  0  0  0  0  0  0  0  0  0  0
    5.4738   -0.5353    0.2860 C   0  0  0  0  0  0  0  0  0  0  0  0
    5.6904   -0.0107   -0.9722 C   0  0  0  0  0  0  0  0  0  0  0  0
    7.0648    0.3188   -1.4625 C   0  0  0  0  0  0  0  0  0  0  0  0
    7.4597    1.7316   -1.1200 C   0  0  0  0  0  0  0  0  0  0  0  0
    7.4392    1.9199    0.3863 C   0  0  0  0  0  0  0  0  0  0  0  0
    8.8741    1.9615   -1.6225 C   0  0  0  0  0  0  0  0  0  0  0  0
    4.5806    0.1973   -1.7691 C   0  0  0  0  0  0  0  0  0  0  0  0
    3.3010   -0.1124   -1.3142 C   0  0  0  0  0  0  0  0  0  0  0  0
    1.5939   -1.4780    1.6902 N   0  0  0  0  0  0  0  0  0  0  0  0
    0.3992   -1.8061    2.1911 C   0  0  0  0  0  0  0  0  0  0  0  0
    0.2296   -2.3204    3.4665 C   0  0  0  0  0  0  0  0  0  0  0  0
   -1.0000   -2.6590    3.9920 C   0  0  0  0  0  0  0  0  0  0  0  0
   -2.1119   -2.4725    3.2003 C   0  0  0  0  0  0  0  0  0  0  0  0
   -2.0068   -1.9666    1.9305 C   0  0  0  0  0  0  0  0  0  0  0  0
   -0.7502   -1.6435    1.4498 C   0  0  0  0  0  0  0  0  0  0  0  0
   -4.2709    1.1060   -1.7148 C   0  0  0  0  0  0  0  0  0  0  0  0
   -4.8368    2.3618   -1.6244 C   0  0  0  0  0  0  0  0  0  0  0  0
  1  2  1  0
  2  3  1  0
  3  4  2  0
  4  5  1  0
  5  6  2  0
  6  7  1  0
  7  8  1  0
  8  9  1  0
  9 10  2  0
  9 11  1  0
 11 12  2  0
 12 13  1  0
 13 14  1  0
 14 15  2  0
 15 16  1  0
 16 17  2  0
 17 18  1  0
 18 19  1  0
 19 20  1  0
 19 21  1  0
 17 22  1  0
 22 23  2  0
 13 24  2  0
 24 25  1  0
 25 26  2  0
 26 27  1  0
 27 28  2  0
 28 29  1  0
 29 30  2  0
  6 31  1  0
 31 32  2  0
 32  3  1  0
 30 11  1  0
 23 14  1  0
 30 25  1  0
M  END
>  <zinc_id>  (1) 
ZINC000002768053

>  <smiles>  (1) 
COc1ccc(CNC(=O)c2cc(-c3ccc(CC(C)C)cc3)nc3ccccc23)cc1

$$$$
