
     RDKit          3D

 32 35  0  0  0  0  0  0  0  0999 V2000
    6.6332    3.5248   -1.7995 C   0  0  0  0  0  0  0  0  0  0  0  0
    7.5403    2.7975   -0.8165 C   0  0  0  0  0  0  0  0  0  0  0  0
    7.2279    1.4188   -0.9066 O   0  0  0  0  0  0  0  0  0  0  0  0
    5.9780    0.9257   -0.6382 C   0  0  0  0  0  0  0  0  0  0  0  0
    4.8953    1.6765   -0.2582 C   0  0  0  0  0  0  0  0  0  0  0  0
    3.6431    1.1137    0.0021 C   0  0  0  0  0  0  0  0  0  0  0  0
    3.5013   -0.2524   -0.1315 C   0  0  0  0  0  0  0  0  0  0  0  0
    2.2357   -0.8634    0.1263 N   0  0  0  0  0  0  0  0  0  0  0  0
    1.1124   -0.1652   -0.0200 N   0  0  0  0  0  0  0  0  0  0  0  0
   -0.0862   -0.6987    0.2104 C   0  0  0  0  0  0  0  0  0  0  0  0
   -1.3254    0.0866    0.0445 C   0  0  0  0  0  0  0  0  0  0  0  0
   -1.2592    1.2796   -0.3199 O   0  0  0  0  0  0  0  0  0  0  0  0
   -2.5879   -0.4942    0.2928 N   0  0  0  0  0  0  0  0  0  0  0  0
   -3.7931    0.2875    0.1260 C   0  0  0  0  0  0  0  0  0  0  0  0
   -5.0287   -0.2564    0.3616 C   0  0  0  0  0  0  0  0  0  0  0  0
   -6.1473    0.5244    0.1900 C   0  0  0  0  0  0  0  0  0  0  0  0
   -6.0960    1.8428   -0.2114 C   0  0  0  0  0  0  0  0  0  0  0  0
   -7.3262    2.6577   -0.3869 C   0  0  0  0  0  0  0  0  0  0  0  0
   -7.3523    3.3564   -1.7306 C   0  0  0  0  0  0  0  0  0  0  0  0
   -7.4462    3.7302    0.6768 C   0  0  0  0  0  0  0  0  0  0  0  0
   -4.8208    2.3514   -0.4386 C   0  0  0  0  0  0  0  0  0  0  0  0
   -3.6938    1.6006   -0.2767 C   0  0  0  0  0  0  0  0  0  0  0  0
   -0.1873   -2.0120    0.6132 C   0  0  0  0  0  0  0  0  0  0  0  0
   -1.3880   -2.6089    0.8629 C   0  0  0  0  0  0  0  0  0  0  0  0
   -1.4831   -3.9132    1.2627 C   0  0  0  0  0  0  0  0  0  0  0  0
   -0.3395   -4.6593    1.4222 C   0  0  0  0  0  0  0  0  0  0  0  0
    0.8886   -4.0894    1.1791 C   0  0  0  0  0  0  0  0  0  0  0  0
    0.9572   -2.7756    0.7781 C   0  0  0  0  0  0  0  0  0  0  0  0
    2.1590   -2.1289    0.5132 C   0  0  0  0  0  0  0  0  0  0  0  0
    3.2391   -2.7722    0.6454 O   0  0  0  0  0  0  0  0  0  0  0  0
    4.5683   -1.0400   -0.5119 C   0  0  0  0  0  0  0  0  0  0  0  0
    5.7816   -0.4446   -0.7578 C   0  0  0  0  0  0  0  0  0  0  0  0
  1  2  1  0
  2  3  1  0
  3  4  1  0
  4  5  2  0
  5  6  1  0
  6  7  2  0
  7  8  1  0
  8  9  1  0
  9 10  2  0
 10 11  1  0
 11 12  2  0
 11 13  1  0
 13 14  1  0
 14 15  2  0
 15 16  1  0
 16 17  2  0
 17 18  1  0
 18 19  1  0
 18 20  1  0
 17 21  1  0
 21 22  2  0
 10 23  1  0
 23 24  2  0
 24 25  1  0
 25 26  2  0
 26 27  1  0
 27 28  2  0
 28 29  1  0
 29 30  2  0
  7 31  1  0
 31 32  2  0
 32  4  1  0
 29  8  1  0
 22 14  1  0
 28 23  1  0
M  END
>  <zinc_id>  (1) 
ZINC000002942926

>  <smiles>  (1) 
CCOc1ccc(-n2nc(C(=O)Nc3ccc(C(C)C)cc3)c3ccccc3c2=O)cc1

$$$$
