
     RDKit          3D

 30 34  0  0  0  0  0  0  0  0999 V2000
    7.0463   -1.4949   -0.8684 C   0  0  0  0  0  0  0  0  0  0  0  0
    6.7637   -1.6020    0.6224 C   0  0  0  0  0  0  0  0  0  0  0  0
    6.3738   -0.3443    1.1143 O   0  0  0  0  0  0  0  0  0  0  0  0
    5.2524    0.2774    0.6037 C   0  0  0  0  0  0  0  0  0  0  0  0
    4.8730    1.5136    1.0904 C   0  0  0  0  0  0  0  0  0  0  0  0
    3.7572    2.1383    0.5863 C   0  0  0  0  0  0  0  0  0  0  0  0
    3.0284    1.4900   -0.4218 C   0  0  0  0  0  0  0  0  0  0  0  0
    3.4339    0.2898   -0.8643 C   0  0  0  0  0  0  0  0  0  0  0  0
    2.5531   -0.3613   -2.0050 C   0  0  1  0  0  0  0  0  0  0  0  0
    2.5215   -1.8688   -1.4721 N   0  0  0  0  0  0  0  0  0  0  0  0
    2.7324   -1.8994   -0.1147 C   0  0  0  0  0  0  0  0  0  0  0  0
    1.6146   -1.3530    0.7024 C   0  0  0  0  0  0  0  0  0  0  0  0
    0.7824   -0.4966   -0.1834 C   0  0  0  0  0  0  0  0  0  0  0  0
    1.1049   -0.0196   -1.3719 C   0  0  0  0  0  0  0  0  0  0  0  0
    0.1436    0.7064   -1.8970 N   0  0  0  0  0  0  0  0  0  0  0  0
   -0.8677    0.7114   -1.0122 C   0  0  0  0  0  0  0  0  0  0  0  0
   -2.1351    1.2996   -1.0056 C   0  0  0  0  0  0  0  0  0  0  0  0
   -2.9950    1.1392    0.0585 C   0  0  0  0  0  0  0  0  0  0  0  0
   -2.6388    0.3918    1.1591 C   0  0  0  0  0  0  0  0  0  0  0  0
   -3.4977    0.2247    2.2352 O   0  0  0  0  0  0  0  0  0  0  0  0
   -4.7672    0.8391    2.1849 C   0  0  0  0  0  0  0  0  0  0  0  0
   -5.5346    0.3159    1.0305 C   0  0  0  0  0  0  0  0  0  0  0  0
   -6.7287    0.9161    0.6575 C   0  0  0  0  0  0  0  0  0  0  0  0
   -7.4651    0.4414   -0.4117 C   0  0  0  0  0  0  0  0  0  0  0  0
   -7.0409   -0.6404   -1.1418 C   0  0  0  0  0  0  0  0  0  0  0  0
   -5.8405   -1.2550   -0.7781 C   0  0  0  0  0  0  0  0  0  0  0  0
   -5.1175   -0.7691    0.2914 C   0  0  0  0  0  0  0  0  0  0  0  0
   -1.3748   -0.1905    1.1443 C   0  0  0  0  0  0  0  0  0  0  0  0
   -0.4980   -0.0407    0.0853 C   0  0  0  0  0  0  0  0  0  0  0  0
    4.5204   -0.3591   -0.3995 C   0  0  0  0  0  0  0  0  0  0  0  0
  1  2  1  0
  2  3  1  0
  3  4  1  0
  4  5  2  0
  5  6  1  0
  6  7  2  0
  7  8  1  0
  9  8  1  1
  9 10  1  0
 10 11  1  0
 11 12  1  0
 12 13  1  0
 13 14  2  0
 14 15  1  0
 15 16  1  0
 16 17  2  0
 17 18  1  0
 18 19  2  0
 19 20  1  0
 20 21  1  0
 21 22  1  0
 22 23  2  0
 23 24  1  0
 24 25  2  0
 25 26  1  0
 26 27  2  0
 19 28  1  0
 28 29  2  0
  8 30  2  0
 30  4  1  0
 14  9  1  0
 29 16  1  0
 29 13  1  0
 27 22  1  0
M  END
>  <zinc_id>  (1) 
ZINC000003735450

>  <smiles>  (1) 
CCOc1cccc([C@H]2NCCc3c2[nH]c2ccc(OCc4ccccc4)cc32)c1

$$$$
