
     RDKit          3D

 33 36  0  0  0  0  0  0  0  0999 V2000
   -2.4368   -2.5926   -3.3208 C   0  0  0  0  0  0  0  0  0  0  0  0
   -1.3423   -3.2753   -2.5278 C   0  0  0  0  0  0  0  0  0  0  0  0
   -0.6522   -2.3884   -1.6705 O   0  0  0  0  0  0  0  0  0  0  0  0
   -1.2794   -1.6843   -0.6625 C   0  0  0  0  0  0  0  0  0  0  0  0
   -2.5218   -1.8233   -0.4803 O   0  0  0  0  0  0  0  0  0  0  0  0
   -0.5527   -0.7495    0.2414 C   0  0  0  0  0  0  0  0  0  0  0  0
   -1.1734   -0.0985    1.1799 C   0  0  0  0  0  0  0  0  0  0  0  0
   -2.5430   -0.0960    1.5703 N   0  0  0  0  0  0  0  0  0  0  0  0
   -3.4697    0.6450    0.8105 C   0  0  0  0  0  0  0  0  0  0  0  0
   -3.0472    1.3594   -0.2888 C   0  0  0  0  0  0  0  0  0  0  0  0
   -3.9733    2.0935   -1.0448 C   0  0  0  0  0  0  0  0  0  0  0  0
   -5.3051    2.1077   -0.6958 C   0  0  0  0  0  0  0  0  0  0  0  0
   -5.7295    1.3968    0.4025 C   0  0  0  0  0  0  0  0  0  0  0  0
   -7.0662    1.4335    0.7232 C   0  0  0  0  0  0  0  0  0  0  0  0
   -7.4743    0.7155    1.8267 C   0  0  0  0  0  0  0  0  0  0  0  0
   -6.5630   -0.0139    2.5777 C   0  0  0  0  0  0  0  0  0  0  0  0
   -5.2219   -0.0445    2.2464 C   0  0  0  0  0  0  0  0  0  0  0  0
   -4.7971    0.6738    1.1390 C   0  0  0  0  0  0  0  0  0  0  0  0
    0.0172    0.9579    1.9907 S   0  0  0  0  0  0  0  0  0  0  0  0
    1.4738    0.3061    1.1088 C   0  0  0  0  0  0  0  0  0  0  0  0
    2.7118    0.6317    1.3570 C   0  0  0  0  0  0  0  0  0  0  0  0
    3.8151    0.0655    0.6144 C   0  0  0  0  0  0  0  0  0  0  0  0
    3.9227   -1.2732    0.3641 C   0  0  0  0  0  0  0  0  0  0  0  0
    4.9481   -1.8403   -0.3332 C   0  0  0  0  0  0  0  0  0  0  0  0
    5.9523   -1.0332   -0.8264 C   0  0  0  0  0  0  0  0  0  0  0  0
    7.0290   -1.5546   -1.5470 O   0  0  0  0  0  0  0  0  0  0  0  0
    5.8705    0.3176   -0.5890 C   0  0  0  0  0  0  0  0  0  0  0  0
    6.9024    1.1056   -1.1030 O   0  0  0  0  0  0  0  0  0  0  0  0
    6.9695    2.5007   -0.9538 C   0  0  0  0  0  0  0  0  0  0  0  0
    8.2118    2.9990   -1.6392 C   0  0  0  0  0  0  0  0  0  0  0  0
    4.8340    0.8911    0.1142 C   0  0  0  0  0  0  0  0  0  0  0  0
    0.8705   -0.5806    0.1364 C   0  0  0  0  0  0  0  0  0  0  0  0
    1.6201   -1.1521   -0.7496 O   0  0  0  0  0  0  0  0  0  0  0  0
  1  2  1  0
  2  3  1  0
  3  4  1  0
  4  5  2  0
  4  6  1  0
  6  7  2  0
  7  8  1  0
  8  9  1  0
  9 10  2  0
 10 11  1  0
 11 12  2  0
 12 13  1  0
 13 14  2  0
 14 15  1  0
 15 16  2  0
 16 17  1  0
 17 18  2  0
  7 19  1  0
 19 20  1  0
 20 21  2  0
 21 22  1  0
 22 23  2  0
 23 24  1  0
 24 25  2  0
 25 26  1  0
 25 27  1  0
 27 28  1  0
 28 29  1  0
 29 30  1  0
 27 31  2  0
 20 32  1  0
 32 33  2  0
 32  6  1  0
 18  9  1  0
 31 22  1  0
 18 13  1  0
M  END
>  <zinc_id>  (1) 
ZINC000002917867

>  <smiles>  (1) 
CCOC(=O)C1=C(Nc2cccc3ccccc23)S/C(=C/c2ccc(O)c(OCC)c2)C1=O

$$$$
