
     RDKit          3D

 30 33  0  0  0  0  0  0  0  0999 V2000
   -6.4232   -3.2419    1.5115 C   0  0  0  0  0  0  0  0  0  0  0  0
   -6.3296   -2.3495    0.2850 C   0  0  0  0  0  0  0  0  0  0  0  0
   -5.1041   -1.4930    0.4084 C   0  0  0  0  0  0  0  0  0  0  0  0
   -3.9985   -1.7469   -0.2905 N   0  0  0  0  0  0  0  0  0  0  0  0
   -2.8923   -0.9751   -0.1812 C   0  0  0  0  0  0  0  0  0  0  0  0
   -1.7558   -1.2438   -0.9064 C   0  0  0  0  0  0  0  0  0  0  0  0
   -0.6511   -0.4356   -0.7686 C   0  0  0  0  0  0  0  0  0  0  0  0
   -0.6094    0.6538    0.0711 C   0  0  0  0  0  0  0  0  0  0  0  0
    0.5845    1.4933    0.1913 C   0  0  0  0  0  0  0  0  0  0  0  0
    0.6174    2.4813    0.9317 O   0  0  0  0  0  0  0  0  0  0  0  0
    1.7181    1.1483   -0.5672 N   0  0  0  0  0  0  0  0  0  0  0  0
    2.9339    1.8484   -0.5645 C   0  0  0  0  0  0  0  0  0  0  0  0
    3.0893    2.9813    0.2270 C   0  0  0  0  0  0  0  0  0  0  0  0
    4.2992    3.6662    0.2163 C   0  0  0  0  0  0  0  0  0  0  0  0
    5.3569    3.2496   -0.5633 C   0  0  0  0  0  0  0  0  0  0  0  0
    5.2190    2.1378   -1.3465 C   0  0  0  0  0  0  0  0  0  0  0  0
    3.9995    1.4512   -1.3327 C   0  0  0  0  0  0  0  0  0  0  0  0
    3.8130    0.2271   -2.1764 C   0  0  0  0  0  0  0  0  0  0  0  0
    3.8975   -0.9475   -1.2769 C   0  0  0  0  0  0  0  0  0  0  0  0
    5.1173   -1.5761   -0.9970 C   0  0  0  0  0  0  0  0  0  0  0  0
    5.1255   -2.6682   -0.1493 C   0  0  0  0  0  0  0  0  0  0  0  0
    3.9809   -3.1746    0.4402 C   0  0  0  0  0  0  0  0  0  0  0  0
    2.7752   -2.5414    0.1539 C   0  0  0  0  0  0  0  0  0  0  0  0
    2.7580   -1.4508   -0.6909 C   0  0  0  0  0  0  0  0  0  0  0  0
   -1.7575    0.9161    0.7966 C   0  0  0  0  0  0  0  0  0  0  0  0
   -2.8821    0.1266    0.6826 C   0  0  0  0  0  0  0  0  0  0  0  0
   -3.9971    0.3686    1.3764 N   0  0  0  0  0  0  0  0  0  0  0  0
   -5.0975   -0.3933    1.2723 C   0  0  0  0  0  0  0  0  0  0  0  0
   -6.3487   -0.1469    2.0325 C   0  0  0  0  0  0  0  0  0  0  0  0
   -7.4385    0.4648    1.2146 C   0  0  0  0  0  0  0  0  0  0  0  0
  1  2  1  0
  2  3  1  0
  3  4  2  0
  4  5  1  0
  5  6  2  0
  6  7  1  0
  7  8  2  0
  8  9  1  0
  9 10  2  0
  9 11  1  0
 11 12  1  0
 12 13  2  0
 13 14  1  0
 14 15  2  0
 15 16  1  0
 16 17  2  0
 17 18  1  0
 18 19  1  0
 19 20  2  0
 20 21  1  0
 21 22  2  0
 22 23  1  0
 23 24  2  0
  8 25  1  0
 25 26  2  0
 26 27  1  0
 27 28  2  0
 28 29  1  0
 29 30  1  0
 28  3  1  0
 26  5  1  0
 17 12  1  0
 24 19  1  0
M  END
>  <zinc_id>  (1) 
ZINC000003383264

>  <smiles>  (1) 
CCc1nc2ccc(C(=O)Nc3ccccc3Cc3ccccc3)cc2nc1CC

$$$$
