
     RDKit          3D

 32 35  0  0  0  0  0  0  0  0999 V2000
    7.0653   -1.1587   -1.5198 C   0  0  0  0  0  0  0  0  0  0  0  0
    7.3901   -0.2917   -0.3435 C   0  0  0  0  0  0  0  0  0  0  0  0
    6.5241    0.7990   -0.3107 O   0  0  0  0  0  0  0  0  0  0  0  0
    5.1464    0.6960   -0.2040 C   0  0  0  0  0  0  0  0  0  0  0  0
    4.5031   -0.5084   -0.1238 C   0  0  0  0  0  0  0  0  0  0  0  0
    3.1577   -0.7175   -0.0175 C   0  0  0  0  0  0  0  0  0  0  0  0
    2.3325    0.4342    0.0160 C   0  0  0  0  0  0  0  0  0  0  0  0
    0.9273    0.2604    0.1267 N   0  0  0  0  0  0  0  0  0  0  0  0
    0.1652   -0.9023    0.3751 C   0  0  0  0  0  0  0  0  0  0  0  0
    0.6473   -2.0520    0.5558 O   0  0  0  0  0  0  0  0  0  0  0  0
   -1.2484   -0.5833    0.3935 C   0  0  0  0  0  0  0  0  0  0  0  0
   -2.3508   -1.4229    0.6105 N   0  0  0  0  0  0  0  0  0  0  0  0
   -2.4737   -2.7672    0.1806 C   0  0  0  0  0  0  0  0  0  0  0  0
   -1.4632   -3.3784   -0.5533 C   0  0  0  0  0  0  0  0  0  0  0  0
   -1.5987   -4.6999   -0.9681 C   0  0  0  0  0  0  0  0  0  0  0  0
   -0.5074   -5.3588   -1.7598 C   0  0  0  0  0  0  0  0  0  0  0  0
   -2.7049   -5.4387   -0.6796 C   0  0  0  0  0  0  0  0  0  0  0  0
   -3.7226   -4.8471    0.0506 C   0  0  0  0  0  0  0  0  0  0  0  0
   -3.5796   -3.5282    0.4609 C   0  0  0  0  0  0  0  0  0  0  0  0
   -4.7137   -2.9631    1.2405 C   0  0  0  0  0  0  0  0  0  0  0  0
   -1.3595    0.7559    0.1591 C   0  0  0  0  0  0  0  0  0  0  0  0
   -2.8929    1.6203    0.0900 S   0  0  0  0  0  0  0  0  0  0  0  0
   -2.8084    3.3691    0.1148 C   0  0  0  0  0  0  0  0  0  0  0  0
   -1.6535    4.0832    0.2283 C   0  0  0  0  0  0  0  0  0  0  0  0
   -1.6157    5.4566    0.2621 C   0  0  0  0  0  0  0  0  0  0  0  0
   -2.7810    6.2232    0.1816 C   0  0  0  0  0  0  0  0  0  0  0  0
   -3.9511    5.5105    0.0665 C   0  0  0  0  0  0  0  0  0  0  0  0
   -3.9820    4.1417    0.0329 C   0  0  0  0  0  0  0  0  0  0  0  0
   -0.0316    1.3188   -0.0118 C   0  0  0  0  0  0  0  0  0  0  0  0
    0.3330    2.4961   -0.2419 O   0  0  0  0  0  0  0  0  0  0  0  0
    2.9384    1.6339   -0.0615 C   0  0  0  0  0  0  0  0  0  0  0  0
    4.3085    1.8192   -0.1699 C   0  0  0  0  0  0  0  0  0  0  0  0
  1  2  1  0
  2  3  1  0
  3  4  1  0
  4  5  2  0
  5  6  1  0
  6  7  2  0
  7  8  1  0
  8  9  1  0
  9 10  2  0
  9 11  1  0
 11 12  1  0
 12 13  1  0
 13 14  2  0
 14 15  1  0
 15 16  1  0
 15 17  2  0
 17 18  1  0
 18 19  2  0
 19 20  1  0
 11 21  2  0
 21 22  1  0
 22 23  1  0
 23 24  2  0
 24 25  1  0
 25 26  2  0
 26 27  1  0
 27 28  2  0
 21 29  1  0
 29 30  2  0
  7 31  1  0
 31 32  2  0
 32  4  1  0
 29  8  1  0
 19 13  1  0
 28 23  1  0
M  END
>  <zinc_id>  (1) 
ZINC000001928665

>  <smiles>  (1) 
CCOc1ccc(N2C(=O)C(Nc3cc(C)ccc3C)=C(Sc3ccccc3)C2=O)cc1

$$$$
