
     RDKit          3D

 31 34  0  0  0  0  0  0  0  0999 V2000
    7.6953    0.8058   -2.3060 C   0  0  0  0  0  0  0  0  0  0  0  0
    7.1947    0.7914   -0.8758 C   0  0  0  0  0  0  0  0  0  0  0  0
    5.8733    0.0387   -0.8263 C   0  0  0  0  0  0  0  0  0  0  0  0
    5.4010    0.0474    0.6402 C   0  0  0  0  0  0  0  0  0  0  0  0
    5.2155    1.4459    1.1136 C   0  0  0  0  0  0  0  0  0  0  0  0
    4.1664    2.1786    0.3828 C   0  0  0  0  0  0  0  0  0  0  0  0
    2.8986    1.7440    0.5085 O   0  0  0  0  0  0  0  0  0  0  0  0
    2.2364    0.5987    0.2325 C   0  0  0  0  0  0  0  0  0  0  0  0
    2.8557   -0.3646   -0.2681 O   0  0  0  0  0  0  0  0  0  0  0  0
    0.7821    0.4486    0.5081 C   0  0  0  0  0  0  0  0  0  0  0  0
   -0.0210    1.4177    1.0527 C   0  0  0  0  0  0  0  0  0  0  0  0
    0.3883    2.7158    1.4435 N   0  0  0  0  0  0  0  0  0  0  0  0
   -1.2529    0.8845    1.1348 N   0  0  0  0  0  0  0  0  0  0  0  0
   -2.4631    1.7111    1.7191 C   0  0  2  0  0  0  0  0  0  0  0  0
   -3.2578    0.4451    2.4663 C   0  0  0  0  0  0  0  0  0  0  0  0
   -3.2958    1.7542    0.3836 C   0  0  0  0  0  0  0  0  0  0  0  0
   -3.0248    2.8328   -0.4075 C   0  0  0  0  0  0  0  0  0  0  0  0
   -3.7056    2.9939   -1.6412 C   0  0  0  0  0  0  0  0  0  0  0  0
   -4.6260    2.0462   -2.0013 C   0  0  0  0  0  0  0  0  0  0  0  0
   -4.8826    0.9774   -1.1989 C   0  0  0  0  0  0  0  0  0  0  0  0
   -4.1938    0.8674   -0.0102 C   0  0  0  0  0  0  0  0  0  0  0  0
   -1.2766   -0.3228    0.6900 C   0  0  0  0  0  0  0  0  0  0  0  0
   -2.2289   -1.2412    0.5647 N   0  0  0  0  0  0  0  0  0  0  0  0
   -2.0314   -2.4720    0.0606 C   0  0  0  0  0  0  0  0  0  0  0  0
   -3.0684   -3.3996   -0.0488 C   0  0  0  0  0  0  0  0  0  0  0  0
   -2.8284   -4.6505   -0.5701 C   0  0  0  0  0  0  0  0  0  0  0  0
   -1.5443   -4.9490   -0.9742 C   0  0  0  0  0  0  0  0  0  0  0  0
   -0.5148   -4.0375   -0.8691 C   0  0  0  0  0  0  0  0  0  0  0  0
   -0.7473   -2.7933   -0.3521 C   0  0  0  0  0  0  0  0  0  0  0  0
    0.2517   -1.8656   -0.2339 N   0  0  0  0  0  0  0  0  0  0  0  0
    0.0043   -0.6489    0.2763 C   0  0  0  0  0  0  0  0  0  0  0  0
  1  2  1  0
  2  3  1  0
  3  4  1  0
  4  5  1  0
  5  6  1  0
  6  7  1  0
  7  8  1  0
  8  9  2  0
  8 10  1  0
 10 11  2  0
 11 12  1  0
 11 13  1  0
 13 14  1  0
 14 15  1  1
 14 16  1  0
 16 17  2  0
 17 18  1  0
 18 19  2  0
 19 20  1  0
 20 21  2  0
 13 22  1  0
 22 23  2  0
 23 24  1  0
 24 25  2  0
 25 26  1  0
 26 27  2  0
 27 28  1  0
 28 29  2  0
 29 30  1  0
 30 31  2  0
 31 10  1  0
 21 16  1  0
 31 22  1  0
 29 24  1  0
M  END
>  <zinc_id>  (1) 
ZINC000002409292

>  <smiles>  (1) 
CCCCCCOC(=O)c1c(N)n([C@H](C)c2ccccc2)c2nc3ccccc3nc12

$$$$
