
     RDKit          3D

 33 36  0  0  0  0  0  0  0  0999 V2000
    0.0371   -2.4356    0.5315 C   0  0  0  0  0  0  0  0  0  0  0  0
    0.7578   -1.3640    0.2250 C   0  0  0  0  0  0  0  0  0  0  0  0
    0.7534   -0.7582   -1.1174 C   0  0  0  0  0  0  0  0  0  0  0  0
    2.0423    0.0399   -1.1708 C   0  0  0  0  0  0  0  0  0  0  0  0
    3.0750   -1.1557   -0.7401 C   0  0  2  0  0  0  0  0  0  0  0  0
    3.1256   -0.7401    0.8305 C   0  0  1  0  0  0  0  0  0  0  0  0
    3.7677   -1.9093    1.5590 C   0  0  0  0  0  0  0  0  0  0  0  0
    3.7474    0.5350    1.0776 C   0  0  0  0  0  0  0  0  0  0  0  0
    3.6540    1.5801    0.0287 C   0  0  0  0  0  0  0  0  0  0  0  0
    4.3590    1.0448   -1.1714 C   0  0  0  0  0  0  0  0  0  0  0  0
    4.4682   -0.3924   -1.1316 C   0  0  2  0  0  0  0  0  0  0  0  0
    4.6334   -0.9064   -2.5728 C   0  0  0  0  0  0  0  0  0  0  0  0
    5.5245   -0.9314   -0.2748 C   0  0  0  0  0  0  0  0  0  0  0  0
    6.2083   -0.1628    0.4451 O   0  0  0  0  0  0  0  0  0  0  0  0
    5.8497   -2.2809   -0.1932 O   0  0  0  0  0  0  0  0  0  0  0  0
    6.9000   -2.7392    0.6722 C   0  0  0  0  0  0  0  0  0  0  0  0
    1.6317   -0.7545    1.4137 C   0  0  1  0  0  0  0  0  0  0  0  0
    1.2884    0.8589    0.9898 C   0  0  0  0  0  0  0  0  0  0  0  0
   -0.1453    0.8802    1.2812 C   0  0  0  0  0  0  0  0  0  0  0  0
   -0.9577    2.0585    0.9677 C   0  0  0  0  0  0  0  0  0  0  0  0
   -0.9399    3.3842    1.2521 C   0  0  0  0  0  0  0  0  0  0  0  0
   -1.9419    4.0262    0.5900 C   0  0  0  0  0  0  0  0  0  0  0  0
   -2.5979    3.1302   -0.1216 O   0  0  0  0  0  0  0  0  0  0  0  0
   -2.0770    1.9574    0.0489 C   0  0  0  0  0  0  0  0  0  0  0  0
   -2.4270    0.6603   -0.5109 C   0  0  0  0  0  0  0  0  0  0  0  0
   -3.8167    0.7294   -1.1158 N   0  0  0  0  0  0  0  0  0  0  0  0
   -4.5242    0.4792    0.1874 C   0  0  0  0  0  0  0  0  0  0  0  0
   -5.8488   -0.0728    0.1025 C   0  0  0  0  0  0  0  0  0  0  0  0
   -7.0310    0.5447   -0.0801 C   0  0  0  0  0  0  0  0  0  0  0  0
   -8.2407   -0.1593   -0.0291 C   0  0  0  0  0  0  0  0  0  0  0  0
   -8.3082   -1.5019    0.2022 C   0  0  0  0  0  0  0  0  0  0  0  0
   -7.0684   -2.1630    0.3903 C   0  0  0  0  0  0  0  0  0  0  0  0
   -5.8989   -1.4813    0.3479 C   0  0  0  0  0  0  0  0  0  0  0  0
  1  2  2  0
  2  3  1  0
  3  4  1  0
  5  4  1  6
  5  6  1  0
  6  7  1  1
  6  8  1  0
  8  9  1  0
  9 10  1  0
 10 11  1  0
 11 12  1  6
 11 13  1  0
 13 14  2  0
 13 15  1  0
 15 16  1  0
  6 17  1  0
 17 18  1  6
 18 19  1  0
 19 20  1  0
 20 21  1  0
 21 22  2  0
 22 23  1  0
 23 24  1  0
 24 25  1  0
 25 26  1  0
 26 27  1  0
 27 28  1  0
 28 29  2  0
 29 30  1  0
 30 31  2  0
 31 32  1  0
 32 33  2  0
 17  2  1  0
 24 20  2  0
 33 28  1  0
 11  5  1  0
M  END
>  <zinc_id>  (1) 
ZINC000002134455

>  <smiles>  (1) 
C=C1CC[C@@H]2[C@@](C)(CCC[C@@]2(C)C(=O)OC)[C@H]1CCc1ccoc1CNCc1ccccc1

$$$$
