
     RDKit          3D

 32 35  0  0  0  0  0  0  0  0999 V2000
   -4.9643   -1.2097   -2.5204 C   0  0  0  0  0  0  0  0  0  0  0  0
   -5.6669   -0.7607   -1.3098 C   0  0  0  0  0  0  0  0  0  0  0  0
   -5.1814   -0.9552   -0.1075 C   0  0  0  0  0  0  0  0  0  0  0  0
   -3.9224   -1.6255    0.1178 N   0  0  0  0  0  0  0  0  0  0  0  0
   -2.7668   -0.8867   -0.0446 N   0  0  0  0  0  0  0  0  0  0  0  0
   -1.4287   -1.3430   -0.0602 C   0  0  0  0  0  0  0  0  0  0  0  0
   -1.2433   -2.5704    0.0941 O   0  0  0  0  0  0  0  0  0  0  0  0
   -0.3312   -0.3956   -0.2481 C   0  0  0  0  0  0  0  0  0  0  0  0
    0.9946   -0.6748   -0.0969 C   0  0  0  0  0  0  0  0  0  0  0  0
    1.9664    0.3100   -0.2685 C   0  0  0  0  0  0  0  0  0  0  0  0
    3.4013    0.0153   -0.1290 C   0  0  0  0  0  0  0  0  0  0  0  0
    3.8944   -1.2283    0.1719 C   0  0  0  0  0  0  0  0  0  0  0  0
    5.2760   -1.4533    0.2689 C   0  0  0  0  0  0  0  0  0  0  0  0
    6.1878   -0.4125    0.0607 C   0  0  0  0  0  0  0  0  0  0  0  0
    7.6302   -0.6920    0.1457 C   0  0  0  0  0  0  0  0  0  0  0  0
    7.9570   -1.3218    1.4741 C   0  0  0  0  0  0  0  0  0  0  0  0
    8.4552    0.6025    0.0619 C   0  0  0  0  0  0  0  0  0  0  0  0
    8.0153   -1.6085   -1.0170 C   0  0  0  0  0  0  0  0  0  0  0  0
    5.6748    0.8189   -0.2344 C   0  0  0  0  0  0  0  0  0  0  0  0
    4.3147    1.0408   -0.3306 C   0  0  0  0  0  0  0  0  0  0  0  0
    1.5592    1.5477   -0.5852 N   0  0  0  0  0  0  0  0  0  0  0  0
    0.2672    1.8931   -0.7500 C   0  0  0  0  0  0  0  0  0  0  0  0
   -0.1253    3.1677   -1.0885 C   0  0  0  0  0  0  0  0  0  0  0  0
   -1.4667    3.4685   -1.2579 C   0  0  0  0  0  0  0  0  0  0  0  0
   -2.4314    2.4847   -1.0905 C   0  0  0  0  0  0  0  0  0  0  0  0
   -1.9863    1.2276   -0.7517 C   0  0  0  0  0  0  0  0  0  0  0  0
   -0.6628    0.9291   -0.5828 C   0  0  0  0  0  0  0  0  0  0  0  0
   -5.9771   -0.4089    1.0168 C   0  0  0  0  0  0  0  0  0  0  0  0
   -5.7758   -0.5243    2.3702 C   0  0  0  0  0  0  0  0  0  0  0  0
   -6.6412    0.1059    3.1610 C   0  0  0  0  0  0  0  0  0  0  0  0
   -7.6443    0.8088    2.6002 C   0  0  0  0  0  0  0  0  0  0  0  0
   -7.3781    0.5839    0.9302 S   0  0  0  0  0  0  0  0  0  0  0  0
  1  2  1  0
  2  3  2  0
  3  4  1  0
  4  5  1  0
  5  6  1  0
  6  7  2  0
  6  8  1  0
  8  9  2  0
  9 10  1  0
 10 11  1  0
 11 12  2  0
 12 13  1  0
 13 14  2  0
 14 15  1  0
 15 16  1  0
 15 17  1  0
 15 18  1  0
 14 19  1  0
 19 20  2  0
 10 21  2  0
 21 22  1  0
 22 23  2  0
 23 24  1  0
 24 25  2  0
 25 26  1  0
 26 27  2  0
  3 28  1  0
 28 29  2  0
 29 30  1  0
 30 31  2  0
 31 32  1  0
 27  8  1  0
 32 28  1  0
 20 11  1  0
 27 22  1  0
M  END
>  <zinc_id>  (1) 
ZINC000002109382

>  <smiles>  (1) 
C/C=C(\NNC(=O)c1cc(-c2ccc(C(C)(C)C)cc2)nc2ccccc12)c1cccs1

$$$$
