
     RDKit          3D

 32 35  0  0  0  0  0  0  0  0999 V2000
    6.8449    0.5750    2.4444 C   0  0  0  0  0  0  0  0  0  0  0  0
    7.2717    1.2545    1.1786 C   0  0  0  0  0  0  0  0  0  0  0  0
    6.8014    0.5725    0.0302 O   0  0  0  0  0  0  0  0  0  0  0  0
    5.4286    0.4359   -0.1034 C   0  0  0  0  0  0  0  0  0  0  0  0
    4.5306    0.9286    0.8202 C   0  0  0  0  0  0  0  0  0  0  0  0
    3.1708    0.7734    0.6533 C   0  0  0  0  0  0  0  0  0  0  0  0
    2.6491    0.1142   -0.4522 C   0  0  0  0  0  0  0  0  0  0  0  0
    1.2304   -0.0403   -0.6130 N   0  0  0  0  0  0  0  0  0  0  0  0
    0.5207   -1.2487   -0.8630 C   0  0  0  0  0  0  0  0  0  0  0  0
    0.9969   -2.4084   -0.9923 O   0  0  0  0  0  0  0  0  0  0  0  0
   -0.9071   -0.9768   -0.9586 C   0  0  0  0  0  0  0  0  0  0  0  0
   -1.9673   -1.9016   -1.1985 N   0  0  0  0  0  0  0  0  0  0  0  0
   -2.6239   -2.5921   -0.1520 C   0  0  0  0  0  0  0  0  0  0  0  0
   -2.2289   -2.3667    1.1445 C   0  0  0  0  0  0  0  0  0  0  0  0
   -2.8153   -2.9968    2.2217 C   0  0  0  0  0  0  0  0  0  0  0  0
   -3.8369   -3.8818    1.9363 C   0  0  0  0  0  0  0  0  0  0  0  0
   -4.2397   -4.1159    0.6602 C   0  0  0  0  0  0  0  0  0  0  0  0
   -3.6277   -3.4640   -0.4084 C   0  0  0  0  0  0  0  0  0  0  0  0
   -4.0976   -3.7489   -1.7843 C   0  0  0  0  0  0  0  0  0  0  0  0
   -5.2245   -4.7603   -1.7556 C   0  0  0  0  0  0  0  0  0  0  0  0
   -1.0721    0.3213   -0.7788 C   0  0  0  0  0  0  0  0  0  0  0  0
   -2.6337    1.1811   -0.7982 S   0  0  0  0  0  0  0  0  0  0  0  0
   -2.3965    2.9266   -0.5082 C   0  0  0  0  0  0  0  0  0  0  0  0
   -2.4182    3.4200    0.7818 C   0  0  0  0  0  0  0  0  0  0  0  0
   -2.2395    4.7686    1.0705 C   0  0  0  0  0  0  0  0  0  0  0  0
   -2.0310    5.6643    0.0403 C   0  0  0  0  0  0  0  0  0  0  0  0
   -2.0082    5.1676   -1.2652 C   0  0  0  0  0  0  0  0  0  0  0  0
   -2.1870    3.8332   -1.5264 C   0  0  0  0  0  0  0  0  0  0  0  0
    0.2201    0.9685   -0.5577 C   0  0  0  0  0  0  0  0  0  0  0  0
    0.4167    2.1880   -0.3554 O   0  0  0  0  0  0  0  0  0  0  0  0
    3.5569   -0.3731   -1.3678 C   0  0  0  0  0  0  0  0  0  0  0  0
    4.9163   -0.2179   -1.2009 C   0  0  0  0  0  0  0  0  0  0  0  0
  1  2  1  0
  2  3  1  0
  3  4  1  0
  4  5  2  0
  5  6  1  0
  6  7  2  0
  7  8  1  0
  8  9  1  0
  9 10  2  0
  9 11  1  0
 11 12  1  0
 12 13  1  0
 13 14  2  0
 14 15  1  0
 15 16  2  0
 16 17  1  0
 17 18  2  0
 18 19  1  0
 19 20  1  0
 11 21  2  0
 21 22  1  0
 22 23  1  0
 23 24  2  0
 24 25  1  0
 25 26  2  0
 26 27  1  0
 27 28  2  0
 21 29  1  0
 29 30  2  0
  7 31  1  0
 31 32  2  0
 32  4  1  0
 29  8  1  0
 18 13  1  0
 28 23  1  0
M  END
>  <zinc_id>  (1) 
ZINC000001931778

>  <smiles>  (1) 
CCOc1ccc(N2C(=O)C(Nc3ccccc3CC)=C(Sc3ccccc3)C2=O)cc1

$$$$
