
     RDKit          3D

 31 34  0  0  0  0  0  0  0  0999 V2000
   -7.9938    1.6516   -3.3162 C   0  0  0  0  0  0  0  0  0  0  0  0
   -7.7623    0.2485   -2.8028 C   0  0  0  0  0  0  0  0  0  0  0  0
   -6.5455    0.2077   -1.9402 C   0  0  0  0  0  0  0  0  0  0  0  0
   -5.2921   -0.0471   -2.4550 C   0  0  0  0  0  0  0  0  0  0  0  0
   -4.1446   -0.0888   -1.6623 C   0  0  0  0  0  0  0  0  0  0  0  0
   -4.2543    0.1323   -0.3060 C   0  0  0  0  0  0  0  0  0  0  0  0
   -3.0787    0.0993    0.5697 C   0  0  0  0  0  0  0  0  0  0  0  0
   -1.8142   -0.1570    0.0542 C   0  0  0  0  0  0  0  0  0  0  0  0
   -0.7436   -0.1773    0.9161 C   0  0  0  0  0  0  0  0  0  0  0  0
    0.6015   -0.4402    0.4310 C   0  0  0  0  0  0  0  0  0  0  0  0
    1.3675   -1.1170    1.1601 O   0  0  0  0  0  0  0  0  0  0  0  0
    1.1143    0.0140   -0.8120 N   0  0  0  0  0  0  0  0  0  0  0  0
    2.4629   -0.2654   -1.2684 C   0  0  0  0  0  0  0  0  0  0  0  0
    3.4286    0.3365   -0.2388 C   0  0  0  0  0  0  0  0  0  0  0  0
    4.8318    0.0979   -0.6255 C   0  0  0  0  0  0  0  0  0  0  0  0
    5.4534   -1.0472   -0.1851 C   0  0  0  0  0  0  0  0  0  0  0  0
    6.7863   -1.2868   -0.5449 C   0  0  0  0  0  0  0  0  0  0  0  0
    7.4866   -0.4042   -1.3274 C   0  0  0  0  0  0  0  0  0  0  0  0
    8.8022   -0.6307   -1.6883 O   0  0  0  0  0  0  0  0  0  0  0  0
    9.5491   -1.7566   -1.3063 C   0  0  0  0  0  0  0  0  0  0  0  0
    6.8679    0.7367   -1.7664 C   0  0  0  0  0  0  0  0  0  0  0  0
    5.5581    0.9613   -1.4065 C   0  0  0  0  0  0  0  0  0  0  0  0
   -0.9557    0.0558    2.2576 C   0  0  0  0  0  0  0  0  0  0  0  0
    0.0695    0.0525    3.1888 C   0  0  0  0  0  0  0  0  0  0  0  0
   -0.2002    0.2926    4.5227 C   0  0  0  0  0  0  0  0  0  0  0  0
   -1.4804    0.5405    4.9688 C   0  0  0  0  0  0  0  0  0  0  0  0
   -2.4982    0.5462    4.0598 C   0  0  0  0  0  0  0  0  0  0  0  0
   -2.2374    0.3094    2.7394 C   0  0  0  0  0  0  0  0  0  0  0  0
   -3.2495    0.3225    1.8841 N   0  0  0  0  0  0  0  0  0  0  0  0
   -5.4909    0.3863    0.2193 C   0  0  0  0  0  0  0  0  0  0  0  0
   -6.6386    0.4267   -0.5820 C   0  0  0  0  0  0  0  0  0  0  0  0
  1  2  1  0
  2  3  1  0
  3  4  2  0
  4  5  1  0
  5  6  2  0
  6  7  1  0
  7  8  2  0
  8  9  1  0
  9 10  1  0
 10 11  2  0
 10 12  1  0
 12 13  1  0
 13 14  1  0
 14 15  1  0
 15 16  2  0
 16 17  1  0
 17 18  2  0
 18 19  1  0
 19 20  1  0
 18 21  1  0
 21 22  2  0
  9 23  2  0
 23 24  1  0
 24 25  2  0
 25 26  1  0
 26 27  2  0
 27 28  1  0
 28 29  2  0
  6 30  1  0
 30 31  2  0
 31  3  1  0
 29  7  1  0
 22 15  1  0
 28 23  1  0
M  END
>  <zinc_id>  (1) 
ZINC000002741884

>  <smiles>  (1) 
CCc1ccc(-c2cc(C(=O)NCCc3ccc(OC)cc3)c3ccccc3n2)cc1

$$$$
