
     RDKit          3D

 31 34  0  0  0  0  0  0  0  0999 V2000
    6.3354   -2.3414   -1.1038 C   0  0  0  0  0  0  0  0  0  0  0  0
    5.9767   -1.3560   -0.0394 C   0  0  0  0  0  0  0  0  0  0  0  0
    4.6657   -0.7029   -0.2631 C   0  0  0  0  0  0  0  0  0  0  0  0
    4.5617    0.4689   -0.9841 C   0  0  0  0  0  0  0  0  0  0  0  0
    3.3258    1.0504   -1.1732 C   0  0  0  0  0  0  0  0  0  0  0  0
    2.1987    0.4582   -0.6407 C   0  0  0  0  0  0  0  0  0  0  0  0
    0.9582    1.1486   -0.8938 N   0  0  0  0  0  0  0  0  0  0  0  0
   -0.2761    0.6185   -0.3966 C   0  0  0  0  0  0  0  0  0  0  0  0
   -1.1083    1.0867    0.4930 C   0  0  0  0  0  0  0  0  0  0  0  0
   -1.0315    2.5593    1.4277 S   0  0  0  0  0  0  0  0  0  0  0  0
    0.2444    3.6900    1.0427 C   0  0  0  0  0  0  0  0  0  0  0  0
    0.3359    4.8606    1.8288 C   0  0  0  0  0  0  0  0  0  0  0  0
    1.2914    5.8107    1.5985 C   0  0  0  0  0  0  0  0  0  0  0  0
    2.2287    5.7031    0.5943 C   0  0  0  0  0  0  0  0  0  0  0  0
    2.1449    4.5472   -0.1883 C   0  0  0  0  0  0  0  0  0  0  0  0
    1.1808    3.5994    0.0524 C   0  0  0  0  0  0  0  0  0  0  0  0
   -2.2251    0.1193    0.6374 C   0  0  0  0  0  0  0  0  0  0  0  0
   -3.2023    0.2304    1.3948 O   0  0  0  0  0  0  0  0  0  0  0  0
   -1.9946   -0.9659   -0.2389 N   0  0  0  0  0  0  0  0  0  0  0  0
   -2.7997   -2.1299   -0.4438 C   0  0  0  0  0  0  0  0  0  0  0  0
   -2.5919   -3.1861    0.4057 C   0  0  0  0  0  0  0  0  0  0  0  0
   -3.3587   -4.3341    0.2351 C   0  0  0  0  0  0  0  0  0  0  0  0
   -4.3030   -4.4460   -0.7399 C   0  0  0  0  0  0  0  0  0  0  0  0
   -5.0742   -5.6992   -0.8538 C   0  0  0  0  0  0  0  0  0  0  0  0
   -4.5162   -3.3860   -1.5980 C   0  0  0  0  0  0  0  0  0  0  0  0
   -3.7444   -2.2363   -1.4227 C   0  0  0  0  0  0  0  0  0  0  0  0
   -3.9741   -1.1088   -2.3387 C   0  0  0  0  0  0  0  0  0  0  0  0
   -0.7747   -0.6692   -0.8968 C   0  0  0  0  0  0  0  0  0  0  0  0
   -0.2513   -1.4118   -1.7524 O   0  0  0  0  0  0  0  0  0  0  0  0
    2.2580   -0.7079    0.0831 C   0  0  0  0  0  0  0  0  0  0  0  0
    3.5198   -1.2700    0.2563 C   0  0  0  0  0  0  0  0  0  0  0  0
  1  2  1  0
  2  3  1  0
  3  4  2  0
  4  5  1  0
  5  6  2  0
  6  7  1  0
  7  8  1  0
  8  9  2  0
  9 10  1  0
 10 11  1  0
 11 12  2  0
 12 13  1  0
 13 14  2  0
 14 15  1  0
 15 16  2  0
  9 17  1  0
 17 18  2  0
 17 19  1  0
 19 20  1  0
 20 21  2  0
 21 22  1  0
 22 23  2  0
 23 24  1  0
 23 25  1  0
 25 26  2  0
 26 27  1  0
 19 28  1  0
 28 29  2  0
  6 30  1  0
 30 31  2  0
 31  3  1  0
 28  8  1  0
 16 11  1  0
 26 20  1  0
M  END
>  <zinc_id>  (1) 
ZINC000001930010

>  <smiles>  (1) 
CCc1ccc(NC2=C(Sc3ccccc3)C(=O)N(c3ccc(C)cc3C)C2=O)cc1

$$$$
