
     RDKit          3D

 32 35  0  0  0  0  0  0  0  0999 V2000
    2.1176   -2.7786    4.1925 C   0  0  0  0  0  0  0  0  0  0  0  0
    3.4921   -2.1212    4.2345 C   0  0  0  0  0  0  0  0  0  0  0  0
    4.0940   -2.1681    2.9583 O   0  0  0  0  0  0  0  0  0  0  0  0
    3.4817   -1.5621    1.8794 C   0  0  0  0  0  0  0  0  0  0  0  0
    2.2840   -0.9184    2.0753 C   0  0  0  0  0  0  0  0  0  0  0  0
    1.6230   -0.2902    1.0214 C   0  0  0  0  0  0  0  0  0  0  0  0
    0.3547    0.3755    1.2968 C   0  0  0  0  0  0  0  0  0  0  0  0
   -0.1515    0.3972    2.4438 O   0  0  0  0  0  0  0  0  0  0  0  0
   -0.3552    1.0291    0.2568 N   0  0  0  0  0  0  0  0  0  0  0  0
   -1.5629    1.6774    0.4573 N   0  0  0  0  0  0  0  0  0  0  0  0
   -2.6077    1.4757   -0.2830 C   0  0  0  0  0  0  0  0  0  0  0  0
   -3.9219    2.0974   -0.1653 C   0  0  0  0  0  0  0  0  0  0  0  0
   -4.3453    3.0411    0.7633 C   0  0  0  0  0  0  0  0  0  0  0  0
   -5.6470    3.4898    0.6797 C   0  0  0  0  0  0  0  0  0  0  0  0
   -6.5028    3.0161   -0.2961 C   0  0  0  0  0  0  0  0  0  0  0  0
   -6.0482    2.0816   -1.1988 C   0  0  0  0  0  0  0  0  0  0  0  0
   -4.7558    1.6085   -1.1489 C   0  0  0  0  0  0  0  0  0  0  0  0
   -4.0030    0.6334   -1.9578 C   0  0  0  0  0  0  0  0  0  0  0  0
   -4.3506   -0.1354   -3.0447 C   0  0  0  0  0  0  0  0  0  0  0  0
   -3.4173   -0.9728   -3.6026 C   0  0  0  0  0  0  0  0  0  0  0  0
   -2.1579   -1.0238   -3.0628 C   0  0  0  0  0  0  0  0  0  0  0  0
   -1.7727   -0.2709   -1.9770 C   0  0  0  0  0  0  0  0  0  0  0  0
   -2.7131    0.5688   -1.4197 C   0  0  0  0  0  0  0  0  0  0  0  0
    2.1824   -0.3219   -0.2151 C   0  0  0  0  0  0  0  0  0  0  0  0
    3.3841   -0.9593   -0.4476 C   0  0  0  0  0  0  0  0  0  0  0  0
    3.9767   -1.0062   -1.7011 O   0  0  0  0  0  0  0  0  0  0  0  0
    3.2984   -0.3652   -2.7671 C   0  0  0  0  0  0  0  0  0  0  0  0
    1.9441   -1.0340   -2.8949 C   0  0  0  0  0  0  0  0  0  0  0  0
    4.0121   -1.5689    0.6080 C   0  0  0  0  0  0  0  0  0  0  0  0
    5.2337   -2.2365    0.4552 O   0  0  0  0  0  0  0  0  0  0  0  0
    6.4029   -1.4458    0.6427 C   0  0  0  0  0  0  0  0  0  0  0  0
    6.4317   -0.3122   -0.3492 C   0  0  0  0  0  0  0  0  0  0  0  0
  1  2  1  0
  2  3  1  0
  3  4  1  0
  4  5  2  0
  5  6  1  0
  6  7  1  0
  7  8  2  0
  7  9  1  0
  9 10  1  0
 10 11  2  3
 11 12  1  0
 12 13  2  0
 13 14  1  0
 14 15  2  0
 15 16  1  0
 16 17  2  0
 17 18  1  0
 18 19  2  0
 19 20  1  0
 20 21  2  0
 21 22  1  0
 22 23  2  0
  6 24  2  0
 24 25  1  0
 25 26  1  0
 26 27  1  0
 27 28  1  0
 25 29  2  0
 29 30  1  0
 30 31  1  0
 31 32  1  0
 29  4  1  0
 23 11  1  0
 17 12  1  0
 23 18  1  0
M  END
>  <zinc_id>  (1) 
ZINC000003303998

>  <smiles>  (1) 
CCOc1cc(C(=O)NN=C2c3ccccc3-c3ccccc32)cc(OCC)c1OCC

$$$$
