
     RDKit          3D

 31 34  0  0  0  0  0  0  0  0999 V2000
   -8.8657    1.6348   -1.1619 C   0  0  0  0  0  0  0  0  0  0  0  0
   -8.1530    0.6463   -0.4753 O   0  0  0  0  0  0  0  0  0  0  0  0
   -6.7741    0.6423   -0.2774 C   0  0  0  0  0  0  0  0  0  0  0  0
   -5.9591    1.6318   -0.7497 C   0  0  0  0  0  0  0  0  0  0  0  0
   -4.5855    1.5800   -0.5279 C   0  0  0  0  0  0  0  0  0  0  0  0
   -3.9990    0.5459    0.1662 C   0  0  0  0  0  0  0  0  0  0  0  0
   -2.5482    0.4382    0.4585 C   0  0  0  0  0  0  0  0  0  0  0  0
   -1.7574   -0.1597   -0.6969 C   0  0  0  0  0  0  0  0  0  0  0  0
   -0.3790   -0.2352   -0.2853 N   0  0  0  0  0  0  0  0  0  0  0  0
    0.6814   -0.6682   -1.1267 C   0  0  0  0  0  0  0  0  0  0  0  0
    0.4037   -0.9980   -2.3078 O   0  0  0  0  0  0  0  0  0  0  0  0
    2.0128   -0.6911   -0.5575 C   0  0  0  0  0  0  0  0  0  0  0  0
    2.8939    0.3367   -0.8835 C   0  0  0  0  0  0  0  0  0  0  0  0
    4.1781    0.4150   -0.3329 C   0  0  0  0  0  0  0  0  0  0  0  0
    5.0673    1.5205   -0.6532 C   0  0  0  0  0  0  0  0  0  0  0  0
    4.6750    2.4930   -1.5791 C   0  0  0  0  0  0  0  0  0  0  0  0
    5.5133    3.5533   -1.8431 C   0  0  0  0  0  0  0  0  0  0  0  0
    6.7412    3.7171   -1.2391 C   0  0  0  0  0  0  0  0  0  0  0  0
    7.1280    2.7482   -0.3207 C   0  0  0  0  0  0  0  0  0  0  0  0
    6.2874    1.6869   -0.0575 C   0  0  0  0  0  0  0  0  0  0  0  0
    4.5492   -0.5421    0.5326 N   0  0  0  0  0  0  0  0  0  0  0  0
    3.7410   -1.5506    0.8772 C   0  0  0  0  0  0  0  0  0  0  0  0
    4.1786   -2.4995    1.7472 C   0  0  0  0  0  0  0  0  0  0  0  0
    3.3269   -3.5489    2.0806 C   0  0  0  0  0  0  0  0  0  0  0  0
    2.0712   -3.6301    1.5443 C   0  0  0  0  0  0  0  0  0  0  0  0
    1.6210   -2.6828    0.6702 C   0  0  0  0  0  0  0  0  0  0  0  0
    2.4685   -1.6355    0.3386 C   0  0  0  0  0  0  0  0  0  0  0  0
   -4.8464   -0.4305    0.6267 C   0  0  0  0  0  0  0  0  0  0  0  0
   -6.2278   -0.4035    0.4189 C   0  0  0  0  0  0  0  0  0  0  0  0
   -7.0225   -1.4321    0.9219 O   0  0  0  0  0  0  0  0  0  0  0  0
   -6.4208   -2.4821    1.6309 C   0  0  0  0  0  0  0  0  0  0  0  0
  1  2  1  0
  2  3  1  0
  3  4  2  0
  4  5  1  0
  5  6  2  0
  6  7  1  0
  7  8  1  0
  8  9  1  0
  9 10  1  0
 10 11  2  0
 10 12  1  0
 12 13  2  0
 13 14  1  0
 14 15  1  0
 15 16  2  0
 16 17  1  0
 17 18  2  0
 18 19  1  0
 19 20  2  0
 14 21  2  0
 21 22  1  0
 22 23  2  0
 23 24  1  0
 24 25  2  0
 25 26  1  0
 26 27  2  0
  6 28  1  0
 28 29  2  0
 29 30  1  0
 30 31  1  0
 29  3  1  0
 27 12  1  0
 20 15  1  0
 27 22  1  0
M  END
>  <zinc_id>  (1) 
ZINC000001322762

>  <smiles>  (1) 
COc1ccc(CCNC(=O)c2cc(-c3ccccc3)nc3ccccc23)cc1OC

$$$$
