
     RDKit          3D

 32 36  0  0  0  0  0  0  0  0999 V2000
    0.6704    2.8589    1.6797 N   0  0  0  0  0  0  0  0  0  0  0  0
    0.0890    1.8057    0.9022 C   0  0  0  0  0  0  0  0  0  0  0  0
    0.4950    0.4919    1.0048 C   0  0  0  0  0  0  0  0  0  0  0  0
    1.5249   -0.0796    1.8585 C   0  0  0  0  0  0  0  0  0  0  0  0
    2.1571    0.6779    2.6206 O   0  0  0  0  0  0  0  0  0  0  0  0
    1.7742   -1.4724    1.7956 N   0  0  0  0  0  0  0  0  0  0  0  0
    2.7930   -2.0383    2.6400 C   0  0  0  0  0  0  0  0  0  0  0  0
    4.1055   -1.3609    2.2730 C   0  0  0  0  0  0  0  0  0  0  0  0
    4.3778   -1.6363    0.8380 C   0  0  0  0  0  0  0  0  0  0  0  0
    3.5508   -2.3623    0.0913 C   0  0  0  0  0  0  0  0  0  0  0  0
    3.8053   -2.6433   -1.3273 C   0  0  0  0  0  0  0  0  0  0  0  0
    5.2514   -2.7443   -1.6905 C   0  0  0  0  0  0  0  0  0  0  0  0
    6.1860   -2.2376   -0.6413 C   0  0  0  0  0  0  0  0  0  0  0  0
    5.6006   -1.1036    0.1747 C   0  0  0  0  0  0  0  0  0  0  0  0
   -0.3123   -0.1978    0.0912 C   0  0  0  0  0  0  0  0  0  0  0  0
   -0.3045   -1.5118   -0.1837 N   0  0  0  0  0  0  0  0  0  0  0  0
   -1.1700   -1.9741   -1.1036 C   0  0  0  0  0  0  0  0  0  0  0  0
   -1.1995   -3.3366   -1.4243 C   0  0  0  0  0  0  0  0  0  0  0  0
   -2.0799   -3.8151   -2.3618 C   0  0  0  0  0  0  0  0  0  0  0  0
   -2.9354   -2.9183   -2.9802 C   0  0  0  0  0  0  0  0  0  0  0  0
   -2.9035   -1.5755   -2.6614 C   0  0  0  0  0  0  0  0  0  0  0  0
   -2.0203   -1.0811   -1.7178 C   0  0  0  0  0  0  0  0  0  0  0  0
   -2.0093    0.2520   -1.4209 N   0  0  0  0  0  0  0  0  0  0  0  0
   -1.1421    0.7196   -0.4983 C   0  0  0  0  0  0  0  0  0  0  0  0
   -0.8959    1.9580    0.0012 N   0  0  0  0  0  0  0  0  0  0  0  0
   -1.5698    3.1648   -0.3784 C   0  0  0  0  0  0  0  0  0  0  0  0
   -2.7629    3.4685    0.4196 C   0  0  0  0  0  0  0  0  0  0  0  0
   -2.7903    4.2125    1.5776 C   0  0  0  0  0  0  0  0  0  0  0  0
   -3.9935    4.4330    2.2496 C   0  0  0  0  0  0  0  0  0  0  0  0
   -5.1727    3.9100    1.7652 C   0  0  0  0  0  0  0  0  0  0  0  0
   -5.1561    3.1731    0.6211 C   0  0  0  0  0  0  0  0  0  0  0  0
   -3.9630    2.9632   -0.0317 C   0  0  0  0  0  0  0  0  0  0  0  0
  1  2  1  0
  2  3  2  0
  3  4  1  0
  4  5  2  0
  4  6  1  0
  6  7  1  0
  7  8  1  0
  8  9  1  0
  9 10  2  0
 10 11  1  0
 11 12  1  0
 12 13  1  0
 13 14  1  0
  3 15  1  0
 15 16  2  0
 16 17  1  0
 17 18  2  0
 18 19  1  0
 19 20  2  0
 20 21  1  0
 21 22  2  0
 22 23  1  0
 23 24  2  0
 24 25  1  0
 25 26  1  0
 26 27  1  0
 27 28  2  0
 28 29  1  0
 29 30  2  0
 30 31  1  0
 31 32  2  0
 25  2  1  0
 32 27  1  0
 14  9  1  0
 24 15  1  0
 22 17  1  0
M  END
>  <zinc_id>  (1) 
ZINC000002290889

>  <smiles>  (1) 
Nc1c(C(=O)NCCC2=CCCCC2)c2nc3ccccc3nc2n1Cc1ccccc1

$$$$
