
     RDKit          3D

 29 32  0  0  0  0  0  0  0  0999 V2000
   -1.0785   -0.3319    2.6762 C   0  0  0  0  0  0  0  0  0  0  0  0
   -0.5505    0.4910    1.6087 N   0  0  0  0  0  0  0  0  0  0  0  0
   -1.2532    0.9821    0.6107 C   0  0  0  0  0  0  0  0  0  0  0  0
   -2.6996    0.8691    0.3638 C   0  0  0  0  0  0  0  0  0  0  0  0
   -3.0228   -0.3581   -0.4742 C   0  0  0  0  0  0  0  0  0  0  0  0
   -4.5324   -0.3638   -0.6427 C   0  0  0  0  0  0  0  0  0  0  0  0
   -5.2480    0.2157   -1.6236 N   0  0  0  0  0  0  0  0  0  0  0  0
   -6.5700   -0.0041   -1.3742 C   0  0  0  0  0  0  0  0  0  0  0  0
   -7.7475    0.3427   -2.0161 C   0  0  0  0  0  0  0  0  0  0  0  0
   -8.9722   -0.0451   -1.4874 C   0  0  0  0  0  0  0  0  0  0  0  0
   -9.0410   -0.7913   -0.3080 C   0  0  0  0  0  0  0  0  0  0  0  0
   -7.8528   -1.1226    0.3052 C   0  0  0  0  0  0  0  0  0  0  0  0
   -6.6293   -0.7268   -0.2267 C   0  0  0  0  0  0  0  0  0  0  0  0
   -5.3659   -0.9487    0.2186 N   0  0  0  0  0  0  0  0  0  0  0  0
   -0.4058    1.6841   -0.1784 N   0  0  0  0  0  0  0  0  0  0  0  0
    0.8218    1.6132    0.3499 N   0  0  0  0  0  0  0  0  0  0  0  0
    0.7534    0.8829    1.4515 C   0  0  0  0  0  0  0  0  0  0  0  0
    1.9665    0.4172    2.6394 S   0  0  0  0  0  0  0  0  0  0  0  0
    3.5715    0.9802    2.5040 C   0  0  0  0  0  0  0  0  0  0  0  0
    4.5093    0.5828    1.4475 C   0  0  0  0  0  0  0  0  0  0  0  0
    4.6844    1.2670    0.2770 C   0  0  0  0  0  0  0  0  0  0  0  0
    5.6133    0.9341   -0.7120 C   0  0  0  0  0  0  0  0  0  0  0  0
    6.4318   -0.1699   -0.5176 C   0  0  0  0  0  0  0  0  0  0  0  0
    7.4584   -0.5524   -1.5313 C   0  0  0  0  0  0  0  0  0  0  0  0
    8.5415    0.4824   -1.6399 C   0  0  0  0  0  0  0  0  0  0  0  0
    6.8593   -0.8400   -2.8814 C   0  0  0  0  0  0  0  0  0  0  0  0
    8.1497   -1.8491   -1.1207 C   0  0  0  0  0  0  0  0  0  0  0  0
    6.2599   -0.8555    0.6494 C   0  0  0  0  0  0  0  0  0  0  0  0
    5.3486   -0.5412    1.6323 C   0  0  0  0  0  0  0  0  0  0  0  0
  1  2  1  0
  2  3  1  0
  3  4  1  0
  4  5  1  0
  5  6  1  0
  6  7  2  0
  7  8  1  0
  8  9  2  0
  9 10  1  0
 10 11  2  0
 11 12  1  0
 12 13  2  0
 13 14  1  0
  3 15  2  0
 15 16  1  0
 16 17  2  0
 17 18  1  0
 18 19  1  0
 19 20  1  0
 20 21  2  0
 21 22  1  0
 22 23  2  0
 23 24  1  0
 24 25  1  0
 24 26  1  0
 24 27  1  0
 23 28  1  0
 28 29  2  0
 17  2  1  0
 29 20  1  0
 14  6  1  0
 13  8  1  0
M  END
>  <zinc_id>  (1) 
ZINC000000929959

>  <smiles>  (1) 
Cn1c(CCc2nc3ccccc3[nH]2)nnc1SCc1ccc(C(C)(C)C)cc1

$$$$
