
     RDKit          3D

 31 33  0  0  0  0  0  0  0  0999 V2000
    1.5085   -1.4509   -3.7536 C   0  0  0  0  0  0  0  0  0  0  0  0
    2.5122   -0.3627   -3.5494 C   0  0  0  0  0  0  0  0  0  0  0  0
    2.9802   -0.2719   -2.2307 O   0  0  0  0  0  0  0  0  0  0  0  0
    2.1670   -0.0255   -1.1350 C   0  0  0  0  0  0  0  0  0  0  0  0
    0.7944    0.1543   -1.2631 C   0  0  0  0  0  0  0  0  0  0  0  0
   -0.0128    0.3991   -0.1727 C   0  0  0  0  0  0  0  0  0  0  0  0
   -1.4702    0.5873   -0.3317 C   0  0  0  0  0  0  0  0  0  0  0  0
   -2.2390    0.8146    0.6572 N   0  0  0  0  0  0  0  0  0  0  0  0
   -3.6153    0.9889    0.4788 N   0  0  0  0  0  0  0  0  0  0  0  0
   -4.4943   -0.1264    0.4118 C   0  0  0  0  0  0  0  0  0  0  0  0
   -3.9840   -1.2707    0.5192 O   0  0  0  0  0  0  0  0  0  0  0  0
   -5.9295    0.0734    0.2251 C   0  0  0  0  0  0  0  0  0  0  0  0
   -6.4259    1.3528    0.1141 C   0  0  0  0  0  0  0  0  0  0  0  0
   -7.7936    1.5568   -0.0644 C   0  0  0  0  0  0  0  0  0  0  0  0
   -8.6909    0.5120   -0.1363 C   0  0  0  0  0  0  0  0  0  0  0  0
  -10.0638    0.7140   -0.3154 O   0  0  0  0  0  0  0  0  0  0  0  0
  -10.5734    2.0294   -0.4293 C   0  0  0  0  0  0  0  0  0  0  0  0
   -8.1850   -0.7655   -0.0242 C   0  0  0  0  0  0  0  0  0  0  0  0
   -6.8179   -0.9767    0.1544 C   0  0  0  0  0  0  0  0  0  0  0  0
    0.6042    0.4585    1.0595 C   0  0  0  0  0  0  0  0  0  0  0  0
    1.9651    0.2843    1.2205 C   0  0  0  0  0  0  0  0  0  0  0  0
    2.7596    0.0386    0.1083 C   0  0  0  0  0  0  0  0  0  0  0  0
    4.1304   -0.1435    0.2151 O   0  0  0  0  0  0  0  0  0  0  0  0
    4.8366   -0.1005    1.4167 C   0  0  0  0  0  0  0  0  0  0  0  0
    6.2683   -0.3390    1.1224 C   0  0  0  0  0  0  0  0  0  0  0  0
    7.1271    0.6941    0.8426 C   0  0  0  0  0  0  0  0  0  0  0  0
    8.4620    0.4740    0.5680 C   0  0  0  0  0  0  0  0  0  0  0  0
    8.9242   -0.8111    0.5791 C   0  0  0  0  0  0  0  0  0  0  0  0
   10.3863   -1.0018    0.2739 C   0  0  0  0  0  0  0  0  0  0  0  0
    8.1036   -1.8662    0.8525 C   0  0  0  0  0  0  0  0  0  0  0  0
    6.7658   -1.6200    1.1254 C   0  0  0  0  0  0  0  0  0  0  0  0
  1  2  1  0
  2  3  1  0
  3  4  1  0
  4  5  2  0
  5  6  1  0
  6  7  1  0
  7  8  2  0
  8  9  1  0
  9 10  1  0
 10 11  2  0
 10 12  1  0
 12 13  2  0
 13 14  1  0
 14 15  2  0
 15 16  1  0
 16 17  1  0
 15 18  1  0
 18 19  2  0
  6 20  2  0
 20 21  1  0
 21 22  2  0
 22 23  1  0
 23 24  1  0
 24 25  1  0
 25 26  2  0
 26 27  1  0
 27 28  2  0
 28 29  1  0
 28 30  1  0
 30 31  2  0
 22  4  1  0
 31 25  1  0
 19 12  1  0
M  END
>  <zinc_id>  (1) 
ZINC000000657841

>  <smiles>  (1) 
CCOc1cc(/C=N/NC(=O)c2ccc(OC)cc2)ccc1OCc1ccc(C)cc1

$$$$
