
     RDKit          3D

 31 34  0  0  0  0  0  0  0  0999 V2000
   -6.8163    5.0320    0.7868 C   0  0  0  0  0  0  0  0  0  0  0  0
   -7.0966    3.7769    0.2290 O   0  0  0  0  0  0  0  0  0  0  0  0
   -6.0824    2.8351    0.0886 C   0  0  0  0  0  0  0  0  0  0  0  0
   -4.7987    3.1289    0.4940 C   0  0  0  0  0  0  0  0  0  0  0  0
   -3.8138    2.1790    0.3451 C   0  0  0  0  0  0  0  0  0  0  0  0
   -4.0414    0.9305   -0.1955 C   0  0  0  0  0  0  0  0  0  0  0  0
   -2.9225    0.0043   -0.3154 C   0  0  0  0  0  0  0  0  0  0  0  0
   -1.6519    0.3792    0.0798 C   0  0  0  0  0  0  0  0  0  0  0  0
   -0.5599   -0.4482   -0.0208 C   0  0  0  0  0  0  0  0  0  0  0  0
    0.7179    0.1062    0.4212 C   0  0  0  0  0  0  0  0  0  0  0  0
    0.7881    1.2566    0.9598 O   0  0  0  0  0  0  0  0  0  0  0  0
    1.8346   -0.6638    0.2276 N   0  0  0  0  0  0  0  0  0  0  0  0
    3.2673   -0.1624    0.6599 C   0  0  1  0  0  0  0  0  0  0  0  0
    2.8633   -0.1045    2.2810 C   0  0  0  0  0  0  0  0  0  0  0  0
    3.8778   -1.7223    0.8195 C   0  0  0  0  0  0  0  0  0  0  0  0
    5.3015   -1.3072    1.2359 C   0  0  0  0  0  0  0  0  0  0  0  0
    5.9240   -0.4933    0.1543 C   0  0  0  0  0  0  0  0  0  0  0  0
    5.8262    0.8701    0.0483 C   0  0  0  0  0  0  0  0  0  0  0  0
    6.3990    1.6113   -0.9485 C   0  0  0  0  0  0  0  0  0  0  0  0
    7.1366    0.9482   -1.9319 C   0  0  0  0  0  0  0  0  0  0  0  0
    7.2390   -0.4337   -1.8284 C   0  0  0  0  0  0  0  0  0  0  0  0
    6.6497   -1.1516   -0.8116 C   0  0  0  0  0  0  0  0  0  0  0  0
   -0.7178   -1.6912   -0.5274 C   0  0  0  0  0  0  0  0  0  0  0  0
    0.3662   -2.5095   -0.6242 C   0  0  0  0  0  0  0  0  0  0  0  0
    0.1966   -3.7768   -1.1409 C   0  0  0  0  0  0  0  0  0  0  0  0
   -1.0705   -4.1888   -1.5493 C   0  0  0  0  0  0  0  0  0  0  0  0
   -2.1448   -3.3442   -1.4405 C   0  0  0  0  0  0  0  0  0  0  0  0
   -1.9996   -2.0677   -0.9250 C   0  0  0  0  0  0  0  0  0  0  0  0
   -3.0441   -1.2286   -0.8110 N   0  0  0  0  0  0  0  0  0  0  0  0
   -5.3126    0.6458   -0.5947 C   0  0  0  0  0  0  0  0  0  0  0  0
   -6.3149    1.5894   -0.4518 C   0  0  0  0  0  0  0  0  0  0  0  0
  1  2  1  0
  2  3  1  0
  3  4  2  0
  4  5  1  0
  5  6  2  0
  6  7  1  0
  7  8  2  0
  8  9  1  0
  9 10  1  0
 10 11  2  0
 10 12  1  0
 12 13  1  0
 13 14  1  1
 13 15  1  0
 15 16  1  0
 16 17  1  0
 17 18  2  0
 18 19  1  0
 19 20  2  0
 20 21  1  0
 21 22  2  0
  9 23  2  0
 23 24  1  0
 24 25  2  0
 25 26  1  0
 26 27  2  0
 27 28  1  0
 28 29  2  0
  6 30  1  0
 30 31  2  0
 31  3  1  0
 29  7  1  0
 22 17  1  0
 28 23  1  0
M  END
>  <zinc_id>  (1) 
ZINC000003037529

>  <smiles>  (1) 
COc1ccc(-c2cc(C(=O)N[C@@H](C)CCc3ccccc3)c3ccccc3n2)cc1

$$$$
