
     RDKit          3D

 31 33  0  0  0  0  0  0  0  0999 V2000
   -5.5592    5.2568    1.7134 C   0  0  0  0  0  0  0  0  0  0  0  0
   -4.5522    4.5651    2.6367 C   0  0  0  0  0  0  0  0  0  0  0  0
   -4.1082    3.3430    2.0342 O   0  0  0  0  0  0  0  0  0  0  0  0
   -3.4717    3.3112    0.8211 C   0  0  0  0  0  0  0  0  0  0  0  0
   -3.2521    4.3663    0.1858 O   0  0  0  0  0  0  0  0  0  0  0  0
   -3.0205    2.0508    0.2124 C   0  0  0  0  0  0  0  0  0  0  0  0
   -3.1456    0.7800    0.7101 C   0  0  0  0  0  0  0  0  0  0  0  0
   -2.5869   -0.1505   -0.1729 C   0  0  0  0  0  0  0  0  0  0  0  0
   -2.5653   -1.5991    0.0369 C   0  0  0  0  0  0  0  0  0  0  0  0
   -2.0567   -2.5017   -0.8547 C   0  0  0  0  0  0  0  0  0  0  0  0
   -2.0671   -3.8733   -0.5920 C   0  0  0  0  0  0  0  0  0  0  0  0
   -2.5921   -4.3469    0.5754 C   0  0  0  0  0  0  0  0  0  0  0  0
   -3.1084   -3.4588    1.4855 C   0  0  0  0  0  0  0  0  0  0  0  0
   -3.0886   -2.1051    1.2066 C   0  0  0  0  0  0  0  0  0  0  0  0
   -2.1261    0.5788   -1.2008 N   0  0  0  0  0  0  0  0  0  0  0  0
   -1.4140    0.0619   -2.3656 C   0  0  0  0  0  0  0  0  0  0  0  0
    0.0745    0.1235   -2.2374 C   0  0  0  0  0  0  0  0  0  0  0  0
    0.6596   -0.6311   -1.0817 C   0  0  0  0  0  0  0  0  0  0  0  0
    2.1342   -0.4689   -1.0982 C   0  0  0  0  0  0  0  0  0  0  0  0
    2.6785    0.2150   -1.9902 O   0  0  0  0  0  0  0  0  0  0  0  0
    2.9788   -1.0702   -0.1224 N   0  0  0  0  0  0  0  0  0  0  0  0
    4.3817   -0.8692   -0.2047 C   0  0  0  0  0  0  0  0  0  0  0  0
    5.0105   -0.1217   -1.1746 C   0  0  0  0  0  0  0  0  0  0  0  0
    6.3938    0.0357   -1.1977 C   0  0  0  0  0  0  0  0  0  0  0  0
    7.1568   -0.5726   -0.2237 C   0  0  0  0  0  0  0  0  0  0  0  0
    6.5467   -1.3166    0.7441 C   0  0  0  0  0  0  0  0  0  0  0  0
    5.1649   -1.4687    0.7598 C   0  0  0  0  0  0  0  0  0  0  0  0
    4.5820   -2.2238    1.7473 O   0  0  0  0  0  0  0  0  0  0  0  0
    5.3489   -2.8415    2.7353 C   0  0  0  0  0  0  0  0  0  0  0  0
   -2.3774    1.9063   -0.9901 C   0  0  0  0  0  0  0  0  0  0  0  0
   -2.0188    3.0254   -1.9057 C   0  0  0  0  0  0  0  0  0  0  0  0
  1  2  1  0
  2  3  1  0
  3  4  1  0
  4  5  2  0
  4  6  1  0
  6  7  1  0
  7  8  2  0
  8  9  1  0
  9 10  2  0
 10 11  1  0
 11 12  2  0
 12 13  1  0
 13 14  2  0
  8 15  1  0
 15 16  1  0
 16 17  1  0
 17 18  1  0
 18 19  1  0
 19 20  2  0
 19 21  1  0
 21 22  1  0
 22 23  2  0
 23 24  1  0
 24 25  2  0
 25 26  1  0
 26 27  2  0
 27 28  1  0
 28 29  1  0
 15 30  1  0
 30 31  1  0
 30  6  2  0
 14  9  1  0
 27 22  1  0
M  END
>  <zinc_id>  (1) 
ZINC000002930797

>  <smiles>  (1) 
CCOC(=O)c1cc(-c2ccccc2)n(CCCC(=O)Nc2ccccc2OC)c1C

$$$$
