
     RDKit          3D

 33 36  0  0  0  0  0  0  0  0999 V2000
    2.6732    1.0134    2.7822 C   0  0  0  0  0  0  0  0  0  0  0  0
    3.7462    2.0126    2.3309 C   0  0  0  0  0  0  0  0  0  0  0  0
    4.4750    1.3549    1.3115 O   0  0  0  0  0  0  0  0  0  0  0  0
    5.5316    1.8770    0.6196 C   0  0  0  0  0  0  0  0  0  0  0  0
    5.8629    3.0668    0.9488 O   0  0  0  0  0  0  0  0  0  0  0  0
    6.2600    1.2155   -0.3998 C   0  0  0  0  0  0  0  0  0  0  0  0
    5.6493   -0.2384   -0.7785 C   0  0  1  0  0  0  0  0  0  0  0  0
    5.7973   -0.8229    0.5989 O   0  0  0  0  0  0  0  0  0  0  0  0
    4.1055    0.2068   -0.5653 C   0  0  0  0  0  0  0  0  0  0  0  0
    3.3996   -1.2186   -0.9470 C   0  0  1  0  0  0  0  0  0  0  0  0
    4.0851   -1.9851    0.1506 O   0  0  0  0  0  0  0  0  0  0  0  0
    2.0986   -0.8993   -0.0763 C   0  0  0  0  0  0  0  0  0  0  0  0
    0.9523   -0.8113   -0.3125 C   0  0  0  0  0  0  0  0  0  0  0  0
   -0.2806   -0.7944   -0.9700 C   0  0  0  0  0  0  0  0  0  0  0  0
   -1.4548   -0.5206   -0.2740 C   0  0  0  0  0  0  0  0  0  0  0  0
   -1.5531   -0.2276    1.1704 C   0  0  0  0  0  0  0  0  0  0  0  0
   -1.2941    1.0180    1.6860 C   0  0  0  0  0  0  0  0  0  0  0  0
   -1.3648    1.3586    3.0050 C   0  0  0  0  0  0  0  0  0  0  0  0
   -1.7210    0.4093    3.9347 C   0  0  0  0  0  0  0  0  0  0  0  0
   -1.9912   -0.8558    3.4701 C   0  0  0  0  0  0  0  0  0  0  0  0
   -1.9079   -1.1633    2.1170 C   0  0  0  0  0  0  0  0  0  0  0  0
   -2.5212   -0.5656   -1.1493 C   0  0  0  0  0  0  0  0  0  0  0  0
   -3.8587   -0.3616   -0.9117 C   0  0  0  0  0  0  0  0  0  0  0  0
   -4.2551   -0.0640    0.3754 C   0  0  0  0  0  0  0  0  0  0  0  0
   -5.6016    0.1387    0.5985 C   0  0  0  0  0  0  0  0  0  0  0  0
   -6.5060    0.0434   -0.4392 C   0  0  0  0  0  0  0  0  0  0  0  0
   -6.0674   -0.2564   -1.7116 C   0  0  0  0  0  0  0  0  0  0  0  0
   -4.7316   -0.4612   -1.9522 C   0  0  0  0  0  0  0  0  0  0  0  0
   -4.2203   -0.7636   -3.1955 C   0  0  0  0  0  0  0  0  0  0  0  0
   -2.8761   -0.9651   -3.4159 C   0  0  0  0  0  0  0  0  0  0  0  0
   -2.0158   -0.8614   -2.3623 N   0  0  0  0  0  0  0  0  0  0  0  0
   -0.6855   -1.0011   -2.2757 C   0  0  0  0  0  0  0  0  0  0  0  0
    0.2702   -1.3253   -3.3629 C   0  0  0  0  0  0  0  0  0  0  0  0
  1  2  1  0
  2  3  1  0
  3  4  1  0
  4  5  2  0
  4  6  1  0
  6  7  1  0
  7  8  1  1
  7  9  1  0
  9 10  1  0
 10 11  1  1
 10 12  1  0
 12 13  2  0
 13 14  1  0
 14 15  1  0
 15 16  1  0
 16 17  2  0
 17 18  1  0
 18 19  2  0
 19 20  1  0
 20 21  2  0
 15 22  2  0
 22 23  1  0
 23 24  2  0
 24 25  1  0
 25 26  2  0
 26 27  1  0
 27 28  2  0
 28 29  1  0
 29 30  2  0
 30 31  1  0
 31 32  1  0
 32 33  1  0
 32 14  2  0
 21 16  1  0
 31 22  1  0
 28 23  1  0
M  END
>  <zinc_id>  (1) 
ZINC000001890295

>  <smiles>  (1) 
CCOC(=O)C[C@@H](O)C[C@@H](O)/C=C/c1c(-c2ccccc2)c2c3ccccc3ccn2c1C

$$$$
