
     RDKit          3D

 32 35  0  0  0  0  0  0  0  0999 V2000
    6.4608   -0.6324    1.6979 C   0  0  0  0  0  0  0  0  0  0  0  0
    6.3054    0.3002    0.6659 O   0  0  0  0  0  0  0  0  0  0  0  0
    5.0870    0.4341    0.0243 C   0  0  0  0  0  0  0  0  0  0  0  0
    4.0123   -0.3358    0.3817 C   0  0  0  0  0  0  0  0  0  0  0  0
    2.8117   -0.2038   -0.2517 C   0  0  0  0  0  0  0  0  0  0  0  0
    1.6556   -0.9602    0.0575 N   0  0  0  0  0  0  0  0  0  0  0  0
    1.7131   -1.9018    1.1042 C   0  0  0  0  0  0  0  0  0  0  0  0
    2.7829   -2.0438    1.7337 O   0  0  0  0  0  0  0  0  0  0  0  0
    0.5176   -2.6978    1.4364 C   0  0  0  0  0  0  0  0  0  0  0  0
   -0.8195   -2.2436    0.3232 S   0  0  0  0  0  0  0  0  0  0  0  0
   -1.3691   -0.5618    0.5696 C   0  0  0  0  0  0  0  0  0  0  0  0
   -0.7273    0.3924   -0.1623 N   0  0  0  0  0  0  0  0  0  0  0  0
   -1.0856    1.6597   -0.0192 C   0  0  0  0  0  0  0  0  0  0  0  0
   -0.4082    2.6021   -0.7814 C   0  0  0  0  0  0  0  0  0  0  0  0
   -0.7147    3.9377   -0.6954 C   0  0  0  0  0  0  0  0  0  0  0  0
   -1.7139    4.3193    0.1681 C   0  0  0  0  0  0  0  0  0  0  0  0
   -2.3841    3.3823    0.9229 C   0  0  0  0  0  0  0  0  0  0  0  0
   -2.0869    2.0278    0.8487 C   0  0  0  0  0  0  0  0  0  0  0  0
   -2.7560    1.0885    1.6033 C   0  0  0  0  0  0  0  0  0  0  0  0
   -2.3727   -0.2428    1.4465 C   0  0  0  0  0  0  0  0  0  0  0  0
   -3.0460   -1.3299    2.2128 C   0  0  0  0  0  0  0  0  0  0  0  0
   -3.9837   -2.0030    1.2795 C   0  0  0  0  0  0  0  0  0  0  0  0
   -3.6492   -3.0893    0.5039 C   0  0  0  0  0  0  0  0  0  0  0  0
   -4.5078   -3.7052   -0.3515 C   0  0  0  0  0  0  0  0  0  0  0  0
   -5.8040   -3.2486   -0.4838 C   0  0  0  0  0  0  0  0  0  0  0  0
   -6.1741   -2.1604    0.2792 C   0  0  0  0  0  0  0  0  0  0  0  0
   -5.2974   -1.5400    1.1455 C   0  0  0  0  0  0  0  0  0  0  0  0
    2.7136    0.7422   -1.2768 C   0  0  0  0  0  0  0  0  0  0  0  0
    3.7731    1.5308   -1.6592 C   0  0  0  0  0  0  0  0  0  0  0  0
    3.6607    2.4715   -2.6845 O   0  0  0  0  0  0  0  0  0  0  0  0
    2.4417    2.6535   -3.3789 C   0  0  0  0  0  0  0  0  0  0  0  0
    4.9647    1.3584   -0.9879 C   0  0  0  0  0  0  0  0  0  0  0  0
  1  2  1  0
  2  3  1  0
  3  4  2  0
  4  5  1  0
  5  6  1  0
  6  7  1  0
  7  8  2  0
  7  9  1  0
  9 10  1  0
 10 11  1  0
 11 12  2  0
 12 13  1  0
 13 14  2  0
 14 15  1  0
 15 16  2  0
 16 17  1  0
 17 18  2  0
 18 19  1  0
 19 20  2  0
 20 21  1  0
 21 22  1  0
 22 23  2  0
 23 24  1  0
 24 25  2  0
 25 26  1  0
 26 27  2  0
  5 28  2  0
 28 29  1  0
 29 30  1  0
 30 31  1  0
 29 32  2  0
 32  3  1  0
 20 11  1  0
 27 22  1  0
 18 13  1  0
M  END
>  <zinc_id>  (1) 
ZINC000001339882

>  <smiles>  (1) 
COc1cc(NC(=O)CSc2nc3ccccc3cc2Cc2ccccc2)cc(OC)c1

$$$$
