
     RDKit          3D

 31 34  0  0  0  0  0  0  0  0999 V2000
    0.7886   -0.9402   -1.1860 O   0  0  0  0  0  0  0  0  0  0  0  0
    1.5387    0.0585   -1.3243 C   0  0  0  0  0  0  0  0  0  0  0  0
    0.9752    1.4193   -1.5978 C   0  0  0  0  0  0  0  0  0  0  0  0
   -0.4288    1.3818   -1.6767 O   0  0  0  0  0  0  0  0  0  0  0  0
   -1.2611    0.9694   -0.6467 C   0  0  0  0  0  0  0  0  0  0  0  0
   -0.7532    0.5981    0.4385 O   0  0  0  0  0  0  0  0  0  0  0  0
   -2.7395    0.9665   -0.8232 C   0  0  0  0  0  0  0  0  0  0  0  0
   -3.3439    0.5120    0.3646 O   0  0  0  0  0  0  0  0  0  0  0  0
   -4.7363    0.4256    0.4443 C   0  0  0  0  0  0  0  0  0  0  0  0
   -5.3684   -0.0140    1.5884 C   0  0  0  0  0  0  0  0  0  0  0  0
   -6.7486   -0.0985    1.6667 C   0  0  0  0  0  0  0  0  0  0  0  0
   -7.5513    0.2531    0.6047 C   0  0  0  0  0  0  0  0  0  0  0  0
   -6.9354    0.6917   -0.5398 C   0  0  0  0  0  0  0  0  0  0  0  0
   -5.5386    0.7770   -0.6181 C   0  0  0  0  0  0  0  0  0  0  0  0
   -7.9872    0.9983   -1.5306 C   0  0  0  0  0  0  0  0  0  0  0  0
   -9.1881    1.3313   -0.6852 C   0  0  0  0  0  0  0  0  0  0  0  0
   -9.0484    0.2703    0.4156 C   0  0  0  0  0  0  0  0  0  0  0  0
    2.9373   -0.1548   -1.2115 N   0  0  0  0  0  0  0  0  0  0  0  0
    3.4935   -1.4434   -0.9512 C   0  0  0  0  0  0  0  0  0  0  0  0
    2.6258   -2.4962   -0.7977 C   0  0  0  0  0  0  0  0  0  0  0  0
    3.0996   -3.7509   -0.5463 C   0  0  0  0  0  0  0  0  0  0  0  0
    4.4534   -3.9533   -0.4476 C   0  0  0  0  0  0  0  0  0  0  0  0
    5.3122   -2.8796   -0.6054 C   0  0  0  0  0  0  0  0  0  0  0  0
    4.8617   -1.6126   -0.8581 C   0  0  0  0  0  0  0  0  0  0  0  0
    5.8223   -0.5103   -1.0146 C   0  0  0  0  0  0  0  0  0  0  0  0
    5.8959    0.3590    0.1792 C   0  0  0  0  0  0  0  0  0  0  0  0
    6.7932    0.1474    1.2146 C   0  0  0  0  0  0  0  0  0  0  0  0
    6.8555    0.9635    2.3243 C   0  0  0  0  0  0  0  0  0  0  0  0
    6.0138    2.0273    2.4341 C   0  0  0  0  0  0  0  0  0  0  0  0
    5.1074    2.2648    1.4180 C   0  0  0  0  0  0  0  0  0  0  0  0
    5.0546    1.4388    0.3096 C   0  0  0  0  0  0  0  0  0  0  0  0
  1  2  2  0
  2  3  1  0
  3  4  1  0
  4  5  1  0
  5  6  2  0
  5  7  1  0
  7  8  1  0
  8  9  1  0
  9 10  2  0
 10 11  1  0
 11 12  2  0
 12 13  1  0
 13 14  2  0
 13 15  1  0
 15 16  1  0
 16 17  1  0
  2 18  1  0
 18 19  1  0
 19 20  2  0
 20 21  1  0
 21 22  2  0
 22 23  1  0
 23 24  2  0
 24 25  1  0
 25 26  1  0
 26 27  2  0
 27 28  1  0
 28 29  2  0
 29 30  1  0
 30 31  2  0
 14  9  1  0
 24 19  1  0
 31 26  1  0
 17 12  1  0
M  END
>  <zinc_id>  (1) 
ZINC000004439060

>  <smiles>  (1) 
O=C(COC(=O)COc1ccc2c(c1)CCC2)Nc1ccccc1Cc1ccccc1

$$$$
