
     RDKit          3D

 32 37  0  0  0  0  0  0  0  0999 V2000
   -4.5480    3.1776    2.3214 C   0  0  0  0  0  0  0  0  0  0  0  0
   -4.7520    1.6968    2.5653 C   0  0  0  0  0  0  0  0  0  0  0  0
   -4.5724    0.9153    1.3648 N   0  0  0  0  0  0  0  0  0  0  0  0
   -5.5921    0.6255    0.5046 C   0  0  0  0  0  0  0  0  0  0  0  0
   -6.9298    0.9195    0.4709 C   0  0  0  0  0  0  0  0  0  0  0  0
   -7.7234    0.4670   -0.5672 C   0  0  0  0  0  0  0  0  0  0  0  0
   -7.1834   -0.2891   -1.5888 C   0  0  0  0  0  0  0  0  0  0  0  0
   -5.8391   -0.5903   -1.5643 C   0  0  0  0  0  0  0  0  0  0  0  0
   -5.0721   -0.1278   -0.5202 C   0  0  0  0  0  0  0  0  0  0  0  0
   -3.7126   -0.3099   -0.2965 C   0  0  0  0  0  0  0  0  0  0  0  0
   -2.7437   -0.9774   -1.0103 C   0  0  0  0  0  0  0  0  0  0  0  0
   -1.4428   -1.0042   -0.5568 C   0  0  0  0  0  0  0  0  0  0  0  0
   -0.3544   -1.7111   -1.2883 C   0  0  0  0  0  0  0  0  0  0  0  0
    0.8631   -1.5525   -0.5848 N   0  0  0  0  0  0  0  0  0  0  0  0
    2.0027   -2.1788   -1.1638 C   0  0  0  0  0  0  0  0  0  0  0  0
    3.1659   -1.2851   -1.4272 C   0  0  0  0  0  0  0  0  0  0  0  0
    3.5802   -0.5939   -0.1482 C   0  0  0  0  0  0  0  0  0  0  0  0
    2.3884   -0.1027    0.6363 C   0  0  0  0  0  0  0  0  0  0  0  0
    1.0923   -0.2345   -0.0658 C   0  0  0  0  0  0  0  0  0  0  0  0
    4.6194    0.3993   -0.3083 C   0  0  0  0  0  0  0  0  0  0  0  0
    4.1885    1.7267   -0.4330 C   0  0  0  0  0  0  0  0  0  0  0  0
    5.0545    2.7799   -0.5908 C   0  0  0  0  0  0  0  0  0  0  0  0
    6.4069    2.5570   -0.6323 C   0  0  0  0  0  0  0  0  0  0  0  0
    6.8386    1.2571   -0.5106 C   0  0  0  0  0  0  0  0  0  0  0  0
    5.9624    0.2026   -0.3521 C   0  0  0  0  0  0  0  0  0  0  0  0
    6.4715   -1.1822   -0.2242 C   0  0  0  0  0  0  0  0  0  0  0  0
    5.4248   -2.1590   -0.2995 C   0  0  0  0  0  0  0  0  0  0  0  0
    4.1952   -1.8384    0.7723 C   0  0  1  0  0  0  0  0  0  0  0  0
    4.9929   -0.9323    1.7226 O   0  0  0  0  0  0  0  0  0  0  0  0
   -1.1802   -0.3390    0.6237 C   0  0  0  0  0  0  0  0  0  0  0  0
   -2.1494    0.3309    1.3414 C   0  0  0  0  0  0  0  0  0  0  0  0
   -3.4521    0.3532    0.8799 C   0  0  0  0  0  0  0  0  0  0  0  0
  1  2  1  0
  2  3  1  0
  3  4  1  0
  4  5  2  0
  5  6  1  0
  6  7  2  0
  7  8  1  0
  8  9  2  0
  9 10  1  0
 10 11  2  0
 11 12  1  0
 12 13  1  0
 13 14  1  0
 14 15  1  0
 15 16  1  0
 16 17  1  0
 17 18  1  0
 18 19  1  0
 17 20  1  0
 20 21  2  0
 21 22  1  0
 22 23  2  0
 23 24  1  0
 24 25  2  0
 25 26  1  0
 26 27  1  0
 27 28  1  0
 28 29  1  1
 12 30  2  0
 30 31  1  0
 31 32  2  0
 32  3  1  0
  9  4  1  0
 32 10  1  0
 19 14  1  0
 25 20  1  0
 28 17  1  0
M  END
>  <zinc_id>  (1) 
ZINC000003942856

>  <smiles>  (1) 
CCn1c2ccccc2c2cc(CN3CCC4(CC3)c3ccccc3CC[C@H]4O)ccc21

$$$$
