
     RDKit          3D

 35 39  0  0  0  0  0  0  0  0999 V2000
   -1.8167    0.4204   -2.5558 C   0  0  0  0  0  0  0  0  0  0  0  0
   -2.8874    0.6313   -1.5140 C   0  0  0  0  0  0  0  0  0  0  0  0
   -3.9751    1.5131   -1.9770 C   0  0  0  0  0  0  0  0  0  0  0  0
   -2.3759    1.0034   -0.2083 C   0  0  0  0  0  0  0  0  0  0  0  0
   -2.1899    2.2541    0.3285 C   0  0  0  0  0  0  0  0  0  0  0  0
   -1.6784    2.4613    1.5972 C   0  0  0  0  0  0  0  0  0  0  0  0
   -1.4916    3.7323    2.1354 O   0  0  0  0  0  0  0  0  0  0  0  0
   -1.3542    1.3340    2.3201 C   0  0  0  0  0  0  0  0  0  0  0  0
   -1.5419    0.0592    1.7785 C   0  0  0  0  0  0  0  0  0  0  0  0
   -2.0509   -0.1187    0.5189 C   0  0  0  0  0  0  0  0  0  0  0  0
   -2.3232   -1.2450   -0.2272 N   0  0  0  0  0  0  0  0  0  0  0  0
   -1.7718   -2.5817   -0.2524 C   0  0  0  0  0  0  0  0  0  0  0  0
   -0.3315   -2.5457   -0.5422 C   0  0  0  0  0  0  0  0  0  0  0  0
    0.3569   -1.3762   -0.3804 C   0  0  0  0  0  0  0  0  0  0  0  0
    1.7269   -1.2761   -0.6459 C   0  0  0  0  0  0  0  0  0  0  0  0
    2.3740   -2.4112   -1.0828 C   0  0  0  0  0  0  0  0  0  0  0  0
    3.7289   -2.3809   -1.3642 O   0  0  0  0  0  0  0  0  0  0  0  0
    4.4668   -1.1832   -1.2066 C   0  0  0  0  0  0  0  0  0  0  0  0
    4.3888   -0.7355    0.2383 C   0  0  0  0  0  0  0  0  0  0  0  0
    5.1772    0.5040    0.3046 N   0  0  0  0  0  0  0  0  0  0  0  0
    6.5549    0.0573    0.0729 C   0  0  0  0  0  0  0  0  0  0  0  0
    7.5364    1.0129    0.6859 C   0  0  0  0  0  0  0  0  0  0  0  0
    6.8534    2.1302    1.4439 C   0  0  0  0  0  0  0  0  0  0  0  0
    6.1056    3.0720    0.5334 C   0  0  0  0  0  0  0  0  0  0  0  0
    5.8696    2.4839   -0.8376 C   0  0  0  0  0  0  0  0  0  0  0  0
    4.8275    1.3621   -0.8059 C   0  0  0  0  0  0  0  0  0  0  0  0
    1.7138   -3.6039   -1.2562 C   0  0  0  0  0  0  0  0  0  0  0  0
    0.3361   -3.6619   -0.9782 C   0  0  0  0  0  0  0  0  0  0  0  0
   -3.5174   -0.8503   -1.2212 C   0  0  1  0  0  0  0  0  0  0  0  0
   -4.5217   -0.4560   -0.1060 C   0  0  0  0  0  0  0  0  0  0  0  0
   -5.2791    0.6107   -0.3746 C   0  0  0  0  0  0  0  0  0  0  0  0
   -6.2372    1.0997    0.5098 C   0  0  0  0  0  0  0  0  0  0  0  0
   -6.4032    0.4556    1.7018 C   0  0  0  0  0  0  0  0  0  0  0  0
   -5.6032   -0.6636    1.9758 C   0  0  0  0  0  0  0  0  0  0  0  0
   -4.6667   -1.1076    1.0611 C   0  0  0  0  0  0  0  0  0  0  0  0
  1  2  1  0
  2  3  1  0
  2  4  1  0
  4  5  2  0
  5  6  1  0
  6  7  1  0
  6  8  2  0
  8  9  1  0
  9 10  2  0
 10 11  1  0
 11 12  1  0
 12 13  1  0
 13 14  2  0
 14 15  1  0
 15 16  2  0
 16 17  1  0
 17 18  1  0
 18 19  1  0
 19 20  1  0
 20 21  1  0
 21 22  1  0
 22 23  1  0
 23 24  1  0
 24 25  1  0
 25 26  1  0
 16 27  1  0
 27 28  2  0
 11 29  1  0
 29 30  1  1
 30 31  2  0
 31 32  1  0
 32 33  2  0
 33 34  1  0
 34 35  2  0
 29  2  1  0
 35 30  1  0
 10  4  1  0
 28 13  1  0
 26 20  1  0
M  END
>  <zinc_id>  (1) 
ZINC000001549256

>  <smiles>  (1) 
CC1(C)c2cc(O)ccc2N(Cc2ccc(OCCN3CCCCCC3)cc2)[C@H]1c1ccccc1

$$$$
