
     RDKit          3D

 32 35  0  0  0  0  0  0  0  0999 V2000
   -6.6142   -0.1653    2.0026 C   0  0  0  0  0  0  0  0  0  0  0  0
   -5.5102   -1.1649    1.9399 C   0  0  0  0  0  0  0  0  0  0  0  0
   -5.6251   -2.4333    2.4475 C   0  0  0  0  0  0  0  0  0  0  0  0
   -4.6108   -3.3660    2.3959 C   0  0  0  0  0  0  0  0  0  0  0  0
   -3.4377   -2.9647    1.7957 C   0  0  0  0  0  0  0  0  0  0  0  0
   -3.3087   -1.6909    1.2805 C   0  0  0  0  0  0  0  0  0  0  0  0
   -4.3195   -0.7611    1.3319 C   0  0  0  0  0  0  0  0  0  0  0  0
   -4.2084    0.6102    0.7873 C   0  0  0  0  0  0  0  0  0  0  0  0
   -2.9344    0.8360    0.2110 N   0  0  0  0  0  0  0  0  0  0  0  0
   -1.8167    0.6939    1.0782 C   0  0  0  0  0  0  0  0  0  0  0  0
   -0.5356    0.9397    0.4145 C   0  0  0  0  0  0  0  0  0  0  0  0
   -0.3531    1.1388   -0.9329 C   0  0  0  0  0  0  0  0  0  0  0  0
    1.0098    1.3352   -1.1381 C   0  0  0  0  0  0  0  0  0  0  0  0
    1.5719    1.2421    0.1090 C   0  0  0  0  0  0  0  0  0  0  0  0
    3.0270    1.3881    0.3784 C   0  0  0  0  0  0  0  0  0  0  0  0
    3.8161    1.5909   -0.5567 O   0  0  0  0  0  0  0  0  0  0  0  0
    3.4957    1.2953    1.6953 N   0  0  0  0  0  0  0  0  0  0  0  0
    4.8318    1.3979    2.0993 C   0  0  0  0  0  0  0  0  0  0  0  0
    5.8597    0.4693    1.7315 C   0  0  0  0  0  0  0  0  0  0  0  0
    6.2153    0.1761    0.3595 C   0  0  0  0  0  0  0  0  0  0  0  0
    5.6107   -0.9316   -0.2535 C   0  0  0  0  0  0  0  0  0  0  0  0
    5.9258   -1.2372   -1.5520 C   0  0  0  0  0  0  0  0  0  0  0  0
    6.8237   -0.4900   -2.2859 C   0  0  0  0  0  0  0  0  0  0  0  0
    7.3922    0.5892   -1.6404 C   0  0  0  0  0  0  0  0  0  0  0  0
    7.0805    0.8807   -0.3762 N   0  0  0  0  0  0  0  0  0  0  0  0
    0.6348    1.0114    0.9795 O   0  0  0  0  0  0  0  0  0  0  0  0
   -2.7463    0.4690   -1.1425 C   0  0  0  0  0  0  0  0  0  0  0  0
   -3.6532    1.2588   -2.0712 C   0  0  0  0  0  0  0  0  0  0  0  0
   -3.4257    0.8513   -3.4976 C   0  0  0  0  0  0  0  0  0  0  0  0
   -3.5832   -0.6341   -3.7274 C   0  0  0  0  0  0  0  0  0  0  0  0
   -3.8680   -1.3470   -2.4135 C   0  0  0  0  0  0  0  0  0  0  0  0
   -2.7440   -0.9880   -1.4496 C   0  0  0  0  0  0  0  0  0  0  0  0
  1  2  1  0
  2  3  2  0
  3  4  1  0
  4  5  2  0
  5  6  1  0
  6  7  2  0
  7  8  1  0
  8  9  1  0
  9 10  1  0
 10 11  1  0
 11 12  2  0
 12 13  1  0
 13 14  2  0
 14 15  1  0
 15 16  2  0
 15 17  1  0
 17 18  1  0
 18 19  1  0
 19 20  1  0
 20 21  2  0
 21 22  1  0
 22 23  2  0
 23 24  1  0
 24 25  2  0
 14 26  1  0
  9 27  1  0
 27 28  1  0
 28 29  1  0
 29 30  1  0
 30 31  1  0
 31 32  1  0
  7  2  1  0
 26 11  1  0
 32 27  1  0
 25 20  1  0
M  END
>  <zinc_id>  (1) 
ZINC000004419114

>  <smiles>  (1) 
Cc1ccccc1CN(Cc1ccc(C(=O)NCCc2ccccn2)o1)C1CCCCC1

$$$$
