
     RDKit          3D

 32 36  0  0  0  0  0  0  0  0999 V2000
    9.0272    1.2126    1.0547 C   0  0  0  0  0  0  0  0  0  0  0  0
    7.8544    0.2700    0.9031 C   0  0  0  0  0  0  0  0  0  0  0  0
    6.6648    0.6903    1.7229 C   0  0  0  0  0  0  0  0  0  0  0  0
    6.1534    2.0589    1.3473 C   0  0  0  0  0  0  0  0  0  0  0  0
    5.7432    2.1654    0.0216 O   0  0  0  0  0  0  0  0  0  0  0  0
    4.7406    1.4144   -0.5512 C   0  0  0  0  0  0  0  0  0  0  0  0
    4.3872    1.5735   -1.8709 C   0  0  0  0  0  0  0  0  0  0  0  0
    3.3928    0.8342   -2.4540 C   0  0  0  0  0  0  0  0  0  0  0  0
    2.7189   -0.0995   -1.7082 C   0  0  0  0  0  0  0  0  0  0  0  0
    3.0210   -0.2982   -0.4148 C   0  0  0  0  0  0  0  0  0  0  0  0
    2.2712   -1.3556    0.4639 C   0  0  2  0  0  0  0  0  0  0  0  0
    2.2591   -2.5812   -0.4960 N   0  0  0  0  0  0  0  0  0  0  0  0
    1.8704   -2.2959   -1.7674 C   0  0  0  0  0  0  0  0  0  0  0  0
    0.4632   -1.8593   -2.0211 C   0  0  0  0  0  0  0  0  0  0  0  0
    0.0514   -1.1165   -0.8046 C   0  0  0  0  0  0  0  0  0  0  0  0
    0.7826   -0.8839    0.2606 C   0  0  0  0  0  0  0  0  0  0  0  0
    0.0592   -0.1737    1.1617 N   0  0  0  0  0  0  0  0  0  0  0  0
   -1.1721    0.0679    0.6847 C   0  0  0  0  0  0  0  0  0  0  0  0
   -2.2605    0.7243    1.1835 C   0  0  0  0  0  0  0  0  0  0  0  0
   -3.4189    0.8156    0.4518 C   0  0  0  0  0  0  0  0  0  0  0  0
   -3.4836    0.2413   -0.7936 C   0  0  0  0  0  0  0  0  0  0  0  0
   -4.6622    0.3175   -1.5727 O   0  0  0  0  0  0  0  0  0  0  0  0
   -5.8164    0.9803   -1.1081 C   0  0  0  0  0  0  0  0  0  0  0  0
   -6.3455    0.3755    0.1492 C   0  0  0  0  0  0  0  0  0  0  0  0
   -7.4059    0.9334    0.8278 C   0  0  0  0  0  0  0  0  0  0  0  0
   -7.9114    0.3902    1.9869 C   0  0  0  0  0  0  0  0  0  0  0  0
   -7.3327   -0.7601    2.4901 C   0  0  0  0  0  0  0  0  0  0  0  0
   -6.2843   -1.3309    1.8391 C   0  0  0  0  0  0  0  0  0  0  0  0
   -5.8097   -0.7651    0.6931 C   0  0  0  0  0  0  0  0  0  0  0  0
   -2.3676   -0.4110   -1.2621 C   0  0  0  0  0  0  0  0  0  0  0  0
   -1.1989   -0.5205   -0.5601 C   0  0  0  0  0  0  0  0  0  0  0  0
    4.0093    0.4448    0.1428 C   0  0  0  0  0  0  0  0  0  0  0  0
  1  2  1  0
  2  3  1  0
  3  4  1  0
  4  5  1  0
  5  6  1  0
  6  7  2  0
  7  8  1  0
  8  9  2  0
  9 10  1  0
 11 10  1  6
 11 12  1  0
 12 13  1  0
 13 14  1  0
 14 15  1  0
 15 16  2  0
 16 17  1  0
 17 18  1  0
 18 19  2  0
 19 20  1  0
 20 21  2  0
 21 22  1  0
 22 23  1  0
 23 24  1  0
 24 25  2  0
 25 26  1  0
 26 27  2  0
 27 28  1  0
 28 29  2  0
 21 30  1  0
 30 31  2  0
 10 32  2  0
 32  6  1  0
 16 11  1  0
 31 18  1  0
 31 15  1  0
 29 24  1  0
M  END
>  <zinc_id>  (1) 
ZINC000003738370

>  <smiles>  (1) 
CCCCOc1cccc([C@@H]2NCCc3c2[nH]c2ccc(OCc4ccccc4)cc32)c1

$$$$
