
     RDKit          3D

 32 35  0  0  0  0  0  0  0  0999 V2000
    7.8895   -3.1487    1.5822 C   0  0  0  0  0  0  0  0  0  0  0  0
    6.8980   -2.6284    0.5561 C   0  0  0  0  0  0  0  0  0  0  0  0
    5.6540   -2.3496    1.1245 O   0  0  0  0  0  0  0  0  0  0  0  0
    4.6503   -1.8627    0.3051 C   0  0  0  0  0  0  0  0  0  0  0  0
    4.8144   -1.6380   -1.0431 C   0  0  0  0  0  0  0  0  0  0  0  0
    3.8155   -1.1536   -1.8607 C   0  0  0  0  0  0  0  0  0  0  0  0
    2.5906   -0.8742   -1.3288 C   0  0  0  0  0  0  0  0  0  0  0  0
    1.5192   -0.3669   -2.1550 N   0  0  0  0  0  0  0  0  0  0  0  0
    0.2843   -0.0990   -1.4725 C   0  0  0  0  0  0  0  0  0  0  0  0
   -0.0665    1.0509   -0.9284 C   0  0  0  0  0  0  0  0  0  0  0  0
    0.9090    2.5627   -0.9058 S   0  0  0  0  0  0  0  0  0  0  0  0
    0.0439    3.8358   -0.0059 C   0  0  0  0  0  0  0  0  0  0  0  0
   -0.8334    4.7296   -0.5770 C   0  0  0  0  0  0  0  0  0  0  0  0
   -1.4925    5.7065    0.1412 C   0  0  0  0  0  0  0  0  0  0  0  0
   -1.2632    5.7924    1.4917 C   0  0  0  0  0  0  0  0  0  0  0  0
   -0.3907    4.9195    2.1223 C   0  0  0  0  0  0  0  0  0  0  0  0
    0.2476    3.9591    1.3707 C   0  0  0  0  0  0  0  0  0  0  0  0
   -1.3923    0.8553   -0.3419 C   0  0  0  0  0  0  0  0  0  0  0  0
   -2.0459    1.7284    0.2619 O   0  0  0  0  0  0  0  0  0  0  0  0
   -1.8187   -0.4928   -0.5700 N   0  0  0  0  0  0  0  0  0  0  0  0
   -3.0519   -1.0989   -0.1555 C   0  0  0  0  0  0  0  0  0  0  0  0
   -4.0878   -1.1614   -1.0351 C   0  0  0  0  0  0  0  0  0  0  0  0
   -5.2851   -1.7260   -0.6981 C   0  0  0  0  0  0  0  0  0  0  0  0
   -5.4613   -2.2529    0.5735 C   0  0  0  0  0  0  0  0  0  0  0  0
   -6.7297   -2.8823    1.0104 C   0  0  0  0  0  0  0  0  0  0  0  0
   -4.4021   -2.1845    1.4594 C   0  0  0  0  0  0  0  0  0  0  0  0
   -3.2041   -1.6146    1.1084 C   0  0  0  0  0  0  0  0  0  0  0  0
   -2.0574   -1.5368    2.0454 C   0  0  0  0  0  0  0  0  0  0  0  0
   -0.7537   -1.0957   -1.2876 C   0  0  0  0  0  0  0  0  0  0  0  0
   -0.7815   -2.3023   -1.6656 O   0  0  0  0  0  0  0  0  0  0  0  0
    2.4006   -1.0931    0.0309 C   0  0  0  0  0  0  0  0  0  0  0  0
    3.4005   -1.5779    0.8473 C   0  0  0  0  0  0  0  0  0  0  0  0
  1  2  1  0
  2  3  1  0
  3  4  1  0
  4  5  2  0
  5  6  1  0
  6  7  2  0
  7  8  1  0
  8  9  1  0
  9 10  2  0
 10 11  1  0
 11 12  1  0
 12 13  2  0
 13 14  1  0
 14 15  2  0
 15 16  1  0
 16 17  2  0
 10 18  1  0
 18 19  2  0
 18 20  1  0
 20 21  1  0
 21 22  2  0
 22 23  1  0
 23 24  2  0
 24 25  1  0
 24 26  1  0
 26 27  2  0
 27 28  1  0
 20 29  1  0
 29 30  2  0
  7 31  1  0
 31 32  2  0
 32  4  1  0
 29  9  1  0
 17 12  1  0
 27 21  1  0
M  END
>  <zinc_id>  (1) 
ZINC000001930007

>  <smiles>  (1) 
CCOc1ccc(NC2=C(Sc3ccccc3)C(=O)N(c3ccc(C)cc3C)C2=O)cc1

$$$$
