
     RDKit          3D

 31 34  0  0  0  0  0  0  0  0999 V2000
    8.0753    2.2309   -0.5568 C   0  0  0  0  0  0  0  0  0  0  0  0
    6.7649    1.8269    0.1306 C   0  0  0  0  0  0  0  0  0  0  0  0
    6.7265    0.3119    0.1184 C   0  0  0  0  0  0  0  0  0  0  0  0
    5.4543   -0.1480    0.7843 C   0  0  0  0  0  0  0  0  0  0  0  0
    5.4022   -1.6645    0.7794 C   0  0  0  0  0  0  0  0  0  0  0  0
    4.1048   -2.0458    1.4604 C   0  0  0  0  0  0  0  0  0  0  0  0
    3.0386   -1.4837    0.7200 O   0  0  0  0  0  0  0  0  0  0  0  0
    1.7225   -1.6541    1.0894 C   0  0  0  0  0  0  0  0  0  0  0  0
    1.4934   -2.3308    2.1147 O   0  0  0  0  0  0  0  0  0  0  0  0
    0.6406   -1.0769    0.3280 C   0  0  0  0  0  0  0  0  0  0  0  0
    0.8006   -0.3057   -0.8314 C   0  0  0  0  0  0  0  0  0  0  0  0
    2.0209    0.0506   -1.4685 N   0  0  0  0  0  0  0  0  0  0  0  0
   -0.4392    0.0283   -1.2177 N   0  0  0  0  0  0  0  0  0  0  0  0
   -0.7038    0.9043   -2.4873 C   0  0  1  0  0  0  0  0  0  0  0  0
   -2.0260    0.0464   -2.9889 C   0  0  0  0  0  0  0  0  0  0  0  0
   -1.4874    2.0996   -1.7310 C   0  0  0  0  0  0  0  0  0  0  0  0
   -2.7998    2.1270   -1.5940 C   0  0  0  0  0  0  0  0  0  0  0  0
   -3.3518    3.2058   -0.9260 C   0  0  0  0  0  0  0  0  0  0  0  0
   -2.5564    4.2277   -0.4153 C   0  0  0  0  0  0  0  0  0  0  0  0
   -1.1887    4.1532   -0.5844 C   0  0  0  0  0  0  0  0  0  0  0  0
   -0.6227    3.0828   -1.2488 C   0  0  0  0  0  0  0  0  0  0  0  0
   -1.3279   -0.4708   -0.3980 C   0  0  0  0  0  0  0  0  0  0  0  0
   -2.6681   -0.3912   -0.3996 N   0  0  0  0  0  0  0  0  0  0  0  0
   -3.3779   -1.0003    0.5662 C   0  0  0  0  0  0  0  0  0  0  0  0
   -4.7592   -0.9285    0.5798 C   0  0  0  0  0  0  0  0  0  0  0  0
   -5.5392   -1.5299    1.5403 C   0  0  0  0  0  0  0  0  0  0  0  0
   -4.9213   -2.2438    2.5460 C   0  0  0  0  0  0  0  0  0  0  0  0
   -3.5418   -2.3378    2.5655 C   0  0  0  0  0  0  0  0  0  0  0  0
   -2.7884   -1.7225    1.5866 C   0  0  0  0  0  0  0  0  0  0  0  0
   -1.4438   -1.7753    1.5479 N   0  0  0  0  0  0  0  0  0  0  0  0
   -0.7013   -1.1858    0.6084 C   0  0  0  0  0  0  0  0  0  0  0  0
  1  2  1  0
  2  3  1  0
  3  4  1  0
  4  5  1  0
  5  6  1  0
  6  7  1  0
  7  8  1  0
  8  9  2  0
  8 10  1  0
 10 11  2  0
 11 12  1  0
 11 13  1  0
 13 14  1  0
 14 15  1  6
 14 16  1  0
 16 17  2  0
 17 18  1  0
 18 19  2  0
 19 20  1  0
 20 21  2  0
 13 22  1  0
 22 23  2  0
 23 24  1  0
 24 25  2  0
 25 26  1  0
 26 27  2  0
 27 28  1  0
 28 29  2  0
 29 30  1  0
 30 31  2  0
 31 10  1  0
 21 16  1  0
 31 22  1  0
 29 24  1  0
M  END
>  <zinc_id>  (1) 
ZINC000002409291

>  <smiles>  (1) 
CCCCCCOC(=O)c1c(N)n([C@@H](C)c2ccccc2)c2nc3ccccc3nc12

$$$$
