
     RDKit          3D

 32 35  0  0  0  0  0  0  0  0999 V2000
   -0.4376   -0.8869   -1.2734 C   0  0  0  0  0  0  0  0  0  0  0  0
   -1.6227   -0.6291   -0.7160 C   0  0  0  0  0  0  0  0  0  0  0  0
   -2.8390   -1.0168   -1.1367 N   0  0  0  0  0  0  0  0  0  0  0  0
   -3.8044   -0.5861   -0.3468 N   0  0  0  0  0  0  0  0  0  0  0  0
   -5.2121   -0.7923   -0.4645 C   0  0  0  0  0  0  0  0  0  0  0  0
   -5.8254   -0.8166   -1.6987 C   0  0  0  0  0  0  0  0  0  0  0  0
   -7.1944   -1.0176   -1.8044 C   0  0  0  0  0  0  0  0  0  0  0  0
   -7.9984   -1.2003   -0.6990 C   0  0  0  0  0  0  0  0  0  0  0  0
   -9.4708   -1.4157   -0.8265 C   0  0  0  0  0  0  0  0  0  0  0  0
   -7.3852   -1.1760    0.5353 C   0  0  0  0  0  0  0  0  0  0  0  0
   -8.2498   -1.3732    1.7368 C   0  0  0  0  0  0  0  0  0  0  0  0
   -6.0143   -0.9748    0.6431 C   0  0  0  0  0  0  0  0  0  0  0  0
   -3.1764    0.1140    0.6313 C   0  0  0  0  0  0  0  0  0  0  0  0
   -3.7518    0.6926    1.5921 O   0  0  0  0  0  0  0  0  0  0  0  0
   -1.8185    0.0951    0.4134 C   0  0  0  0  0  0  0  0  0  0  0  0
   -0.8866    0.6629    1.1478 C   0  0  0  0  0  0  0  0  0  0  0  0
    0.5339    0.5952    0.8469 C   0  0  0  0  0  0  0  0  0  0  0  0
    1.3032   -0.5354    1.0091 C   0  0  0  0  0  0  0  0  0  0  0  0
    2.6486   -0.5377    0.7058 C   0  0  0  0  0  0  0  0  0  0  0  0
    3.2719    0.5892    0.2302 C   0  0  0  0  0  0  0  0  0  0  0  0
    4.6249    0.6271   -0.0867 O   0  0  0  0  0  0  0  0  0  0  0  0
    5.3733   -0.5584    0.0964 C   0  0  0  0  0  0  0  0  0  0  0  0
    6.7658   -0.2999   -0.2950 C   0  0  0  0  0  0  0  0  0  0  0  0
    7.2133   -0.4962   -1.5855 C   0  0  0  0  0  0  0  0  0  0  0  0
    8.5264   -0.2490   -1.9400 C   0  0  0  0  0  0  0  0  0  0  0  0
    9.4135    0.2008   -1.0005 C   0  0  0  0  0  0  0  0  0  0  0  0
    8.9872    0.4002    0.2808 C   0  0  0  0  0  0  0  0  0  0  0  0
    7.6924    0.1586    0.6393 C   0  0  0  0  0  0  0  0  0  0  0  0
    2.5209    1.7344    0.0596 C   0  0  0  0  0  0  0  0  0  0  0  0
    3.1500    2.8750   -0.4214 O   0  0  0  0  0  0  0  0  0  0  0  0
    2.5060    4.0931   -0.6378 C   0  0  0  0  0  0  0  0  0  0  0  0
    1.1559    1.7237    0.3711 C   0  0  0  0  0  0  0  0  0  0  0  0
  1  2  2  0
  2  3  1  0
  3  4  1  0
  4  5  1  0
  5  6  2  0
  6  7  1  0
  7  8  2  0
  8  9  1  0
  8 10  1  0
 10 11  1  0
 10 12  2  0
  4 13  1  0
 13 14  2  0
 13 15  1  0
 15 16  2  0
 16 17  1  0
 17 18  2  0
 18 19  1  0
 19 20  2  0
 20 21  1  0
 21 22  1  0
 22 23  1  0
 23 24  2  0
 24 25  1  0
 25 26  2  0
 26 27  1  0
 27 28  2  0
 20 29  1  0
 29 30  1  0
 30 31  1  0
 29 32  2  0
 15  2  1  0
 32 17  1  0
 12  5  1  0
 28 23  1  0
M  END
>  <zinc_id>  (1) 
ZINC000002059734

>  <smiles>  (1) 
C=c1[nH]n(-c2ccc(C)c(C)c2)c(=O)/c1=C/c1ccc(OCc2ccccc2)c(OC)c1

$$$$
