
     RDKit          3D

 32 36  0  0  0  0  0  0  0  0999 V2000
   -4.3870    4.2362    1.1906 C   0  0  0  0  0  0  0  0  0  0  0  0
   -3.4448    3.6234    0.2071 C   0  0  0  0  0  0  0  0  0  0  0  0
   -2.0413    4.1681    0.3309 C   0  0  0  0  0  0  0  0  0  0  0  0
   -3.3696    2.1227    0.3545 C   0  0  0  0  0  0  0  0  0  0  0  0
   -2.2282    1.6539   -0.5435 C   0  0  0  0  0  0  0  0  0  0  0  0
   -2.0064    2.4378   -1.6137 C   0  0  0  0  0  0  0  0  0  0  0  0
   -0.6927    1.6524   -2.3961 S   0  0  0  0  0  0  0  0  0  0  0  0
   -0.4790    0.3479   -1.3189 C   0  0  0  0  0  0  0  0  0  0  0  0
   -1.4409    0.5594   -0.3738 C   0  0  0  0  0  0  0  0  0  0  0  0
   -1.4695   -0.4074    0.6502 C   0  0  0  0  0  0  0  0  0  0  0  0
   -2.3446   -0.3289    1.6267 N   0  0  0  0  0  0  0  0  0  0  0  0
   -0.6222   -1.4344    0.6783 N   0  0  0  0  0  0  0  0  0  0  0  0
   -0.7299   -2.3952    1.7919 C   0  0  0  0  0  0  0  0  0  0  0  0
   -1.6669   -3.4936    1.4368 C   0  0  0  0  0  0  0  0  0  0  0  0
   -1.2498   -4.6560    0.8161 C   0  0  0  0  0  0  0  0  0  0  0  0
   -2.3809   -5.4333    0.6461 C   0  0  0  0  0  0  0  0  0  0  0  0
   -3.4234   -4.7152    1.1659 C   0  0  0  0  0  0  0  0  0  0  0  0
   -2.9572   -3.5716    1.6242 O   0  0  0  0  0  0  0  0  0  0  0  0
    0.3134   -1.6176   -0.2639 C   0  0  0  0  0  0  0  0  0  0  0  0
    1.0962   -2.5785   -0.2256 O   0  0  0  0  0  0  0  0  0  0  0  0
    0.3781   -0.7197   -1.2610 N   0  0  0  0  0  0  0  0  0  0  0  0
    1.3378   -0.8136   -2.3236 C   0  0  0  0  0  0  0  0  0  0  0  0
    2.6199   -0.1072   -2.0406 C   0  0  0  0  0  0  0  0  0  0  0  0
    3.3240   -0.6443   -0.8132 C   0  0  0  0  0  0  0  0  0  0  0  0
    4.5860    0.0530   -0.5369 C   0  0  0  0  0  0  0  0  0  0  0  0
    5.8093   -0.3551   -1.0574 C   0  0  0  0  0  0  0  0  0  0  0  0
    6.9402    0.3686   -0.7379 C   0  0  0  0  0  0  0  0  0  0  0  0
    6.9035    1.4798    0.0768 C   0  0  0  0  0  0  0  0  0  0  0  0
    5.6984    1.8717    0.5822 C   0  0  0  0  0  0  0  0  0  0  0  0
    4.5334    1.1745    0.2882 C   0  0  0  0  0  0  0  0  0  0  0  0
   -2.7713    3.6881   -1.9677 C   0  0  0  0  0  0  0  0  0  0  0  0
   -3.8346    3.8342   -1.1273 O   0  0  0  0  0  0  0  0  0  0  0  0
  1  2  1  0
  2  3  1  0
  2  4  1  0
  4  5  1  0
  5  6  2  0
  6  7  1  0
  7  8  1  0
  8  9  2  0
  9 10  1  0
 10 11  2  0
 10 12  1  0
 12 13  1  0
 13 14  1  0
 14 15  2  0
 15 16  1  0
 16 17  2  0
 17 18  1  0
 12 19  1  0
 19 20  2  0
 19 21  1  0
 21 22  1  0
 22 23  1  0
 23 24  1  0
 24 25  1  0
 25 26  2  0
 26 27  1  0
 27 28  2  0
 28 29  1  0
 29 30  2  0
  6 31  1  0
 31 32  1  0
 32  2  1  0
  9  5  1  0
 18 14  1  0
 30 25  1  0
 21  8  1  0
M  END
>  <zinc_id>  (1) 
ZINC000002450667

>  <smiles>  (1) 
CC1(C)Cc2c(sc3c2c(=N)n(Cc2ccco2)c(=O)n3CCCc2ccccc2)CO1

$$$$
