
     RDKit          3D

 31 35  0  0  0  0  0  0  0  0999 V2000
   -3.2558    2.5078   -0.9491 O   0  0  0  0  0  0  0  0  0  0  0  0
   -3.2285    1.2527   -0.9084 C   0  0  0  0  0  0  0  0  0  0  0  0
   -2.1471    0.5646   -1.4721 N   0  0  0  0  0  0  0  0  0  0  0  0
   -1.0658    1.3360   -2.1007 C   0  0  0  0  0  0  0  0  0  0  0  0
   -0.0656    0.3176   -2.6052 C   0  0  0  0  0  0  0  0  0  0  0  0
    0.4939   -0.5373   -1.4959 C   0  0  0  0  0  0  0  0  0  0  0  0
    1.1793    0.3780   -0.5161 C   0  0  0  0  0  0  0  0  0  0  0  0
    1.7577   -0.3457    0.5996 N   0  0  0  0  0  0  0  0  0  0  0  0
    2.3926    0.5558    1.4965 C   0  0  0  0  0  0  0  0  0  0  0  0
    3.8232    0.2671    1.7935 C   0  0  0  0  0  0  0  0  0  0  0  0
    4.5939   -0.1252    0.5603 C   0  0  0  0  0  0  0  0  0  0  0  0
    3.9216   -1.0247   -0.2737 C   0  0  0  0  0  0  0  0  0  0  0  0
    4.5475   -1.4307   -1.4096 C   0  0  0  0  0  0  0  0  0  0  0  0
    5.8080   -0.9560   -1.7096 C   0  0  0  0  0  0  0  0  0  0  0  0
    6.4633   -0.0705   -0.8833 C   0  0  0  0  0  0  0  0  0  0  0  0
    7.7258    0.3901   -1.2065 C   0  0  0  0  0  0  0  0  0  0  0  0
    8.3151    1.2797   -0.3200 C   0  0  0  0  0  0  0  0  0  0  0  0
    7.7093    1.7027    0.8256 C   0  0  0  0  0  0  0  0  0  0  0  0
    6.4468    1.2447    1.1529 C   0  0  0  0  0  0  0  0  0  0  0  0
    5.8408    0.3567    0.2824 C   0  0  0  0  0  0  0  0  0  0  0  0
    2.5804   -1.4487    0.1700 C   0  0  0  0  0  0  0  0  0  0  0  0
   -4.3189    0.4846   -0.2750 C   0  0  0  0  0  0  0  0  0  0  0  0
   -4.2896   -0.8923   -0.2291 C   0  0  0  0  0  0  0  0  0  0  0  0
   -5.2712   -1.6268    0.3430 N   0  0  0  0  0  0  0  0  0  0  0  0
   -6.3491   -1.0471    0.9089 C   0  0  0  0  0  0  0  0  0  0  0  0
   -7.3414   -1.8209    1.4886 C   0  0  0  0  0  0  0  0  0  0  0  0
   -8.4276   -1.2249    2.0583 C   0  0  0  0  0  0  0  0  0  0  0  0
   -8.5159    0.1612    2.0444 C   0  0  0  0  0  0  0  0  0  0  0  0
   -7.5085    0.9249    1.4568 C   0  0  0  0  0  0  0  0  0  0  0  0
   -6.4029    0.3315    0.8764 C   0  0  0  0  0  0  0  0  0  0  0  0
   -5.4113    1.1020    0.2972 C   0  0  0  0  0  0  0  0  0  0  0  0
  1  2  2  0
  2  3  1  0
  3  4  1  0
  4  5  1  0
  5  6  1  0
  6  7  1  0
  7  8  1  0
  8  9  1  0
  9 10  1  0
 10 11  1  0
 11 12  2  0
 12 13  1  0
 13 14  2  0
 14 15  1  0
 15 16  2  0
 16 17  1  0
 17 18  2  0
 18 19  1  0
 19 20  2  0
 12 21  1  0
  2 22  1  0
 22 23  2  0
 23 24  1  0
 24 25  2  0
 25 26  1  0
 26 27  2  0
 27 28  1  0
 28 29  2  0
 29 30  1  0
 30 31  2  0
 21  8  1  0
 31 22  1  0
 20 11  1  0
 30 25  1  0
 20 15  1  0
M  END
>  <zinc_id>  (1) 
ZINC000001545928

>  <smiles>  (1) 
O=C(NCCCCN1CCc2c(ccc3ccccc23)C1)c1cnc2ccccc2c1

$$$$
