
     RDKit          3D

 29 31  0  0  0  0  0  0  0  0999 V2000
    6.5508    2.4718   -0.8576 C   0  0  0  0  0  0  0  0  0  0  0  0
    6.3395    1.4057    0.2287 C   0  0  0  0  0  0  0  0  0  0  0  0
    6.8574    1.9721    1.4979 C   0  0  0  0  0  0  0  0  0  0  0  0
    7.2306    0.2225   -0.1561 C   0  0  0  0  0  0  0  0  0  0  0  0
    4.9280    1.0050    0.2343 C   0  0  0  0  0  0  0  0  0  0  0  0
    4.2252    0.7461    1.3774 C   0  0  0  0  0  0  0  0  0  0  0  0
    2.8825    0.3335    1.3503 C   0  0  0  0  0  0  0  0  0  0  0  0
    2.2313    0.1713    0.1663 C   0  0  0  0  0  0  0  0  0  0  0  0
    0.8745   -0.3503    0.0087 C   0  0  0  0  0  0  0  0  0  0  0  0
    0.2716   -0.0967   -1.1013 O   0  0  0  0  0  0  0  0  0  0  0  0
    0.1444   -1.1157    0.9225 N   0  0  0  0  0  0  0  0  0  0  0  0
   -1.1704   -1.5862    0.5189 C   0  0  0  0  0  0  0  0  0  0  0  0
   -1.1648   -2.8959    0.3458 C   0  0  0  0  0  0  0  0  0  0  0  0
   -2.2954   -3.7003   -0.0618 C   0  0  0  0  0  0  0  0  0  0  0  0
   -3.5842   -3.8440    0.3333 C   0  0  0  0  0  0  0  0  0  0  0  0
   -4.3730   -4.6982   -0.2941 C   0  0  0  0  0  0  0  0  0  0  0  0
   -3.8504   -5.4096   -1.3304 C   0  0  0  0  0  0  0  0  0  0  0  0
   -2.2461   -4.8579   -1.4046 S   0  0  0  0  0  0  0  0  0  0  0  0
   -2.3324   -0.7973    0.3152 C   0  0  0  0  0  0  0  0  0  0  0  0
   -3.4439   -1.3531   -0.0592 O   0  0  0  0  0  0  0  0  0  0  0  0
   -2.4095    0.6090    0.5000 N   0  0  0  0  0  0  0  0  0  0  0  0
   -3.6862    1.2425    0.2591 C   0  0  0  0  0  0  0  0  0  0  0  0
   -3.7680    2.6849    0.3976 C   0  0  0  0  0  0  0  0  0  0  0  0
   -3.7109    3.6120   -0.6819 C   0  0  0  0  0  0  0  0  0  0  0  0
   -3.8164    4.8553   -0.1741 C   0  0  0  0  0  0  0  0  0  0  0  0
   -3.9448    4.6904    1.1945 C   0  0  0  0  0  0  0  0  0  0  0  0
   -3.9098    3.4133    1.4721 O   0  0  0  0  0  0  0  0  0  0  0  0
    2.9429    0.4361   -1.0135 C   0  0  0  0  0  0  0  0  0  0  0  0
    4.2273    0.8337   -0.9477 C   0  0  0  0  0  0  0  0  0  0  0  0
  1  2  1  0
  2  3  1  0
  2  4  1  0
  2  5  1  0
  5  6  2  0
  6  7  1  0
  7  8  2  0
  8  9  1  0
  9 10  2  0
  9 11  1  0
 11 12  1  0
 12 13  2  0
 13 14  1  0
 14 15  2  0
 15 16  1  0
 16 17  2  0
 17 18  1  0
 12 19  1  0
 19 20  2  0
 19 21  1  0
 21 22  1  0
 22 23  1  0
 23 24  2  0
 24 25  1  0
 25 26  2  0
 26 27  1  0
  8 28  1  0
 28 29  2  0
 29  5  1  0
 18 14  1  0
 27 23  1  0
M  END
>  <zinc_id>  (1) 
ZINC000002267548

>  <smiles>  (1) 
CC(C)(C)c1ccc(C(=O)N/C(=C/c2cccs2)C(=O)NCc2ccco2)cc1

$$$$
