
     RDKit          3D

 31 35  0  0  0  0  0  0  0  0999 V2000
    6.8830    1.0363    0.2161 C   0  0  0  0  0  0  0  0  0  0  0  0
    6.8259    2.3546   -0.4828 C   0  0  0  0  0  0  0  0  0  0  0  0
    6.1348    2.4325   -1.7670 C   0  0  0  0  0  0  0  0  0  0  0  0
    4.8086    2.1275   -1.8806 O   0  0  0  0  0  0  0  0  0  0  0  0
    4.1561    0.9339   -1.6281 C   0  0  0  0  0  0  0  0  0  0  0  0
    2.7777    0.8220   -1.7992 C   0  0  0  0  0  0  0  0  0  0  0  0
    2.1409   -0.3659   -1.5476 C   0  0  0  0  0  0  0  0  0  0  0  0
    2.7979   -1.4338   -1.1397 C   0  0  0  0  0  0  0  0  0  0  0  0
    2.0572   -2.8244   -0.8447 C   0  0  1  0  0  0  0  0  0  0  0  0
    2.7633   -3.1679    0.4875 N   0  0  0  0  0  0  0  0  0  0  0  0
    2.3989   -2.4966    1.6082 C   0  0  0  0  0  0  0  0  0  0  0  0
    1.9121   -1.0934    1.3066 C   0  0  0  0  0  0  0  0  0  0  0  0
    0.6067   -1.3900    0.6740 C   0  0  0  0  0  0  0  0  0  0  0  0
    0.6936   -2.2578   -0.3761 C   0  0  0  0  0  0  0  0  0  0  0  0
   -0.5199   -2.4619   -0.8536 N   0  0  0  0  0  0  0  0  0  0  0  0
   -1.4076   -1.7213   -0.1105 C   0  0  0  0  0  0  0  0  0  0  0  0
   -2.7687   -1.5633   -0.1717 C   0  0  0  0  0  0  0  0  0  0  0  0
   -3.3628   -0.7388    0.7293 C   0  0  0  0  0  0  0  0  0  0  0  0
   -2.6714   -0.0552    1.6982 C   0  0  0  0  0  0  0  0  0  0  0  0
   -3.3747    0.7468    2.5511 O   0  0  0  0  0  0  0  0  0  0  0  0
   -4.7455    0.9193    2.5035 C   0  0  0  0  0  0  0  0  0  0  0  0
   -5.3019    1.4727    1.2631 C   0  0  0  0  0  0  0  0  0  0  0  0
   -5.8332    0.6499    0.2929 C   0  0  0  0  0  0  0  0  0  0  0  0
   -6.3602    1.1462   -0.8779 C   0  0  0  0  0  0  0  0  0  0  0  0
   -6.3849    2.4960   -1.1432 C   0  0  0  0  0  0  0  0  0  0  0  0
   -5.8570    3.3316   -0.1823 C   0  0  0  0  0  0  0  0  0  0  0  0
   -5.3336    2.8271    0.9822 C   0  0  0  0  0  0  0  0  0  0  0  0
   -1.3085   -0.2069    1.7674 C   0  0  0  0  0  0  0  0  0  0  0  0
   -0.6780   -1.0301    0.8749 C   0  0  0  0  0  0  0  0  0  0  0  0
    4.1516   -1.4042   -0.9483 C   0  0  0  0  0  0  0  0  0  0  0  0
    4.7998   -0.2050   -1.2015 C   0  0  0  0  0  0  0  0  0  0  0  0
  1  2  1  0
  2  3  1  0
  3  4  1  0
  4  5  1  0
  5  6  2  0
  6  7  1  0
  7  8  2  0
  9  8  1  1
  9 10  1  0
 10 11  1  0
 11 12  1  0
 12 13  1  0
 13 14  2  0
 14 15  1  0
 15 16  1  0
 16 17  2  0
 17 18  1  0
 18 19  2  0
 19 20  1  0
 20 21  1  0
 21 22  1  0
 22 23  2  0
 23 24  1  0
 24 25  2  0
 25 26  1  0
 26 27  2  0
 19 28  1  0
 28 29  2  0
  8 30  1  0
 30 31  2  0
 31  5  1  0
 14  9  1  0
 29 16  1  0
 29 13  1  0
 27 22  1  0
M  END
>  <zinc_id>  (1) 
ZINC000003738091

>  <smiles>  (1) 
CCCOc1ccc([C@H]2NCCc3c2[nH]c2ccc(OCc4ccccc4)cc32)cc1

$$$$
