
     RDKit          3D

 33 37  0  0  0  0  0  0  0  0999 V2000
    1.6403   -0.7838   -2.3056 O   0  0  0  0  0  0  0  0  0  0  0  0
    2.0584    0.0836   -1.5089 C   0  0  0  0  0  0  0  0  0  0  0  0
    1.1335    0.9718   -0.8983 N   0  0  0  0  0  0  0  0  0  0  0  0
   -0.2787    0.8598   -1.2067 C   0  0  0  0  0  0  0  0  0  0  0  0
   -0.8052   -0.5015   -0.8279 C   0  0  0  0  0  0  0  0  0  0  0  0
   -0.5751   -0.6446    0.6811 C   0  0  0  0  0  0  0  0  0  0  0  0
   -1.3249    0.4539    1.4107 C   0  0  0  0  0  0  0  0  0  0  0  0
   -2.7545    0.3742    1.1450 N   0  0  0  0  0  0  0  0  0  0  0  0
   -3.0782    0.6891   -0.2092 C   0  0  0  0  0  0  0  0  0  0  0  0
   -4.3714    0.1075   -0.6546 C   0  0  0  0  0  0  0  0  0  0  0  0
   -5.3022   -0.2578    0.4421 C   0  0  0  0  0  0  0  0  0  0  0  0
   -4.7707   -0.7501    1.5481 C   0  0  0  0  0  0  0  0  0  0  0  0
   -5.5685   -1.1561    2.7172 C   0  0  0  0  0  0  0  0  0  0  0  0
   -7.0312   -0.9825    2.5947 C   0  0  0  0  0  0  0  0  0  0  0  0
   -7.5521   -0.4364    1.3541 C   0  0  0  0  0  0  0  0  0  0  0  0
   -8.9135   -0.2708    1.2291 C   0  0  0  0  0  0  0  0  0  0  0  0
   -9.4757    0.2425    0.0775 C   0  0  0  0  0  0  0  0  0  0  0  0
   -8.6590    0.6053   -0.9906 C   0  0  0  0  0  0  0  0  0  0  0  0
   -7.3047    0.4299   -0.8403 C   0  0  0  0  0  0  0  0  0  0  0  0
   -6.7544   -0.0827    0.3127 C   0  0  0  0  0  0  0  0  0  0  0  0
   -3.3026   -0.8908    1.5974 C   0  0  0  0  0  0  0  0  0  0  0  0
    3.4838    0.1741   -1.2168 C   0  0  0  0  0  0  0  0  0  0  0  0
    3.9592    1.1150   -0.3374 C   0  0  0  0  0  0  0  0  0  0  0  0
    5.2950    1.2098   -0.0556 C   0  0  0  0  0  0  0  0  0  0  0  0
    6.2171    0.3604   -0.6467 C   0  0  0  0  0  0  0  0  0  0  0  0
    7.6442    0.4518   -0.3531 C   0  0  0  0  0  0  0  0  0  0  0  0
    8.6183    0.1346   -1.2714 C   0  0  0  0  0  0  0  0  0  0  0  0
    9.9527    0.2447   -0.9230 C   0  0  0  0  0  0  0  0  0  0  0  0
   10.3331    0.6659    0.3259 C   0  0  0  0  0  0  0  0  0  0  0  0
    9.3702    0.9860    1.2532 C   0  0  0  0  0  0  0  0  0  0  0  0
    8.0355    0.8730    0.8963 C   0  0  0  0  0  0  0  0  0  0  0  0
    5.7084   -0.5706   -1.5226 C   0  0  0  0  0  0  0  0  0  0  0  0
    4.3732   -0.6797   -1.8166 C   0  0  0  0  0  0  0  0  0  0  0  0
  1  2  2  0
  2  3  1  0
  3  4  1  0
  4  5  1  0
  5  6  1  0
  6  7  1  0
  7  8  1  0
  8  9  1  0
  9 10  1  0
 10 11  1  0
 11 12  2  0
 12 13  1  0
 13 14  1  0
 14 15  1  0
 15 16  2  0
 16 17  1  0
 17 18  2  0
 18 19  1  0
 19 20  2  0
 12 21  1  0
  2 22  1  0
 22 23  2  0
 23 24  1  0
 24 25  2  0
 25 26  1  0
 26 27  2  0
 27 28  1  0
 28 29  2  0
 29 30  1  0
 30 31  2  0
 25 32  1  0
 32 33  2  0
 21  8  1  0
 33 22  1  0
 20 11  1  0
 31 26  1  0
 20 15  1  0
M  END
>  <zinc_id>  (1) 
ZINC000001545930

>  <smiles>  (1) 
O=C(NCCCCN1CCC2=C(CCc3ccccc32)C1)c1ccc(-c2ccccc2)cc1

$$$$
