
     RDKit          3D

 31 34  0  0  0  0  0  0  0  0999 V2000
    7.9287   -0.8739   -0.9824 C   0  0  0  0  0  0  0  0  0  0  0  0
    8.8981   -0.3251   -0.0148 C   0  0  0  0  0  0  0  0  0  0  0  0
    8.4460   -0.7782    1.4999 C   0  0  2  0  0  0  0  0  0  0  0  0
    8.5491   -2.3919    1.1745 C   0  0  0  0  0  0  0  0  0  0  0  0
    6.8988   -0.6680    1.2617 C   0  0  0  0  0  0  0  0  0  0  0  0
    6.4184    0.4212    0.6032 C   0  0  0  0  0  0  0  0  0  0  0  0
    5.0431    0.5802    0.3650 C   0  0  0  0  0  0  0  0  0  0  0  0
    4.1905   -0.3850    0.8093 C   0  0  0  0  0  0  0  0  0  0  0  0
    2.7800   -0.3273    0.6236 N   0  0  0  0  0  0  0  0  0  0  0  0
    2.1305    0.7305   -0.0358 C   0  0  0  0  0  0  0  0  0  0  0  0
    2.7842    1.6778   -0.4919 O   0  0  0  0  0  0  0  0  0  0  0  0
    0.6821    0.7201   -0.1877 C   0  0  0  0  0  0  0  0  0  0  0  0
   -0.4264   -0.4698    0.3538 S   0  0  0  0  0  0  0  0  0  0  0  0
   -1.8791    0.2324   -0.1951 C   0  0  0  0  0  0  0  0  0  0  0  0
   -3.1912   -0.1592   -0.1200 N   0  0  0  0  0  0  0  0  0  0  0  0
   -4.1808    0.5820   -0.6403 C   0  0  0  0  0  0  0  0  0  0  0  0
   -5.5850    0.2088   -0.5854 C   0  0  0  0  0  0  0  0  0  0  0  0
   -6.5822    0.9881   -1.1277 C   0  0  0  0  0  0  0  0  0  0  0  0
   -7.9177    0.6366   -1.0775 C   0  0  0  0  0  0  0  0  0  0  0  0
   -8.2853   -0.5266   -0.4702 C   0  0  0  0  0  0  0  0  0  0  0  0
   -7.3261   -1.3328    0.0830 C   0  0  0  0  0  0  0  0  0  0  0  0
   -7.7019   -2.5036    0.6937 O   0  0  0  0  0  0  0  0  0  0  0  0
   -9.0160   -2.9604    0.8048 C   0  0  0  0  0  0  0  0  0  0  0  0
   -6.0050   -0.9708    0.0253 C   0  0  0  0  0  0  0  0  0  0  0  0
   -3.7941    1.7470   -1.2465 C   0  0  0  0  0  0  0  0  0  0  0  0
   -2.4971    2.1701   -1.3408 C   0  0  0  0  0  0  0  0  0  0  0  0
   -1.4626    1.3793   -0.7881 C   0  0  0  0  0  0  0  0  0  0  0  0
   -0.1289    1.6405   -0.7883 C   0  0  0  0  0  0  0  0  0  0  0  0
    0.4843    2.8281   -1.3825 N   0  0  0  0  0  0  0  0  0  0  0  0
    4.6861   -1.4739    1.4693 C   0  0  0  0  0  0  0  0  0  0  0  0
    6.0596   -1.6343    1.7081 C   0  0  0  0  0  0  0  0  0  0  0  0
  1  2  1  0
  2  3  1  0
  3  4  1  6
  3  5  1  0
  5  6  2  0
  6  7  1  0
  7  8  2  0
  8  9  1  0
  9 10  1  0
 10 11  2  0
 10 12  1  0
 12 13  1  0
 13 14  1  0
 14 15  2  0
 15 16  1  0
 16 17  1  0
 17 18  2  0
 18 19  1  0
 19 20  2  0
 20 21  1  0
 21 22  1  0
 22 23  1  0
 21 24  2  0
 16 25  2  0
 25 26  1  0
 26 27  2  0
 27 28  1  0
 28 29  1  0
  8 30  1  0
 30 31  2  0
 31  5  1  0
 28 12  2  0
 27 14  1  0
 24 17  1  0
M  END
>  <zinc_id>  (1) 
ZINC000000661260

>  <smiles>  (1) 
CC[C@H](C)c1ccc(NC(=O)c2sc3nc(-c4cccc(OC)c4)ccc3c2N)cc1

$$$$
