
     RDKit          3D

 31 34  0  0  0  0  0  0  0  0999 V2000
    8.4801   -1.5469   -1.1494 C   0  0  0  0  0  0  0  0  0  0  0  0
    7.5817   -1.8240    0.0087 C   0  0  0  0  0  0  0  0  0  0  0  0
    6.3234   -1.2567   -0.2045 O   0  0  0  0  0  0  0  0  0  0  0  0
    5.3204   -1.3869    0.7445 C   0  0  0  0  0  0  0  0  0  0  0  0
    5.5935   -2.0263    1.7825 O   0  0  0  0  0  0  0  0  0  0  0  0
    3.9963   -0.7927    0.5255 C   0  0  0  0  0  0  0  0  0  0  0  0
    3.7722   -0.1021   -0.6450 C   0  0  0  0  0  0  0  0  0  0  0  0
    2.5571    0.4625   -0.8832 C   0  0  0  0  0  0  0  0  0  0  0  0
    1.5237    0.3644    0.0253 C   0  0  0  0  0  0  0  0  0  0  0  0
    0.3276    1.0124   -0.3579 N   0  0  0  0  0  0  0  0  0  0  0  0
   -0.9039    0.8362    0.5738 C   0  0  2  0  0  0  0  0  0  0  0  0
   -1.1383   -0.7100    0.3438 C   0  0  0  0  0  0  0  0  0  0  0  0
   -0.3065   -1.4452   -0.4123 C   0  0  0  0  0  0  0  0  0  0  0  0
   -0.5269   -2.7963   -0.6209 C   0  0  0  0  0  0  0  0  0  0  0  0
   -1.6122   -3.3974   -0.0470 C   0  0  0  0  0  0  0  0  0  0  0  0
   -2.4580   -2.6396    0.7246 C   0  0  0  0  0  0  0  0  0  0  0  0
   -2.2345   -1.2818    0.9330 C   0  0  0  0  0  0  0  0  0  0  0  0
   -3.1303   -0.5866    1.7228 O   0  0  0  0  0  0  0  0  0  0  0  0
   -4.2501   -1.2204    2.3115 C   0  0  0  0  0  0  0  0  0  0  0  0
   -2.0114    1.3498   -0.4705 C   0  0  0  0  0  0  0  0  0  0  0  0
   -2.0247    1.1600   -1.7807 C   0  0  0  0  0  0  0  0  0  0  0  0
   -0.9876    0.4005   -2.5551 C   0  0  0  0  0  0  0  0  0  0  0  0
   -3.1235    1.7687   -2.2587 N   0  0  0  0  0  0  0  0  0  0  0  0
   -3.8009    2.3439   -1.2307 C   0  0  0  0  0  0  0  0  0  0  0  0
   -4.9774    3.0841   -1.1839 C   0  0  0  0  0  0  0  0  0  0  0  0
   -5.3890    3.5301    0.0499 C   0  0  0  0  0  0  0  0  0  0  0  0
   -4.7054    3.2831    1.2149 C   0  0  0  0  0  0  0  0  0  0  0  0
   -3.5424    2.5513    1.1686 C   0  0  0  0  0  0  0  0  0  0  0  0
   -3.0947    2.0802   -0.0812 C   0  0  0  0  0  0  0  0  0  0  0  0
    1.7574   -0.3192    1.1756 C   0  0  0  0  0  0  0  0  0  0  0  0
    2.9840   -0.8950    1.4272 C   0  0  0  0  0  0  0  0  0  0  0  0
  1  2  1  0
  2  3  1  0
  3  4  1  0
  4  5  2  0
  4  6  1  0
  6  7  2  0
  7  8  1  0
  8  9  2  0
  9 10  1  0
 11 10  1  6
 11 12  1  0
 12 13  2  0
 13 14  1  0
 14 15  2  0
 15 16  1  0
 16 17  2  0
 17 18  1  0
 18 19  1  0
 11 20  1  0
 20 21  2  0
 21 22  1  0
 21 23  1  0
 23 24  1  0
 24 25  2  0
 25 26  1  0
 26 27  2  0
 27 28  1  0
 28 29  2  0
  9 30  1  0
 30 31  2  0
 31  6  1  0
 17 12  1  0
 29 20  1  0
 29 24  1  0
M  END
>  <zinc_id>  (1) 
ZINC000001796975

>  <smiles>  (1) 
CCOC(=O)c1ccc(N[C@H](c2ccccc2OC)c2c(C)[nH]c3ccccc23)cc1

$$$$
