
     RDKit          3D

 33 36  0  0  0  0  0  0  0  0999 V2000
   -2.2412    4.0719   -2.6093 C   0  0  0  0  0  0  0  0  0  0  0  0
   -2.4208    4.0014   -1.3541 O   0  0  0  0  0  0  0  0  0  0  0  0
   -2.5408    3.8437   -0.0852 C   0  0  0  0  0  0  0  0  0  0  0  0
   -3.2981    4.7047    0.7137 C   0  0  0  0  0  0  0  0  0  0  0  0
   -3.3903    4.4873    2.0552 C   0  0  0  0  0  0  0  0  0  0  0  0
   -2.7736    3.4555    2.6878 C   0  0  0  0  0  0  0  0  0  0  0  0
   -2.0236    2.5974    1.9244 C   0  0  0  0  0  0  0  0  0  0  0  0
   -1.3543    1.4923    2.5795 N   0  0  0  0  0  0  0  0  0  0  0  0
   -0.5089    0.7183    1.7500 C   0  0  0  0  0  0  0  0  0  0  0  0
   -0.9417   -0.3188    1.0120 C   0  0  0  0  0  0  0  0  0  0  0  0
   -2.6098   -0.8691    0.9636 S   0  0  0  0  0  0  0  0  0  0  0  0
   -2.9271   -2.2847   -0.0259 C   0  0  0  0  0  0  0  0  0  0  0  0
   -4.2258   -2.8182   -0.1138 C   0  0  0  0  0  0  0  0  0  0  0  0
   -4.4915   -3.9228   -0.8678 C   0  0  0  0  0  0  0  0  0  0  0  0
   -3.5279   -4.5891   -1.5865 C   0  0  0  0  0  0  0  0  0  0  0  0
   -3.8866   -5.7907   -2.3829 C   0  0  0  0  0  0  0  0  0  0  0  0
   -2.2508   -4.0872   -1.5148 C   0  0  0  0  0  0  0  0  0  0  0  0
   -1.9867   -2.9628   -0.7467 C   0  0  0  0  0  0  0  0  0  0  0  0
    0.2092   -0.8471    0.3097 C   0  0  0  0  0  0  0  0  0  0  0  0
    0.2912   -1.8089   -0.4928 O   0  0  0  0  0  0  0  0  0  0  0  0
    1.3718   -0.0667    0.6666 N   0  0  0  0  0  0  0  0  0  0  0  0
    2.7049   -0.2427    0.1968 C   0  0  0  0  0  0  0  0  0  0  0  0
    3.4718    0.8512   -0.1656 C   0  0  0  0  0  0  0  0  0  0  0  0
    4.7632    0.7062   -0.6318 C   0  0  0  0  0  0  0  0  0  0  0  0
    5.3592   -0.5228   -0.7637 C   0  0  0  0  0  0  0  0  0  0  0  0
    6.7362   -0.7170   -1.2615 C   0  0  0  0  0  0  0  0  0  0  0  0
    6.7717   -1.9653   -2.1363 C   0  0  0  0  0  0  0  0  0  0  0  0
    7.1889    0.4847   -2.0669 C   0  0  0  0  0  0  0  0  0  0  0  0
    4.6034   -1.6275   -0.4044 C   0  0  0  0  0  0  0  0  0  0  0  0
    3.2987   -1.4782    0.0672 C   0  0  0  0  0  0  0  0  0  0  0  0
    0.9057    0.9085    1.5696 C   0  0  0  0  0  0  0  0  0  0  0  0
    1.6387    1.8078    2.1254 O   0  0  0  0  0  0  0  0  0  0  0  0
   -1.9150    2.7885    0.5886 C   0  0  0  0  0  0  0  0  0  0  0  0
  1  2  1  0
  2  3  1  0
  3  4  2  0
  4  5  1  0
  5  6  2  0
  6  7  1  0
  7  8  1  0
  8  9  1  0
  9 10  2  0
 10 11  1  0
 11 12  1  0
 12 13  2  0
 13 14  1  0
 14 15  2  0
 15 16  1  0
 15 17  1  0
 17 18  2  0
 10 19  1  0
 19 20  2  0
 19 21  1  0
 21 22  1  0
 22 23  2  0
 23 24  1  0
 24 25  2  0
 25 26  1  0
 26 27  1  0
 26 28  1  0
 25 29  1  0
 29 30  2  0
 21 31  1  0
 31 32  2  0
  7 33  2  0
 33  3  1  0
 31  9  1  0
 18 12  1  0
 30 22  1  0
M  END
>  <zinc_id>  (1) 
ZINC000001954989

>  <smiles>  (1) 
COc1cccc(NC2=C(Sc3ccc(C)cc3)C(=O)N(c3ccc(C(C)C)cc3)C2=O)c1

$$$$
