
     RDKit          3D

 30 33  0  0  0  0  0  0  0  0999 V2000
    5.3734   -3.1194   -0.2007 C   0  0  0  0  0  0  0  0  0  0  0  0
    5.1582   -1.7014   -0.6214 C   0  0  0  0  0  0  0  0  0  0  0  0
    5.0164   -0.8624    0.5450 O   0  0  0  0  0  0  0  0  0  0  0  0
    4.7467    0.7330   -0.0275 P   0  0  0  0  0  0  0  0  0  0  0  0
    4.3520    1.5564    1.2051 O   0  0  0  0  0  0  0  0  0  0  0  0
    3.4744    0.8757   -1.2234 C   0  0  0  0  0  0  0  0  0  0  0  0
    2.1396    0.4844   -0.5819 C   0  0  0  0  0  0  0  0  0  0  0  0
    1.8106   -0.8250   -0.7317 C   0  0  0  0  0  0  0  0  0  0  0  0
    0.5979   -1.2392   -0.2683 C   0  0  0  0  0  0  0  0  0  0  0  0
   -0.2649   -0.2877    0.3494 C   0  0  0  0  0  0  0  0  0  0  0  0
   -1.6451   -0.8924    0.4521 C   0  0  0  0  0  0  0  0  0  0  0  0
   -1.8495   -2.2710    0.5531 N   0  0  0  0  0  0  0  0  0  0  0  0
   -3.1494   -2.4729    0.3056 C   0  0  0  0  0  0  0  0  0  0  0  0
   -3.9299   -3.6144    0.1456 C   0  0  0  0  0  0  0  0  0  0  0  0
   -5.2546   -3.5373   -0.2608 C   0  0  0  0  0  0  0  0  0  0  0  0
   -5.8895   -2.3221   -0.5215 C   0  0  0  0  0  0  0  0  0  0  0  0
   -5.1246   -1.1360   -0.3416 C   0  0  0  0  0  0  0  0  0  0  0  0
   -3.8318   -1.3084    0.0514 C   0  0  0  0  0  0  0  0  0  0  0  0
   -2.8117   -0.3071    0.1581 C   0  0  0  0  0  0  0  0  0  0  0  0
   -3.1413    1.1448    0.0864 C   0  0  0  0  0  0  0  0  0  0  0  0
   -2.4955    2.0219    0.9176 C   0  0  0  0  0  0  0  0  0  0  0  0
   -2.8433    3.3491    1.0544 C   0  0  0  0  0  0  0  0  0  0  0  0
   -3.9106    3.8149    0.2922 C   0  0  0  0  0  0  0  0  0  0  0  0
   -4.5606    2.9647   -0.5392 C   0  0  0  0  0  0  0  0  0  0  0  0
   -4.1882    1.5672   -0.6639 C   0  0  0  0  0  0  0  0  0  0  0  0
    0.0990    0.9571    0.4928 C   0  0  0  0  0  0  0  0  0  0  0  0
    1.3093    1.3902    0.0366 C   0  0  0  0  0  0  0  0  0  0  0  0
    6.2524    1.2889   -0.5817 O   0  0  0  0  0  0  0  0  0  0  0  0
    6.6263    2.1861    0.5248 C   0  0  0  0  0  0  0  0  0  0  0  0
    7.9342    1.5622    1.0658 C   0  0  0  0  0  0  0  0  0  0  0  0
  1  2  1  0
  2  3  1  0
  3  4  1  0
  4  5  2  0
  4  6  1  0
  6  7  1  0
  7  8  2  0
  8  9  1  0
  9 10  2  0
 10 11  1  0
 11 12  1  0
 12 13  1  0
 13 14  2  0
 14 15  1  0
 15 16  2  0
 16 17  1  0
 17 18  2  0
 18 19  1  0
 19 20  1  0
 20 21  2  0
 21 22  1  0
 22 23  2  0
 23 24  1  0
 24 25  2  0
 10 26  1  0
 26 27  2  0
  4 28  1  0
 28 29  1  0
 29 30  1  0
 27  7  1  0
 19 11  2  0
 25 20  1  0
 18 13  1  0
M  END
>  <zinc_id>  (1) 
ZINC000001536640

>  <smiles>  (1) 
CCOP(=O)(Cc1ccc(-c2[nH]c3ccccc3c2-c2ccccc2)cc1)OCC

$$$$
