
     RDKit          3D

 31 33  0  0  0  0  0  0  0  0999 V2000
   -4.2495    1.7566   -4.0605 C   0  0  0  0  0  0  0  0  0  0  0  0
   -2.8144    1.4380   -3.6972 C   0  0  0  0  0  0  0  0  0  0  0  0
   -2.8310    0.9156   -2.3803 O   0  0  0  0  0  0  0  0  0  0  0  0
   -1.6929    0.5125   -1.7154 C   0  0  0  0  0  0  0  0  0  0  0  0
   -0.6099    0.6238   -2.3251 O   0  0  0  0  0  0  0  0  0  0  0  0
   -1.7285   -0.0356   -0.3271 C   0  0  0  0  0  0  0  0  0  0  0  0
   -0.5668   -0.4196    0.2860 C   0  0  0  0  0  0  0  0  0  0  0  0
    0.7745   -0.3774   -0.2300 N   0  0  0  0  0  0  0  0  0  0  0  0
    1.8602   -0.8281    0.5865 C   0  0  0  0  0  0  0  0  0  0  0  0
    1.5631   -1.2432    1.7343 O   0  0  0  0  0  0  0  0  0  0  0  0
    3.2717   -0.7950    0.0722 C   0  0  0  0  0  0  0  0  0  0  0  0
    4.1126   -1.3094    1.1350 N   0  0  0  0  0  0  0  0  0  0  0  0
    4.0931   -0.3489    2.2141 C   0  0  0  0  0  0  0  0  0  0  0  0
    4.7991    0.8957    1.7660 C   0  0  0  0  0  0  0  0  0  0  0  0
    6.2003    0.6054    1.3999 C   0  0  0  0  0  0  0  0  0  0  0  0
    6.5671    0.2571    0.1002 C   0  0  0  0  0  0  0  0  0  0  0  0
    7.8847   -0.0062   -0.1959 C   0  0  0  0  0  0  0  0  0  0  0  0
    8.8871    0.0566    0.7451 C   0  0  0  0  0  0  0  0  0  0  0  0
    8.5374    0.3999    2.0356 C   0  0  0  0  0  0  0  0  0  0  0  0
    7.2137    0.6636    2.3271 C   0  0  0  0  0  0  0  0  0  0  0  0
   -1.0776   -0.9644    1.8119 S   0  0  0  0  0  0  0  0  0  0  0  0
   -2.7544   -0.6974    1.6493 C   0  0  0  0  0  0  0  0  0  0  0  0
   -3.8671   -0.9590    2.6432 C   0  0  0  0  0  0  0  0  0  0  0  0
   -2.8658   -0.1858    0.3954 C   0  0  0  0  0  0  0  0  0  0  0  0
   -4.2032    0.1883   -0.1383 C   0  0  0  0  0  0  0  0  0  0  0  0
   -4.8144   -0.7290   -0.9544 C   0  0  0  0  0  0  0  0  0  0  0  0
   -6.0629   -0.5135   -1.5292 C   0  0  0  0  0  0  0  0  0  0  0  0
   -6.6979    0.6911   -1.2484 C   0  0  0  0  0  0  0  0  0  0  0  0
   -8.0373    1.0267   -1.8131 C   0  0  0  0  0  0  0  0  0  0  0  0
   -6.0717    1.6021   -0.4275 C   0  0  0  0  0  0  0  0  0  0  0  0
   -4.8194    1.3706    0.1406 C   0  0  0  0  0  0  0  0  0  0  0  0
  1  2  1  0
  2  3  1  0
  3  4  1  0
  4  5  2  0
  4  6  1  0
  6  7  2  0
  7  8  1  0
  8  9  1  0
  9 10  2  0
  9 11  1  0
 11 12  1  0
 12 13  1  0
 13 14  1  0
 14 15  1  0
 15 16  2  0
 16 17  1  0
 17 18  2  0
 18 19  1  0
 19 20  2  0
  7 21  1  0
 21 22  1  0
 22 23  1  0
 22 24  2  0
 24 25  1  0
 25 26  2  0
 26 27  1  0
 27 28  2  0
 28 29  1  0
 28 30  1  0
 30 31  2  0
 24  6  1  0
 31 25  1  0
 20 15  1  0
M  END
>  <zinc_id>  (1) 
ZINC000003292352

>  <smiles>  (1) 
CCOC(=O)c1c(NC(=O)CNCCc2ccccc2)sc(C)c1-c1ccc(C)cc1

$$$$
