
     RDKit          3D

 36 40  0  0  0  0  0  0  0  0999 V2000
    7.1066    5.3230   -0.8218 C   0  0  0  0  0  0  0  0  0  0  0  0
    7.1601    3.9298   -0.5556 O   0  0  0  0  0  0  0  0  0  0  0  0
    5.9946    3.2183   -0.4615 C   0  0  0  0  0  0  0  0  0  0  0  0
    4.7687    3.8229   -0.6191 C   0  0  0  0  0  0  0  0  0  0  0  0
    3.5752    3.1550   -0.5343 C   0  0  0  0  0  0  0  0  0  0  0  0
    3.5852    1.8044   -0.2778 C   0  0  0  0  0  0  0  0  0  0  0  0
    2.3309    1.0368   -0.1763 C   0  0  0  0  0  0  0  0  0  0  0  0
    2.2913   -0.3072    0.0762 C   0  0  0  0  0  0  0  0  0  0  0  0
    1.1310   -1.0594    0.1777 C   0  0  0  0  0  0  0  0  0  0  0  0
    1.2565   -2.4959    0.4097 C   0  0  0  0  0  0  0  0  0  0  0  0
    0.6828   -3.3496   -0.5006 C   0  0  0  0  0  0  0  0  0  0  0  0
    0.7665   -4.7118   -0.3362 C   0  0  0  0  0  0  0  0  0  0  0  0
    1.4298   -5.2441    0.7483 C   0  0  0  0  0  0  0  0  0  0  0  0
    1.5143   -6.6299    0.9143 O   0  0  0  0  0  0  0  0  0  0  0  0
    2.1683   -7.2360    1.9857 C   0  0  0  0  0  0  0  0  0  0  0  0
    1.9909   -4.3738    1.6377 C   0  0  0  0  0  0  0  0  0  0  0  0
    1.9241   -3.0084    1.5008 C   0  0  0  0  0  0  0  0  0  0  0  0
   -0.1077   -0.4094    0.0132 C   0  0  0  0  0  0  0  0  0  0  0  0
   -1.3366   -0.9521    0.0842 C   0  0  0  0  0  0  0  0  0  0  0  0
   -1.6261   -2.3576    0.3647 N   0  0  0  0  0  0  0  0  0  0  0  0
   -2.4069   -0.1188   -0.1025 C   0  0  0  0  0  0  0  0  0  0  0  0
   -3.8492   -0.4297   -0.0864 C   0  0  0  0  0  0  0  0  0  0  0  0
   -4.2406   -1.6060    0.1173 O   0  0  0  0  0  0  0  0  0  0  0  0
   -4.8453    0.5998   -0.3030 C   0  0  0  0  0  0  0  0  0  0  0  0
   -5.7768    0.4912   -1.3241 C   0  0  0  0  0  0  0  0  0  0  0  0
   -6.7204    1.4846   -1.5221 C   0  0  0  0  0  0  0  0  0  0  0  0
   -6.7197    2.5715   -0.6977 C   0  0  0  0  0  0  0  0  0  0  0  0
   -7.7267    3.6438   -0.8997 C   0  0  0  0  0  0  0  0  0  0  0  0
   -5.8102    2.7174    0.3297 C   0  0  0  0  0  0  0  0  0  0  0  0
   -4.8627    1.7035    0.5163 C   0  0  0  0  0  0  0  0  0  0  0  0
   -3.8550    1.7871    1.6026 C   0  0  0  0  0  0  0  0  0  0  0  0
   -1.6834    1.3906   -0.3695 S   0  0  0  0  0  0  0  0  0  0  0  0
   -0.0342    0.9353   -0.2386 C   0  0  0  0  0  0  0  0  0  0  0  0
    1.1434    1.6344   -0.3304 N   0  0  0  0  0  0  0  0  0  0  0  0
    4.7986    1.1748   -0.1158 C   0  0  0  0  0  0  0  0  0  0  0  0
    5.9825    1.8654   -0.2053 C   0  0  0  0  0  0  0  0  0  0  0  0
  1  2  1  0
  2  3  1  0
  3  4  2  0
  4  5  1  0
  5  6  2  0
  6  7  1  0
  7  8  2  0
  8  9  1  0
  9 10  1  0
 10 11  2  0
 11 12  1  0
 12 13  2  0
 13 14  1  0
 14 15  1  0
 13 16  1  0
 16 17  2  0
  9 18  2  0
 18 19  1  0
 19 20  1  0
 19 21  2  0
 21 22  1  0
 22 23  2  0
 22 24  1  0
 24 25  2  0
 25 26  1  0
 26 27  2  0
 27 28  1  0
 27 29  1  0
 29 30  2  0
 30 31  1  0
 21 32  1  0
 32 33  1  0
 33 34  2  0
  6 35  1  0
 35 36  2  0
 36  3  1  0
 34  7  1  0
 17 10  1  0
 33 18  1  0
 30 24  1  0
M  END
>  <zinc_id>  (1) 
ZINC000002952852

>  <smiles>  (1) 
COc1ccc(-c2cc(-c3ccc(OC)cc3)c3c(N)c(C(=O)c4ccc(C)cc4C)sc3n2)cc1

$$$$
