
     RDKit          3D

 29 31  0  0  0  0  0  0  0  0999 V2000
   -7.4236    2.6198   -1.1096 C   0  0  0  0  0  0  0  0  0  0  0  0
   -6.7528    3.2558    0.0851 C   0  0  0  0  0  0  0  0  0  0  0  0
   -5.3252    2.7841    0.2045 C   0  0  0  0  0  0  0  0  0  0  0  0
   -5.2949    1.3431    0.3648 N   0  0  0  0  0  0  0  0  0  0  0  0
   -4.0697    0.6261    0.5032 C   0  0  0  0  0  0  0  0  0  0  0  0
   -3.0107    1.3134    0.4790 O   0  0  0  0  0  0  0  0  0  0  0  0
   -4.0288   -0.8086    0.6633 C   0  0  0  0  0  0  0  0  0  0  0  0
   -5.2165   -1.5293    0.6837 C   0  0  0  0  0  0  0  0  0  0  0  0
   -5.1965   -2.8971    0.8355 C   0  0  0  0  0  0  0  0  0  0  0  0
   -3.9722   -3.5142    0.9645 C   0  0  0  0  0  0  0  0  0  0  0  0
   -2.7724   -2.7929    0.9447 C   0  0  0  0  0  0  0  0  0  0  0  0
   -2.8026   -1.4242    0.7923 C   0  0  0  0  0  0  0  0  0  0  0  0
   -1.6172   -0.6448    0.7660 N   0  0  0  0  0  0  0  0  0  0  0  0
   -0.3155   -1.1450    0.8848 C   0  0  0  0  0  0  0  0  0  0  0  0
   -0.1535   -2.3822    1.0272 O   0  0  0  0  0  0  0  0  0  0  0  0
    0.8810   -0.2969    0.8518 C   0  0  0  0  0  0  0  0  0  0  0  0
    2.1432   -0.8380    0.9363 C   0  0  0  0  0  0  0  0  0  0  0  0
    3.2956   -0.0752    0.9094 C   0  0  0  0  0  0  0  0  0  0  0  0
    3.1924    1.2888    0.7933 C   0  0  0  0  0  0  0  0  0  0  0  0
    4.4428    2.0813    0.7652 C   0  0  0  0  0  0  0  0  0  0  0  0
    5.0778    2.3331   -0.8871 S   0  0  0  0  0  0  0  0  0  0  0  0
    5.6101    0.7718   -1.6072 C   0  0  0  0  0  0  0  0  0  0  0  0
    6.1251    0.8208   -2.8902 C   0  0  0  0  0  0  0  0  0  0  0  0
    6.5528   -0.3365   -3.5038 C   0  0  0  0  0  0  0  0  0  0  0  0
    6.4505   -1.5219   -2.8055 C   0  0  0  0  0  0  0  0  0  0  0  0
    5.9407   -1.5580   -1.5399 C   0  0  0  0  0  0  0  0  0  0  0  0
    5.5104   -0.4151   -0.9145 C   0  0  0  0  0  0  0  0  0  0  0  0
    1.9461    1.8601    0.7069 C   0  0  0  0  0  0  0  0  0  0  0  0
    0.7836    1.0816    0.7347 C   0  0  0  0  0  0  0  0  0  0  0  0
  1  2  1  0
  2  3  1  0
  3  4  1  0
  4  5  1  0
  5  6  2  0
  5  7  1  0
  7  8  2  0
  8  9  1  0
  9 10  2  0
 10 11  1  0
 11 12  2  0
 12 13  1  0
 13 14  1  0
 14 15  2  0
 14 16  1  0
 16 17  2  0
 17 18  1  0
 18 19  2  0
 19 20  1  0
 20 21  1  0
 21 22  1  0
 22 23  2  0
 23 24  1  0
 24 25  2  0
 25 26  1  0
 26 27  2  0
 19 28  1  0
 28 29  2  0
 12  7  1  0
 29 16  1  0
 27 22  1  0
M  END
>  <zinc_id>  (1) 
ZINC000002851494

>  <smiles>  (1) 
CCCNC(=O)c1ccccc1NC(=O)c1ccc(CSc2ccccc2)cc1

$$$$
