
     RDKit          3D

 30 33  0  0  0  0  0  0  0  0999 V2000
   -8.9161    0.7234    0.7582 C   0  0  0  0  0  0  0  0  0  0  0  0
   -8.9163   -0.7983    0.6190 C   0  0  0  0  0  0  0  0  0  0  0  0
   -7.9401   -1.1863   -0.2846 O   0  0  0  0  0  0  0  0  0  0  0  0
   -6.5577   -0.8978   -0.1648 C   0  0  0  0  0  0  0  0  0  0  0  0
   -6.0177   -0.2065    0.8583 C   0  0  0  0  0  0  0  0  0  0  0  0
   -4.6327    0.0651    0.9139 C   0  0  0  0  0  0  0  0  0  0  0  0
   -3.8014   -0.3752   -0.0684 C   0  0  0  0  0  0  0  0  0  0  0  0
   -2.3443   -0.1204   -0.0928 C   0  0  0  0  0  0  0  0  0  0  0  0
   -1.7529    1.0599    0.2422 C   0  0  0  0  0  0  0  0  0  0  0  0
   -0.3259    1.2284    0.1563 C   0  0  0  0  0  0  0  0  0  0  0  0
    0.4504    0.1848   -0.2765 C   0  0  0  0  0  0  0  0  0  0  0  0
    1.9221    0.3076   -0.5625 C   0  0  0  0  0  0  0  0  0  0  0  0
    2.4826    1.5827   -0.0897 N   0  0  0  0  0  0  0  0  0  0  0  0
    3.6793    1.7609   -0.8245 C   0  0  0  0  0  0  0  0  0  0  0  0
    4.9943    1.7764   -0.2544 C   0  0  0  0  0  0  0  0  0  0  0  0
    6.0661    1.3262   -1.1342 C   0  0  0  0  0  0  0  0  0  0  0  0
    7.3318    1.2352   -0.6828 C   0  0  0  0  0  0  0  0  0  0  0  0
    7.7100    1.5569    0.6363 C   0  0  0  0  0  0  0  0  0  0  0  0
    9.0526    1.4141    0.9847 O   0  0  0  0  0  0  0  0  0  0  0  0
    9.9983    0.9333    0.0094 C   0  0  0  0  0  0  0  0  0  0  0  0
    6.7262    1.9798    1.4686 C   0  0  0  0  0  0  0  0  0  0  0  0
    5.3907    2.0745    0.9854 C   0  0  0  0  0  0  0  0  0  0  0  0
   -0.1801   -1.0161   -0.6046 C   0  0  0  0  0  0  0  0  0  0  0  0
    0.6715   -2.0459   -1.0266 C   0  0  0  0  0  0  0  0  0  0  0  0
    0.0045   -3.2048   -1.3462 N   0  0  0  0  0  0  0  0  0  0  0  0
   -1.2830   -3.3628   -1.2649 C   0  0  0  0  0  0  0  0  0  0  0  0
   -2.1859   -2.3841   -0.8517 C   0  0  0  0  0  0  0  0  0  0  0  0
   -1.5261   -1.1691   -0.5183 C   0  0  0  0  0  0  0  0  0  0  0  0
   -4.3649   -1.0784   -1.0996 C   0  0  0  0  0  0  0  0  0  0  0  0
   -5.7354   -1.3636   -1.1938 C   0  0  0  0  0  0  0  0  0  0  0  0
  1  2  1  0
  2  3  1  0
  3  4  1  0
  4  5  2  0
  5  6  1  0
  6  7  2  0
  7  8  1  0
  8  9  2  0
  9 10  1  0
 10 11  2  0
 11 12  1  0
 12 13  1  0
 13 14  1  0
 14 15  1  0
 15 16  2  0
 16 17  1  0
 17 18  2  0
 18 19  1  0
 19 20  1  0
 18 21  1  0
 21 22  2  0
 11 23  1  0
 23 24  2  0
 24 25  1  0
 25 26  2  0
 26 27  1  0
 27 28  2  0
  7 29  1  0
 29 30  2  0
 30  4  1  0
 28  8  1  0
 22 15  1  0
 28 23  1  0
M  END
>  <zinc_id>  (1) 
ZINC000004515753

>  <smiles>  (1) 
CCOc1ccc(-c2ccc(CNCc3ccc(OC)cc3)c3cnccc23)cc1

$$$$
