
     RDKit          3D

 31 34  0  0  0  0  0  0  0  0999 V2000
    9.8190    1.0935   -0.8912 C   0  0  0  0  0  0  0  0  0  0  0  0
    8.4230    0.5831   -0.7333 C   0  0  0  0  0  0  0  0  0  0  0  0
    7.5805    1.6032   -0.1806 O   0  0  0  0  0  0  0  0  0  0  0  0
    6.2288    1.2562    0.0202 C   0  0  0  0  0  0  0  0  0  0  0  0
    5.3632    2.1609    0.5431 C   0  0  0  0  0  0  0  0  0  0  0  0
    4.0287    1.7985    0.7394 C   0  0  0  0  0  0  0  0  0  0  0  0
    3.5727    0.5476    0.4145 C   0  0  0  0  0  0  0  0  0  0  0  0
    2.1742    0.2207    0.6313 C   0  0  0  0  0  0  0  0  0  0  0  0
    1.5141    0.5362    1.7950 C   0  0  0  0  0  0  0  0  0  0  0  0
    0.2091    0.2272    2.0194 C   0  0  0  0  0  0  0  0  0  0  0  0
   -0.4961   -0.4452    1.0076 C   0  0  0  0  0  0  0  0  0  0  0  0
   -1.9037   -0.6691    1.2464 C   0  0  0  0  0  0  0  0  0  0  0  0
   -2.4263   -1.9279    0.6525 N   0  0  0  0  0  0  0  0  0  0  0  0
   -3.8013   -1.9470    1.1977 C   0  0  0  0  0  0  0  0  0  0  0  0
   -4.6809   -1.1116    0.2912 C   0  0  0  0  0  0  0  0  0  0  0  0
   -4.4256   -0.9395   -1.0453 C   0  0  0  0  0  0  0  0  0  0  0  0
   -5.1947   -0.0636   -1.8121 C   0  0  0  0  0  0  0  0  0  0  0  0
   -6.2114    0.6310   -1.2223 C   0  0  0  0  0  0  0  0  0  0  0  0
   -6.9816    1.5146   -2.0021 O   0  0  0  0  0  0  0  0  0  0  0  0
   -6.5070    0.4831    0.1423 C   0  0  0  0  0  0  0  0  0  0  0  0
   -7.5407    1.1952    0.7255 O   0  0  0  0  0  0  0  0  0  0  0  0
   -7.7827    0.9871    2.1140 C   0  0  0  0  0  0  0  0  0  0  0  0
   -5.7185   -0.4021    0.8728 C   0  0  0  0  0  0  0  0  0  0  0  0
    0.1276   -0.7848   -0.1753 C   0  0  0  0  0  0  0  0  0  0  0  0
   -0.5458   -1.4848   -1.1635 C   0  0  0  0  0  0  0  0  0  0  0  0
    0.0629   -1.8509   -2.3009 N   0  0  0  0  0  0  0  0  0  0  0  0
    1.3288   -1.5491   -2.5069 C   0  0  0  0  0  0  0  0  0  0  0  0
    2.0577   -0.8426   -1.5387 C   0  0  0  0  0  0  0  0  0  0  0  0
    1.4580   -0.4496   -0.3561 C   0  0  0  0  0  0  0  0  0  0  0  0
    4.4728   -0.3359   -0.1091 C   0  0  0  0  0  0  0  0  0  0  0  0
    5.7953   -0.0344   -0.3220 C   0  0  0  0  0  0  0  0  0  0  0  0
  1  2  1  0
  2  3  1  0
  3  4  1  0
  4  5  2  0
  5  6  1  0
  6  7  2  0
  7  8  1  0
  8  9  2  0
  9 10  1  0
 10 11  2  0
 11 12  1  0
 12 13  1  0
 13 14  1  0
 14 15  1  0
 15 16  2  0
 16 17  1  0
 17 18  2  0
 18 19  1  0
 18 20  1  0
 20 21  1  0
 21 22  1  0
 20 23  2  0
 11 24  1  0
 24 25  2  0
 25 26  1  0
 26 27  2  0
 27 28  1  0
 28 29  2  0
  7 30  1  0
 30 31  2  0
 31  4  1  0
 29  8  1  0
 23 15  1  0
 29 24  1  0
M  END
>  <zinc_id>  (1) 
ZINC000004490961

>  <smiles>  (1) 
CCOc1ccc(-c2ccc(CNCc3ccc(O)c(OC)c3)c3cnccc23)cc1

$$$$
