
     RDKit          3D

 35 39  0  0  0  0  0  0  0  0999 V2000
    0.5342   -4.0527    4.7076 O   0  0  0  0  0  0  0  0  0  0  0  0
   -0.0888   -3.1242    3.8799 C   0  0  0  0  0  0  0  0  0  0  0  0
   -0.5781   -3.4760    2.6310 C   0  0  0  0  0  0  0  0  0  0  0  0
   -1.1945   -2.5477    1.8173 C   0  0  0  0  0  0  0  0  0  0  0  0
   -1.3557   -1.2327    2.1990 C   0  0  0  0  0  0  0  0  0  0  0  0
   -2.0055   -0.2242    1.3688 C   0  0  0  0  0  0  0  0  0  0  0  0
   -3.1557    0.4316    1.7803 C   0  0  0  0  0  0  0  0  0  0  0  0
   -3.7578    1.3877    0.9776 C   0  0  0  0  0  0  0  0  0  0  0  0
   -3.2337    1.7177   -0.2546 C   0  0  0  0  0  0  0  0  0  0  0  0
   -3.8892    2.7281   -1.0761 C   0  0  0  0  0  0  0  0  0  0  0  0
   -3.3879    3.0853   -2.3100 C   0  0  0  0  0  0  0  0  0  0  0  0
   -3.9971    4.0407   -3.1022 C   0  0  0  0  0  0  0  0  0  0  0  0
   -5.1436    4.6714   -2.6678 C   0  0  0  0  0  0  0  0  0  0  0  0
   -5.7145    5.6023   -3.4668 F   0  0  0  0  0  0  0  0  0  0  0  0
   -5.6545    4.3220   -1.4352 C   0  0  0  0  0  0  0  0  0  0  0  0
   -5.0336    3.3576   -0.6433 C   0  0  0  0  0  0  0  0  0  0  0  0
   -2.1197    1.0760   -0.6421 N   0  0  0  0  0  0  0  0  0  0  0  0
   -1.5092    0.1298    0.1325 C   0  0  0  0  0  0  0  0  0  0  0  0
   -0.3050   -0.5508   -0.3216 C   0  0  0  0  0  0  0  0  0  0  0  0
    0.9208   -0.4637    0.3137 C   0  0  0  0  0  0  0  0  0  0  0  0
    2.0280   -1.1326   -0.1639 C   0  0  0  0  0  0  0  0  0  0  0  0
    2.0015   -1.9203   -1.2829 C   0  0  0  0  0  0  0  0  0  0  0  0
    3.0402   -2.6015   -1.8070 O   0  0  0  0  0  0  0  0  0  0  0  0
    4.3472   -2.7964   -1.5366 C   0  0  0  0  0  0  0  0  0  0  0  0
    5.2784   -1.6400   -1.5054 C   0  0  0  0  0  0  0  0  0  0  0  0
    4.9089   -0.7118   -0.4723 N   0  0  0  0  0  0  0  0  0  0  0  0
    5.1764   -1.3099    0.8282 C   0  0  0  0  0  0  0  0  0  0  0  0
    6.5883   -1.0007    1.3087 C   0  0  0  0  0  0  0  0  0  0  0  0
    6.7970    0.4828    1.4801 C   0  0  0  0  0  0  0  0  0  0  0  0
    5.6910    1.2144    0.7470 C   0  0  0  0  0  0  0  0  0  0  0  0
    5.5090    0.5842   -0.6191 C   0  0  0  0  0  0  0  0  0  0  0  0
    0.7544   -2.0148   -1.9377 C   0  0  0  0  0  0  0  0  0  0  0  0
   -0.3340   -1.3413   -1.4460 C   0  0  0  0  0  0  0  0  0  0  0  0
   -0.8674   -0.8817    3.4450 C   0  0  0  0  0  0  0  0  0  0  0  0
   -0.2497   -1.8088    4.2618 C   0  0  0  0  0  0  0  0  0  0  0  0
  1  2  1  0
  2  3  2  0
  3  4  1  0
  4  5  2  0
  5  6  1  0
  6  7  2  0
  7  8  1  0
  8  9  2  0
  9 10  1  0
 10 11  2  0
 11 12  1  0
 12 13  2  0
 13 14  1  0
 13 15  1  0
 15 16  2  0
  9 17  1  0
 17 18  2  0
 18 19  1  0
 19 20  2  0
 20 21  1  0
 21 22  2  0
 22 23  1  0
 23 24  1  0
 24 25  1  0
 25 26  1  0
 26 27  1  0
 27 28  1  0
 28 29  1  0
 29 30  1  0
 30 31  1  0
 22 32  1  0
 32 33  2  0
  5 34  1  0
 34 35  2  0
 35  2  1  0
 18  6  1  0
 33 19  1  0
 16 10  1  0
 31 26  1  0
M  END
>  <zinc_id>  (1) 
ZINC000001544712

>  <smiles>  (1) 
Oc1ccc(-c2ccc(-c3ccc(F)cc3)nc2-c2ccc(OCCN3CCCCC3)cc2)cc1

$$$$
