
     RDKit          3D

 33 36  0  0  0  0  0  0  0  0999 V2000
   -6.4749    2.8451   -2.7759 C   0  0  0  0  0  0  0  0  0  0  0  0
   -6.4575    2.5810   -1.3934 O   0  0  0  0  0  0  0  0  0  0  0  0
   -6.1449    1.2996   -0.9659 C   0  0  0  0  0  0  0  0  0  0  0  0
   -6.1222    1.0165    0.4034 C   0  0  0  0  0  0  0  0  0  0  0  0
   -5.8097   -0.2607    0.8020 C   0  0  0  0  0  0  0  0  0  0  0  0
   -5.5241   -1.2461   -0.1151 C   0  0  0  0  0  0  0  0  0  0  0  0
   -5.2012   -2.5891    0.4177 C   0  0  0  0  0  0  0  0  0  0  0  0
   -3.7948   -2.7911    0.6774 N   0  0  0  0  0  0  0  0  0  0  0  0
   -3.4465   -4.1106    1.2046 C   0  0  0  0  0  0  0  0  0  0  0  0
   -2.7854   -1.8473    0.4668 C   0  0  0  0  0  0  0  0  0  0  0  0
   -3.0665   -0.5967   -0.0261 C   0  0  0  0  0  0  0  0  0  0  0  0
   -2.0264    0.2787   -0.2076 C   0  0  0  0  0  0  0  0  0  0  0  0
   -0.7791   -0.0984    0.0946 N   0  0  0  0  0  0  0  0  0  0  0  0
   -0.4721   -1.3282    0.5834 C   0  0  0  0  0  0  0  0  0  0  0  0
    0.8898   -1.7076    0.9017 C   0  0  0  0  0  0  0  0  0  0  0  0
    1.1151   -2.9733    1.3927 C   0  0  0  0  0  0  0  0  0  0  0  0
    2.3984   -3.4061    1.7200 C   0  0  0  0  0  0  0  0  0  0  0  0
    3.4701   -2.5680    1.5563 C   0  0  0  0  0  0  0  0  0  0  0  0
    3.2485   -1.3044    1.0665 C   0  0  0  0  0  0  0  0  0  0  0  0
    4.3819   -0.4640    0.9101 N   0  0  0  0  0  0  0  0  0  0  0  0
    4.1797    0.8448    0.4065 C   0  0  0  0  0  0  0  0  0  0  0  0
    3.0161    1.2069    0.1207 O   0  0  0  0  0  0  0  0  0  0  0  0
    5.2687    1.7830    0.2085 C   0  0  0  0  0  0  0  0  0  0  0  0
    6.5867    1.4570    0.5015 C   0  0  0  0  0  0  0  0  0  0  0  0
    7.5980    2.3718    0.3018 C   0  0  0  0  0  0  0  0  0  0  0  0
    7.3577    3.6351   -0.1903 C   0  0  0  0  0  0  0  0  0  0  0  0
    8.4556    4.6250   -0.4059 C   0  0  0  0  0  0  0  0  0  0  0  0
    6.0522    3.9660   -0.4834 C   0  0  0  0  0  0  0  0  0  0  0  0
    5.0439    3.0496   -0.2828 C   0  0  0  0  0  0  0  0  0  0  0  0
    1.9687   -0.8749    0.7409 C   0  0  0  0  0  0  0  0  0  0  0  0
   -1.5141   -2.1598    0.7488 N   0  0  0  0  0  0  0  0  0  0  0  0
   -5.5527   -0.9455   -1.4465 C   0  0  0  0  0  0  0  0  0  0  0  0
   -5.8591    0.3116   -1.8721 C   0  0  0  0  0  0  0  0  0  0  0  0
  1  2  1  0
  2  3  1  0
  3  4  2  0
  4  5  1  0
  5  6  2  0
  6  7  1  0
  7  8  1  0
  8  9  1  0
  8 10  1  0
 10 11  2  0
 11 12  1  0
 12 13  2  0
 13 14  1  0
 14 15  1  0
 15 16  2  0
 16 17  1  0
 17 18  2  0
 18 19  1  0
 19 20  1  0
 20 21  1  0
 21 22  2  0
 21 23  1  0
 23 24  2  0
 24 25  1  0
 25 26  2  0
 26 27  1  0
 26 28  1  0
 28 29  2  0
 19 30  2  0
 14 31  2  0
  6 32  1  0
 32 33  2  0
 33  3  1  0
 31 10  1  0
 30 15  1  0
 29 23  1  0
M  END
>  <zinc_id>  (1) 
ZINC000003928829

>  <smiles>  (1) 
COc1ccc(CN(C)c2ccnc(-c3cccc(NC(=O)c4ccc(C)cc4)c3)n2)cc1

$$$$
