
     RDKit          3D

 30 33  0  0  0  0  0  0  0  0999 V2000
    7.8746    0.0117   -1.3638 C   0  0  0  0  0  0  0  0  0  0  0  0
    6.5896    0.3285   -2.0961 C   0  0  0  0  0  0  0  0  0  0  0  0
    5.4737   -0.0157   -1.1710 C   0  0  0  0  0  0  0  0  0  0  0  0
    4.9593    0.9144   -0.2918 C   0  0  0  0  0  0  0  0  0  0  0  0
    3.9315    0.5582    0.5442 C   0  0  0  0  0  0  0  0  0  0  0  0
    3.4361   -0.6484    0.5171 C   0  0  0  0  0  0  0  0  0  0  0  0
    2.2254   -1.1085    1.4848 C   0  0  1  0  0  0  0  0  0  0  0  0
    2.9667   -0.5987    2.8701 C   0  0  0  0  0  0  0  0  0  0  0  0
    3.2077    0.8501    2.7585 C   0  0  0  0  0  0  0  0  0  0  0  0
    3.8221    1.2732    3.9054 O   0  0  0  0  0  0  0  0  0  0  0  0
    1.3229    0.1918    1.3099 N   0  0  0  0  0  0  0  0  0  0  0  0
    0.3771    0.1130    0.2698 C   0  0  0  0  0  0  0  0  0  0  0  0
    0.3247   -0.9435   -0.4130 O   0  0  0  0  0  0  0  0  0  0  0  0
   -0.5146    1.1072   -0.0759 O   0  0  0  0  0  0  0  0  0  0  0  0
   -1.4583    1.0030   -1.1288 C   0  0  0  0  0  0  0  0  0  0  0  0
   -2.3463   -0.1942   -0.7685 C   0  0  0  0  0  0  0  0  0  0  0  0
   -3.0106    0.0679    0.5374 C   0  0  0  0  0  0  0  0  0  0  0  0
   -2.4859    0.2561    1.7956 C   0  0  0  0  0  0  0  0  0  0  0  0
   -3.2751    0.4910    2.9054 C   0  0  0  0  0  0  0  0  0  0  0  0
   -4.6278    0.5339    2.7230 C   0  0  0  0  0  0  0  0  0  0  0  0
   -5.1608    0.3448    1.4576 C   0  0  0  0  0  0  0  0  0  0  0  0
   -4.3782    0.1099    0.3455 C   0  0  0  0  0  0  0  0  0  0  0  0
   -4.6733   -0.1169   -1.0655 C   0  0  0  0  0  0  0  0  0  0  0  0
   -5.8573   -0.1743   -1.7773 C   0  0  0  0  0  0  0  0  0  0  0  0
   -5.8712   -0.4080   -3.1387 C   0  0  0  0  0  0  0  0  0  0  0  0
   -4.6905   -0.5860   -3.7954 C   0  0  0  0  0  0  0  0  0  0  0  0
   -3.4995   -0.5305   -3.0918 C   0  0  0  0  0  0  0  0  0  0  0  0
   -3.4840   -0.2985   -1.7396 C   0  0  0  0  0  0  0  0  0  0  0  0
    3.8949   -1.6265   -0.3289 C   0  0  0  0  0  0  0  0  0  0  0  0
    4.9271   -1.2919   -1.1781 C   0  0  0  0  0  0  0  0  0  0  0  0
  1  2  1  0
  2  3  1  0
  3  4  2  0
  4  5  1  0
  5  6  2  0
  6  7  1  0
  7  8  1  1
  8  9  1  0
  9 10  1  0
  7 11  1  0
 11 12  1  0
 12 13  2  0
 12 14  1  0
 14 15  1  0
 15 16  1  0
 16 17  1  0
 17 18  2  0
 18 19  1  0
 19 20  2  0
 20 21  1  0
 21 22  2  0
 22 23  1  0
 23 24  2  0
 24 25  1  0
 25 26  2  0
 26 27  1  0
 27 28  2  0
  6 29  1  0
 29 30  2  0
 30  3  1  0
 28 16  1  0
 22 17  1  0
 28 23  1  0
M  END
>  <zinc_id>  (1) 
ZINC000002530240

>  <smiles>  (1) 
CCc1ccc([C@@H](CCO)NC(=O)OCC2c3ccccc3-c3ccccc32)cc1

$$$$
