
     RDKit          3D

 31 34  0  0  0  0  0  0  0  0999 V2000
    8.5861    2.5582   -0.8894 C   0  0  0  0  0  0  0  0  0  0  0  0
    9.0826    1.1376   -1.0463 C   0  0  0  0  0  0  0  0  0  0  0  0
    8.1856    0.3597   -1.8157 O   0  0  0  0  0  0  0  0  0  0  0  0
    6.8591    0.1580   -1.4154 C   0  0  0  0  0  0  0  0  0  0  0  0
    5.9876   -0.5998   -2.1662 C   0  0  0  0  0  0  0  0  0  0  0  0
    4.6702   -0.8081   -1.7817 C   0  0  0  0  0  0  0  0  0  0  0  0
    4.1728   -0.2605   -0.6210 C   0  0  0  0  0  0  0  0  0  0  0  0
    2.8475   -0.4216   -0.1575 N   0  0  0  0  0  0  0  0  0  0  0  0
    1.8669   -1.1810   -0.8564 C   0  0  0  0  0  0  0  0  0  0  0  0
    2.2364   -1.7176   -1.9313 O   0  0  0  0  0  0  0  0  0  0  0  0
    0.4687   -1.3492   -0.3651 C   0  0  0  0  0  0  0  0  0  0  0  0
    0.1788   -0.4998    1.1805 S   0  0  0  0  0  0  0  0  0  0  0  0
   -1.5118   -0.7610    1.6772 C   0  0  0  0  0  0  0  0  0  0  0  0
   -1.9778   -1.7750    2.4218 N   0  0  0  0  0  0  0  0  0  0  0  0
   -3.2832   -1.6210    2.5905 C   0  0  0  0  0  0  0  0  0  0  0  0
   -3.6670   -0.4600    1.9262 C   0  0  0  0  0  0  0  0  0  0  0  0
   -5.0268    0.0496    1.8926 C   0  0  0  0  0  0  0  0  0  0  0  0
   -6.0308   -0.6427    2.5156 C   0  0  0  0  0  0  0  0  0  0  0  0
   -7.3512   -0.1820    2.5205 C   0  0  0  0  0  0  0  0  0  0  0  0
   -7.6741    0.9969    1.8883 C   0  0  0  0  0  0  0  0  0  0  0  0
   -6.6695    1.6975    1.2603 C   0  0  0  0  0  0  0  0  0  0  0  0
   -5.3578    1.2196    1.2674 C   0  0  0  0  0  0  0  0  0  0  0  0
   -2.5431    0.0383    1.3761 N   0  0  0  0  0  0  0  0  0  0  0  0
   -2.4291    1.2208    0.5786 C   0  0  0  0  0  0  0  0  0  0  0  0
   -2.5465    1.0185   -0.8589 C   0  0  0  0  0  0  0  0  0  0  0  0
   -3.6876    1.0188   -1.6082 C   0  0  0  0  0  0  0  0  0  0  0  0
   -3.3092    0.7886   -2.9122 C   0  0  0  0  0  0  0  0  0  0  0  0
   -1.9397    0.6596   -2.8800 C   0  0  0  0  0  0  0  0  0  0  0  0
   -1.5459    0.8013   -1.6645 O   0  0  0  0  0  0  0  0  0  0  0  0
    5.0488    0.4973    0.1273 C   0  0  0  0  0  0  0  0  0  0  0  0
    6.3600    0.7059   -0.2533 C   0  0  0  0  0  0  0  0  0  0  0  0
  1  2  1  0
  2  3  1  0
  3  4  1  0
  4  5  2  0
  5  6  1  0
  6  7  2  0
  7  8  1  0
  8  9  1  0
  9 10  2  0
  9 11  1  0
 11 12  1  0
 12 13  1  0
 13 14  2  0
 14 15  1  0
 15 16  2  0
 16 17  1  0
 17 18  2  0
 18 19  1  0
 19 20  2  0
 20 21  1  0
 21 22  2  0
 16 23  1  0
 23 24  1  0
 24 25  1  0
 25 26  2  0
 26 27  1  0
 27 28  2  0
 28 29  1  0
  7 30  1  0
 30 31  2  0
 31  4  1  0
 23 13  1  0
 29 25  1  0
 22 17  1  0
M  END
>  <zinc_id>  (1) 
ZINC000000924743

>  <smiles>  (1) 
CCOc1ccc(NC(=O)CSc2ncc(-c3ccccc3)n2Cc2ccco2)cc1

$$$$
