
     RDKit          3D

 30 33  0  0  0  0  0  0  0  0999 V2000
   -6.0999    2.7834    1.3899 C   0  0  0  0  0  0  0  0  0  0  0  0
   -5.9503    1.2842    1.5856 C   0  0  0  0  0  0  0  0  0  0  0  0
   -4.7074    0.8891    1.0881 O   0  0  0  0  0  0  0  0  0  0  0  0
   -4.2407   -0.4056    1.1014 C   0  0  0  0  0  0  0  0  0  0  0  0
   -5.0396   -1.4035    1.6405 C   0  0  0  0  0  0  0  0  0  0  0  0
   -4.6392   -2.7191    1.6877 C   0  0  0  0  0  0  0  0  0  0  0  0
   -3.3964   -3.0650    1.1812 C   0  0  0  0  0  0  0  0  0  0  0  0
   -2.5707   -2.1009    0.6351 C   0  0  0  0  0  0  0  0  0  0  0  0
   -3.0134   -0.7797    0.6059 C   0  0  0  0  0  0  0  0  0  0  0  0
   -2.2027    0.2753    0.0363 N   0  0  0  0  0  0  0  0  0  0  0  0
   -0.9250   -0.0527   -0.5520 C   0  0  0  0  0  0  0  0  0  0  0  0
   -0.6158   -1.2260   -0.5193 O   0  0  0  0  0  0  0  0  0  0  0  0
   -0.0697    1.0298   -1.1645 C   0  0  0  0  0  0  0  0  0  0  0  0
    1.1622    0.7336   -1.6556 C   0  0  0  0  0  0  0  0  0  0  0  0
    2.1238   -0.2805   -1.5036 N   0  0  0  0  0  0  0  0  0  0  0  0
    2.4646   -1.2279   -0.6098 C   0  0  0  0  0  0  0  0  0  0  0  0
    1.8589   -1.3317    0.4768 O   0  0  0  0  0  0  0  0  0  0  0  0
    3.5785   -2.2389   -0.8066 C   0  0  0  0  0  0  0  0  0  0  0  0
    4.7153   -1.9204    0.1257 C   0  0  0  0  0  0  0  0  0  0  0  0
    4.7100   -2.2218    1.4584 C   0  0  0  0  0  0  0  0  0  0  0  0
    5.8002   -1.9452    2.2930 C   0  0  0  0  0  0  0  0  0  0  0  0
    6.9209   -1.3448    1.7429 C   0  0  0  0  0  0  0  0  0  0  0  0
    6.9497   -1.0272    0.3908 C   0  0  0  0  0  0  0  0  0  0  0  0
    5.8695   -1.3114   -0.3891 C   0  0  0  0  0  0  0  0  0  0  0  0
    1.5626    2.2422   -2.4956 S   0  0  0  0  0  0  0  0  0  0  0  0
    0.1669    3.1217   -2.1599 C   0  0  0  0  0  0  0  0  0  0  0  0
   -0.5841    2.2688   -1.4211 C   0  0  0  0  0  0  0  0  0  0  0  0
   -1.8629    3.0412   -1.0799 C   0  0  0  0  0  0  0  0  0  0  0  0
   -1.4333    4.4825   -1.1520 C   0  0  0  0  0  0  0  0  0  0  0  0
   -0.5322    4.4504   -2.3611 C   0  0  0  0  0  0  0  0  0  0  0  0
  1  2  1  0
  2  3  1  0
  3  4  1  0
  4  5  2  0
  5  6  1  0
  6  7  2  0
  7  8  1  0
  8  9  2  0
  9 10  1  0
 10 11  1  0
 11 12  2  0
 11 13  1  0
 13 14  2  0
 14 15  1  0
 15 16  1  0
 16 17  2  0
 16 18  1  0
 18 19  1  0
 19 20  2  0
 20 21  1  0
 21 22  2  0
 22 23  1  0
 23 24  2  0
 14 25  1  0
 25 26  1  0
 26 27  2  0
 27 28  1  0
 28 29  1  0
 29 30  1  0
  9  4  1  0
 27 13  1  0
 24 19  1  0
 30 26  1  0
M  END
>  <zinc_id>  (1) 
ZINC000001214072

>  <smiles>  (1) 
CCOc1ccccc1NC(=O)c1c(NC(=O)Cc2ccccc2)sc2c1CCC2

$$$$
