
     RDKit          3D

 30 32  0  0  0  0  0  0  0  0999 V2000
    4.2100   -1.3394   -2.2501 C   0  0  0  0  0  0  0  0  0  0  0  0
    4.7075    0.0459   -1.9132 C   0  0  0  0  0  0  0  0  0  0  0  0
    4.9761    0.1413   -0.4374 C   0  0  0  0  0  0  0  0  0  0  0  0
    6.2698    0.1138    0.0524 C   0  0  0  0  0  0  0  0  0  0  0  0
    6.4774    0.2045    1.4066 C   0  0  0  0  0  0  0  0  0  0  0  0
    5.3949    0.3212    2.2503 C   0  0  0  0  0  0  0  0  0  0  0  0
    4.0938    0.3475    1.7373 C   0  0  0  0  0  0  0  0  0  0  0  0
    2.9021    0.4733    2.6208 C   0  0  0  0  0  0  0  0  0  0  0  0
    3.8702    0.2573    0.3806 C   0  0  0  0  0  0  0  0  0  0  0  0
    2.5598    0.2772   -0.1765 N   0  0  0  0  0  0  0  0  0  0  0  0
    1.8994    1.4716   -0.5841 C   0  0  0  0  0  0  0  0  0  0  0  0
    2.5290    2.5489   -0.4332 O   0  0  0  0  0  0  0  0  0  0  0  0
    0.5570    1.5246   -1.1577 C   0  0  0  0  0  0  0  0  0  0  0  0
   -0.0721    0.2860   -1.2790 O   0  0  0  0  0  0  0  0  0  0  0  0
   -1.3446    0.2547   -1.8251 C   0  0  0  0  0  0  0  0  0  0  0  0
   -1.9100    1.2880   -2.1960 O   0  0  0  0  0  0  0  0  0  0  0  0
   -2.1096   -1.0490   -1.9968 C   0  0  2  0  0  0  0  0  0  0  0  0
   -3.8773   -0.3911   -2.0692 S   0  0  0  0  0  0  0  0  0  0  0  0
   -4.3579    0.3174   -0.5395 C   0  0  0  0  0  0  0  0  0  0  0  0
   -4.9580   -0.4093    0.4438 C   0  0  0  0  0  0  0  0  0  0  0  0
   -5.3236    0.2064    1.6419 C   0  0  0  0  0  0  0  0  0  0  0  0
   -5.0913    1.5408    1.8578 C   0  0  0  0  0  0  0  0  0  0  0  0
   -4.4885    2.2756    0.8728 C   0  0  0  0  0  0  0  0  0  0  0  0
   -4.1383    1.6513   -0.2946 C   0  0  0  0  0  0  0  0  0  0  0  0
   -2.1153   -1.5393   -0.5223 C   0  0  0  0  0  0  0  0  0  0  0  0
   -1.9636   -0.7216    0.5282 C   0  0  0  0  0  0  0  0  0  0  0  0
   -1.9724   -1.2080    1.8168 C   0  0  0  0  0  0  0  0  0  0  0  0
   -2.1420   -2.5689    2.0209 C   0  0  0  0  0  0  0  0  0  0  0  0
   -2.2991   -3.4255    0.9630 C   0  0  0  0  0  0  0  0  0  0  0  0
   -2.2836   -2.8950   -0.3069 C   0  0  0  0  0  0  0  0  0  0  0  0
  1  2  1  0
  2  3  1  0
  3  4  2  0
  4  5  1  0
  5  6  2  0
  6  7  1  0
  7  8  1  0
  7  9  2  0
  9 10  1  0
 10 11  1  0
 11 12  2  0
 11 13  1  0
 13 14  1  0
 14 15  1  0
 15 16  2  0
 17 15  1  1
 17 18  1  0
 18 19  1  0
 19 20  2  0
 20 21  1  0
 21 22  2  0
 22 23  1  0
 23 24  2  0
 17 25  1  0
 25 26  2  0
 26 27  1  0
 27 28  2  0
 28 29  1  0
 29 30  2  0
  9  3  1  0
 24 19  1  0
 30 25  1  0
M  END
>  <zinc_id>  (1) 
ZINC000003273346

>  <smiles>  (1) 
CCc1cccc(C)c1NC(=O)COC(=O)[C@H](Sc1ccccc1)c1ccccc1

$$$$
