
     RDKit          3D

 31 34  0  0  0  0  0  0  0  0999 V2000
    8.7485    0.4430    1.1227 C   0  0  0  0  0  0  0  0  0  0  0  0
    8.4957    1.9243    1.0210 C   0  0  0  0  0  0  0  0  0  0  0  0
    7.4262    2.1755    0.1288 O   0  0  0  0  0  0  0  0  0  0  0  0
    6.1452    1.6627    0.3517 C   0  0  0  0  0  0  0  0  0  0  0  0
    5.8261    0.8848    1.4393 C   0  0  0  0  0  0  0  0  0  0  0  0
    4.5289    0.3939    1.6199 C   0  0  0  0  0  0  0  0  0  0  0  0
    3.5320    0.6773    0.7101 C   0  0  0  0  0  0  0  0  0  0  0  0
    2.2334    0.1500    0.9478 N   0  0  0  0  0  0  0  0  0  0  0  0
    1.1226    0.3464    0.1235 C   0  0  0  0  0  0  0  0  0  0  0  0
    1.2440    1.0376   -0.9175 O   0  0  0  0  0  0  0  0  0  0  0  0
   -0.2001   -0.2112    0.3985 C   0  0  0  0  0  0  0  0  0  0  0  0
   -1.2828   -0.0148   -0.4129 C   0  0  0  0  0  0  0  0  0  0  0  0
   -2.4772   -0.5965   -0.0406 C   0  0  0  0  0  0  0  0  0  0  0  0
   -3.6660   -0.4113   -0.8831 C   0  0  0  0  0  0  0  0  0  0  0  0
   -3.6353    0.3265   -2.0401 C   0  0  0  0  0  0  0  0  0  0  0  0
   -4.7816    0.4760   -2.8063 C   0  0  0  0  0  0  0  0  0  0  0  0
   -5.9834   -0.0991   -2.4476 C   0  0  0  0  0  0  0  0  0  0  0  0
   -7.1439    0.0506   -3.2207 O   0  0  0  0  0  0  0  0  0  0  0  0
   -7.0797    0.8134   -4.4021 C   0  0  0  0  0  0  0  0  0  0  0  0
   -6.0435    0.1329   -5.3020 C   0  0  0  0  0  0  0  0  0  0  0  0
   -6.0024   -0.8384   -1.2829 C   0  0  0  0  0  0  0  0  0  0  0  0
   -4.8615   -0.9878   -0.5194 C   0  0  0  0  0  0  0  0  0  0  0  0
   -2.5655   -1.3283    1.0804 N   0  0  0  0  0  0  0  0  0  0  0  0
   -1.5291   -1.5442    1.9014 C   0  0  0  0  0  0  0  0  0  0  0  0
   -1.6505   -2.3053    3.0537 C   0  0  0  0  0  0  0  0  0  0  0  0
   -0.5537   -2.4922    3.8566 C   0  0  0  0  0  0  0  0  0  0  0  0
    0.6593   -1.9264    3.5181 C   0  0  0  0  0  0  0  0  0  0  0  0
    0.7901   -1.1690    2.3759 C   0  0  0  0  0  0  0  0  0  0  0  0
   -0.3220   -0.9752    1.5551 C   0  0  0  0  0  0  0  0  0  0  0  0
    3.8718    1.4565   -0.3701 C   0  0  0  0  0  0  0  0  0  0  0  0
    5.1545    1.9485   -0.5592 C   0  0  0  0  0  0  0  0  0  0  0  0
  1  2  1  0
  2  3  1  0
  3  4  1  0
  4  5  2  0
  5  6  1  0
  6  7  2  0
  7  8  1  0
  8  9  1  0
  9 10  2  0
  9 11  1  0
 11 12  2  0
 12 13  1  0
 13 14  1  0
 14 15  2  0
 15 16  1  0
 16 17  2  0
 17 18  1  0
 18 19  1  0
 19 20  1  0
 17 21  1  0
 21 22  2  0
 13 23  2  0
 23 24  1  0
 24 25  2  0
 25 26  1  0
 26 27  2  0
 27 28  1  0
 28 29  2  0
  7 30  1  0
 30 31  2  0
 31  4  1  0
 29 11  1  0
 22 14  1  0
 29 24  1  0
M  END
>  <zinc_id>  (1) 
ZINC000000892325

>  <smiles>  (1) 
CCOc1ccc(NC(=O)c2cc(-c3ccc(OCC)cc3)nc3ccccc23)cc1

$$$$
