
     RDKit          3D

 31 34  0  0  0  0  0  0  0  0999 V2000
    6.0194   -2.8552    5.2887 C   0  0  0  0  0  0  0  0  0  0  0  0
    5.2414   -2.4394    6.5403 C   0  0  0  0  0  0  0  0  0  0  0  0
    5.0944   -1.0126    6.4848 O   0  0  0  0  0  0  0  0  0  0  0  0
    4.4157   -0.5063    5.3852 C   0  0  0  0  0  0  0  0  0  0  0  0
    3.8977   -1.3020    4.3818 C   0  0  0  0  0  0  0  0  0  0  0  0
    3.2275   -0.7656    3.3009 C   0  0  0  0  0  0  0  0  0  0  0  0
    3.0512    0.5977    3.1860 C   0  0  0  0  0  0  0  0  0  0  0  0
    2.3566    1.1723    2.0683 N   0  0  0  0  0  0  0  0  0  0  0  0
    2.6693    2.2998    1.4099 C   0  0  0  0  0  0  0  0  0  0  0  0
    3.8233    3.2025    1.7103 C   0  0  0  0  0  0  0  0  0  0  0  0
    1.7703    2.5258    0.3970 C   0  0  0  0  0  0  0  0  0  0  0  0
    0.8491    1.4758    0.4332 C   0  0  0  0  0  0  0  0  0  0  0  0
   -0.2976    1.2853   -0.4576 C   0  0  0  0  0  0  0  0  0  0  0  0
   -0.5146    2.1193   -1.3548 O   0  0  0  0  0  0  0  0  0  0  0  0
   -1.1416    0.0904   -0.2300 C   0  0  0  0  0  0  0  0  0  0  0  0
   -2.2082   -0.0049   -1.1270 O   0  0  0  0  0  0  0  0  0  0  0  0
   -2.0745   -0.0936   -2.5002 C   0  0  0  0  0  0  0  0  0  0  0  0
   -0.9074   -0.0871   -2.9619 O   0  0  0  0  0  0  0  0  0  0  0  0
   -3.2114   -0.1917   -3.4059 C   0  0  0  0  0  0  0  0  0  0  0  0
   -3.1083   -0.2812   -4.7778 C   0  0  0  0  0  0  0  0  0  0  0  0
   -4.3616   -0.3589   -5.3262 C   0  0  0  0  0  0  0  0  0  0  0  0
   -4.7764   -0.4610   -6.6371 C   0  0  0  0  0  0  0  0  0  0  0  0
   -6.1195   -0.5221   -6.8981 C   0  0  0  0  0  0  0  0  0  0  0  0
   -7.0141   -0.4807   -5.8593 C   0  0  0  0  0  0  0  0  0  0  0  0
   -6.5891   -0.3779   -4.5431 C   0  0  0  0  0  0  0  0  0  0  0  0
   -5.2253   -0.3140   -4.2495 C   0  0  0  0  0  0  0  0  0  0  0  0
   -4.5245   -0.2139   -3.1065 N   0  0  0  0  0  0  0  0  0  0  0  0
    1.2688    0.6841    1.4811 C   0  0  0  0  0  0  0  0  0  0  0  0
    0.5722   -0.5684    1.8927 C   0  0  0  0  0  0  0  0  0  0  0  0
    3.5712    1.3887    4.1922 C   0  0  0  0  0  0  0  0  0  0  0  0
    4.2459    0.8650    5.2826 C   0  0  0  0  0  0  0  0  0  0  0  0
  1  2  1  0
  2  3  1  0
  3  4  1  0
  4  5  2  0
  5  6  1  0
  6  7  2  0
  7  8  1  0
  8  9  1  0
  9 10  1  0
  9 11  2  0
 11 12  1  0
 12 13  1  0
 13 14  2  0
 13 15  1  0
 15 16  1  0
 16 17  1  0
 17 18  2  0
 17 19  1  0
 19 20  2  0
 20 21  1  0
 21 22  2  0
 22 23  1  0
 23 24  2  0
 24 25  1  0
 25 26  2  0
 26 27  1  0
 12 28  2  0
 28 29  1  0
  7 30  1  0
 30 31  2  0
 31  4  1  0
 28  8  1  0
 27 19  1  0
 26 21  1  0
M  END
>  <zinc_id>  (1) 
ZINC000004510086

>  <smiles>  (1) 
CCOc1ccc(-n2c(C)cc(C(=O)COC(=O)c3cc4ccccc4[nH]3)c2C)cc1

$$$$
