
     RDKit          3D

 32 36  0  0  0  0  0  0  0  0999 V2000
   -5.8487   -1.5162   -0.9890 C   0  0  0  0  0  0  0  0  0  0  0  0
   -6.1277   -0.1051   -0.5700 C   0  0  0  0  0  0  0  0  0  0  0  0
   -7.0237    0.6476   -1.3418 C   0  0  0  0  0  0  0  0  0  0  0  0
   -7.2809    1.9416   -0.9571 C   0  0  0  0  0  0  0  0  0  0  0  0
   -6.6805    2.4825    0.1491 C   0  0  0  0  0  0  0  0  0  0  0  0
   -5.8088    1.7173    0.8823 C   0  0  0  0  0  0  0  0  0  0  0  0
   -5.5150    0.4235    0.5446 C   0  0  0  0  0  0  0  0  0  0  0  0
   -4.5380   -0.3855    1.3416 C   0  0  0  0  0  0  0  0  0  0  0  0
   -3.2531   -0.4057    0.6388 N   0  0  0  0  0  0  0  0  0  0  0  0
   -2.8661   -1.2951   -0.2570 C   0  0  0  0  0  0  0  0  0  0  0  0
   -1.6106   -0.9453   -0.6835 C   0  0  0  0  0  0  0  0  0  0  0  0
   -0.6251   -1.7952   -1.8806 S   0  0  0  0  0  0  0  0  0  0  0  0
    0.4949   -3.0184   -1.1661 C   0  0  0  0  0  0  0  0  0  0  0  0
    1.5390   -2.3868   -0.3337 C   0  0  0  0  0  0  0  0  0  0  0  0
    1.4098   -2.3429    0.9009 O   0  0  0  0  0  0  0  0  0  0  0  0
    2.6764   -1.8357   -0.9406 N   0  0  0  0  0  0  0  0  0  0  0  0
    3.7082   -1.2141   -0.2223 C   0  0  0  0  0  0  0  0  0  0  0  0
    3.7924   -1.0819    1.1402 C   0  0  0  0  0  0  0  0  0  0  0  0
    4.8717   -0.4331    1.6993 C   0  0  0  0  0  0  0  0  0  0  0  0
    5.8741    0.0903    0.9095 C   0  0  0  0  0  0  0  0  0  0  0  0
    5.8106   -0.0306   -0.4583 C   0  0  0  0  0  0  0  0  0  0  0  0
    4.7321   -0.6791   -0.9936 C   0  0  0  0  0  0  0  0  0  0  0  0
    6.8506    0.5178   -1.1890 O   0  0  0  0  0  0  0  0  0  0  0  0
    7.6324    1.6001   -0.6429 C   0  0  0  0  0  0  0  0  0  0  0  0
    8.0070    1.3541    0.7846 C   0  0  0  0  0  0  0  0  0  0  0  0
    6.9687    0.7484    1.4817 O   0  0  0  0  0  0  0  0  0  0  0  0
   -1.2582    0.2076    0.0071 C   0  0  0  0  0  0  0  0  0  0  0  0
   -0.1432    1.0126    0.0088 C   0  0  0  0  0  0  0  0  0  0  0  0
   -0.0859    2.1143    0.8244 C   0  0  0  0  0  0  0  0  0  0  0  0
   -1.1440    2.4353    1.6566 C   0  0  0  0  0  0  0  0  0  0  0  0
   -2.2560    1.6387    1.6601 C   0  0  0  0  0  0  0  0  0  0  0  0
   -2.3025    0.5389    0.8403 C   0  0  0  0  0  0  0  0  0  0  0  0
  1  2  1  0
  2  3  2  0
  3  4  1  0
  4  5  2  0
  5  6  1  0
  6  7  2  0
  7  8  1  0
  8  9  1  0
  9 10  1  0
 10 11  2  0
 11 12  1  0
 12 13  1  0
 13 14  1  0
 14 15  2  0
 14 16  1  0
 16 17  1  0
 17 18  2  0
 18 19  1  0
 19 20  2  0
 20 21  1  0
 21 22  2  0
 21 23  1  0
 23 24  1  0
 24 25  1  0
 25 26  1  0
 11 27  1  0
 27 28  2  0
 28 29  1  0
 29 30  2  0
 30 31  1  0
 31 32  2  0
  7  2  1  0
 32  9  1  0
 22 17  1  0
 32 27  1  0
 26 20  1  0
M  END
>  <zinc_id>  (1) 
ZINC000003581683

>  <smiles>  (1) 
Cc1ccccc1Cn1cc(SCC(=O)Nc2ccc3c(c2)OCCO3)c2ccccc21

$$$$
