
     RDKit          3D

 31 34  0  0  0  0  0  0  0  0999 V2000
    7.7941    1.0908    1.0249 C   0  0  0  0  0  0  0  0  0  0  0  0
    7.6810    1.8831   -0.2671 C   0  0  0  0  0  0  0  0  0  0  0  0
    6.4119    2.5057   -0.3027 O   0  0  0  0  0  0  0  0  0  0  0  0
    5.2722    1.7457   -0.2648 C   0  0  0  0  0  0  0  0  0  0  0  0
    5.3113    0.3740   -0.1918 C   0  0  0  0  0  0  0  0  0  0  0  0
    4.1944   -0.4041   -0.1528 C   0  0  0  0  0  0  0  0  0  0  0  0
    2.8977    0.1600   -0.1857 C   0  0  0  0  0  0  0  0  0  0  0  0
    1.7909   -0.6660   -0.1442 N   0  0  0  0  0  0  0  0  0  0  0  0
    0.4363   -0.3255   -0.1667 C   0  0  0  0  0  0  0  0  0  0  0  0
   -0.5124   -1.2888   -0.1144 C   0  0  0  0  0  0  0  0  0  0  0  0
   -0.1313   -3.0062   -0.0163 S   0  0  0  0  0  0  0  0  0  0  0  0
   -1.5200   -4.0779    0.0497 C   0  0  0  0  0  0  0  0  0  0  0  0
   -2.8394   -3.7381    0.0351 C   0  0  0  0  0  0  0  0  0  0  0  0
   -3.8851   -4.6330    0.0901 C   0  0  0  0  0  0  0  0  0  0  0  0
   -3.6038   -5.9974    0.1671 C   0  0  0  0  0  0  0  0  0  0  0  0
   -2.2960   -6.3634    0.1833 C   0  0  0  0  0  0  0  0  0  0  0  0
   -1.2634   -5.4574    0.1276 C   0  0  0  0  0  0  0  0  0  0  0  0
   -1.7797   -0.6130   -0.1554 C   0  0  0  0  0  0  0  0  0  0  0  0
   -2.9291   -1.1250   -0.1290 O   0  0  0  0  0  0  0  0  0  0  0  0
   -1.5881    0.7960   -0.2344 N   0  0  0  0  0  0  0  0  0  0  0  0
   -2.5526    1.8282   -0.2948 C   0  0  0  0  0  0  0  0  0  0  0  0
   -2.6405    2.7725    0.7066 C   0  0  0  0  0  0  0  0  0  0  0  0
   -3.5678    3.7942    0.6808 C   0  0  0  0  0  0  0  0  0  0  0  0
   -4.4508    3.9022   -0.3682 C   0  0  0  0  0  0  0  0  0  0  0  0
   -5.4643    5.0072   -0.4110 C   0  0  0  0  0  0  0  0  0  0  0  0
   -4.3851    2.9730   -1.3812 C   0  0  0  0  0  0  0  0  0  0  0  0
   -3.4427    1.9476   -1.3397 C   0  0  0  0  0  0  0  0  0  0  0  0
   -0.1790    0.9632   -0.2407 C   0  0  0  0  0  0  0  0  0  0  0  0
    0.3533    2.1200   -0.3048 O   0  0  0  0  0  0  0  0  0  0  0  0
    2.8850    1.5304   -0.2585 C   0  0  0  0  0  0  0  0  0  0  0  0
    4.0029    2.3021   -0.2972 C   0  0  0  0  0  0  0  0  0  0  0  0
  1  2  1  0
  2  3  1  0
  3  4  1  0
  4  5  2  0
  5  6  1  0
  6  7  2  0
  7  8  1  0
  8  9  1  0
  9 10  2  0
 10 11  1  0
 11 12  1  0
 12 13  2  0
 13 14  1  0
 14 15  2  0
 15 16  1  0
 16 17  2  0
 10 18  1  0
 18 19  2  0
 18 20  1  0
 20 21  1  0
 21 22  2  0
 22 23  1  0
 23 24  2  0
 24 25  1  0
 24 26  1  0
 26 27  2  0
 20 28  1  0
 28 29  2  0
  7 30  1  0
 30 31  2  0
 31  4  1  0
 28  9  1  0
 17 12  1  0
 27 21  1  0
M  END
>  <zinc_id>  (1) 
ZINC000001929101

>  <smiles>  (1) 
CCOc1ccc(NC2=C(Sc3ccccc3)C(=O)N(c3ccc(C)cc3)C2=O)cc1

$$$$
