
     RDKit          3D

 32 35  0  0  0  0  0  0  0  0999 V2000
   -4.2858    4.4136    0.9845 C   0  0  0  0  0  0  0  0  0  0  0  0
   -4.3320    3.6479   -0.3284 C   0  0  0  0  0  0  0  0  0  0  0  0
   -5.8206    3.5548   -0.6769 C   0  0  0  0  0  0  0  0  0  0  0  0
   -3.8571    2.2400   -0.0882 C   0  0  0  0  0  0  0  0  0  0  0  0
   -2.7235    1.9616    0.6352 C   0  0  0  0  0  0  0  0  0  0  0  0
   -2.3264    0.6463    0.8302 C   0  0  0  0  0  0  0  0  0  0  0  0
   -2.9845   -0.3881    0.3524 C   0  0  0  0  0  0  0  0  0  0  0  0
   -2.5948   -1.9112    0.5305 C   0  0  2  0  0  0  0  0  0  0  0  0
   -2.2623   -1.9069    1.9825 O   0  0  0  0  0  0  0  0  0  0  0  0
   -1.4108   -3.0047    1.9290 N   0  0  0  0  0  0  0  0  0  0  0  0
   -0.4374   -2.4935    0.9677 C   0  0  0  0  0  0  0  0  0  0  0  0
    1.0011   -2.7469    0.9547 C   0  0  0  0  0  0  0  0  0  0  0  0
    1.7312   -3.1225   -0.1500 C   0  0  0  0  0  0  0  0  0  0  0  0
    3.1032   -3.3425   -0.1088 C   0  0  0  0  0  0  0  0  0  0  0  0
    3.8022   -3.1897    1.0682 C   0  0  0  0  0  0  0  0  0  0  0  0
    3.0916   -2.8164    2.1800 C   0  0  0  0  0  0  0  0  0  0  0  0
    1.7362   -2.6061    2.1088 C   0  0  0  0  0  0  0  0  0  0  0  0
   -1.0650   -1.7946    0.0629 C   0  0  0  0  0  0  0  0  0  0  0  0
   -0.6154   -1.0673   -1.0624 C   0  0  0  0  0  0  0  0  0  0  0  0
   -1.4517   -0.4756   -1.7801 O   0  0  0  0  0  0  0  0  0  0  0  0
    0.7233   -0.9832   -1.4017 N   0  0  0  0  0  0  0  0  0  0  0  0
    1.3221   -0.3018   -2.4836 C   0  0  0  0  0  0  0  0  0  0  0  0
    1.1597    1.1574   -2.5797 C   0  0  0  0  0  0  0  0  0  0  0  0
    1.6595    1.9004   -1.5008 O   0  0  0  0  0  0  0  0  0  0  0  0
    2.9591    1.9129   -1.0724 C   0  0  0  0  0  0  0  0  0  0  0  0
    3.8799    1.1380   -1.7321 C   0  0  0  0  0  0  0  0  0  0  0  0
    5.1855    1.1874   -1.2564 C   0  0  0  0  0  0  0  0  0  0  0  0
    5.5540    1.9536   -0.1964 C   0  0  0  0  0  0  0  0  0  0  0  0
    4.6247    2.7327    0.4669 C   0  0  0  0  0  0  0  0  0  0  0  0
    3.3204    2.6878   -0.0040 C   0  0  0  0  0  0  0  0  0  0  0  0
   -4.1292   -0.1514   -0.3805 C   0  0  0  0  0  0  0  0  0  0  0  0
   -4.5572    1.1680   -0.5950 C   0  0  0  0  0  0  0  0  0  0  0  0
  1  2  1  0
  2  3  1  0
  2  4  1  0
  4  5  2  0
  5  6  1  0
  6  7  2  0
  8  7  1  1
  8  9  1  0
  9 10  1  0
 10 11  1  0
 11 12  1  0
 12 13  2  0
 13 14  1  0
 14 15  2  0
 15 16  1  0
 16 17  2  0
 11 18  2  0
 18 19  1  0
 19 20  2  0
 19 21  1  0
 21 22  1  0
 22 23  1  0
 23 24  1  0
 24 25  1  0
 25 26  2  0
 26 27  1  0
 27 28  2  0
 28 29  1  0
 29 30  2  0
  7 31  1  0
 31 32  2  0
 32  4  1  0
 18  8  1  0
 30 25  1  0
 17 12  1  0
M  END
>  <zinc_id>  (1) 
ZINC000002459811

>  <smiles>  (1) 
CC(C)c1ccc([C@@H]2ONC(c3ccccc3)=C2C(=O)NCCOc2ccccc2)cc1

$$$$
