
     RDKit          3D

 32 35  0  0  0  0  0  0  0  0999 V2000
   -6.9833    0.2058   -0.6783 C   0  0  0  0  0  0  0  0  0  0  0  0
   -5.6030    0.4038   -0.6591 O   0  0  0  0  0  0  0  0  0  0  0  0
   -5.0511    1.6849   -0.7336 C   0  0  0  0  0  0  0  0  0  0  0  0
   -5.9151    2.7792   -0.8290 C   0  0  0  0  0  0  0  0  0  0  0  0
   -5.3895    4.0501   -0.9035 C   0  0  0  0  0  0  0  0  0  0  0  0
   -4.0319    4.2602   -0.8857 C   0  0  0  0  0  0  0  0  0  0  0  0
   -3.1943    3.1458   -0.7895 C   0  0  0  0  0  0  0  0  0  0  0  0
   -3.6945    1.8722   -0.7143 C   0  0  0  0  0  0  0  0  0  0  0  0
   -2.8355    0.7546   -0.6174 N   0  0  0  0  0  0  0  0  0  0  0  0
   -1.4372    0.8132   -0.5882 C   0  0  0  0  0  0  0  0  0  0  0  0
   -0.8722    1.9186   -0.6503 O   0  0  0  0  0  0  0  0  0  0  0  0
   -0.6555   -0.4354   -0.4842 C   0  0  0  0  0  0  0  0  0  0  0  0
    0.7175   -0.3781   -0.4554 C   0  0  0  0  0  0  0  0  0  0  0  0
    1.5705    0.7642   -0.5132 N   0  0  0  0  0  0  0  0  0  0  0  0
    2.9962    0.5623   -0.4654 C   0  0  0  0  0  0  0  0  0  0  0  0
    3.3980   -0.6248   -0.3747 O   0  0  0  0  0  0  0  0  0  0  0  0
    3.9578    1.6628   -0.5177 C   0  0  0  0  0  0  0  0  0  0  0  0
    5.2667    1.1406   -0.4491 O   0  0  0  0  0  0  0  0  0  0  0  0
    5.7637    0.3959    0.5926 C   0  0  0  0  0  0  0  0  0  0  0  0
    7.0789   -0.0351    0.4868 C   0  0  0  0  0  0  0  0  0  0  0  0
    7.6885   -0.7886    1.4674 C   0  0  0  0  0  0  0  0  0  0  0  0
    6.9689   -1.1270    2.5928 C   0  0  0  0  0  0  0  0  0  0  0  0
    5.6632   -0.7042    2.7073 C   0  0  0  0  0  0  0  0  0  0  0  0
    5.0644    0.0484    1.7210 C   0  0  0  0  0  0  0  0  0  0  0  0
    1.1739   -2.0119   -0.3329 S   0  0  0  0  0  0  0  0  0  0  0  0
   -0.3704   -2.7343   -0.3203 C   0  0  0  0  0  0  0  0  0  0  0  0
   -1.2082   -1.6565   -0.4139 C   0  0  0  0  0  0  0  0  0  0  0  0
   -2.7150   -1.8632   -0.4356 C   0  0  0  0  0  0  0  0  0  0  0  0
   -3.1075   -2.3827    0.9365 C   0  0  0  0  0  0  0  0  0  0  0  0
   -1.9528   -3.0982    1.6101 C   0  0  0  0  0  0  0  0  0  0  0  0
   -1.6256   -4.4112    0.9232 C   0  0  0  0  0  0  0  0  0  0  0  0
   -0.6661   -4.2113   -0.2264 C   0  0  0  0  0  0  0  0  0  0  0  0
  1  2  1  0
  2  3  1  0
  3  4  2  0
  4  5  1  0
  5  6  2  0
  6  7  1  0
  7  8  2  0
  8  9  1  0
  9 10  1  0
 10 11  2  0
 10 12  1  0
 12 13  2  0
 13 14  1  0
 14 15  1  0
 15 16  2  0
 15 17  1  0
 17 18  1  0
 18 19  1  0
 19 20  2  0
 20 21  1  0
 21 22  2  0
 22 23  1  0
 23 24  2  0
 13 25  1  0
 25 26  1  0
 26 27  2  0
 27 28  1  0
 28 29  1  0
 29 30  1  0
 30 31  1  0
 31 32  1  0
  8  3  1  0
 27 12  1  0
 24 19  1  0
 32 26  1  0
M  END
>  <zinc_id>  (1) 
ZINC000001209633

>  <smiles>  (1) 
COc1ccccc1NC(=O)c1c(NC(=O)COc2ccccc2)sc2c1CCCCC2

$$$$
