
     RDKit          3D

 31 35  0  0  0  0  0  0  0  0999 V2000
   -0.5512   -2.5713    1.8369 N   0  0  0  0  0  0  0  0  0  0  0  0
   -1.0186   -1.3027    1.3722 C   0  0  0  0  0  0  0  0  0  0  0  0
   -0.1958   -0.2752    0.9926 C   0  0  0  0  0  0  0  0  0  0  0  0
    1.2745   -0.2715    0.9872 C   0  0  0  0  0  0  0  0  0  0  0  0
    1.9110   -1.2892    1.3593 O   0  0  0  0  0  0  0  0  0  0  0  0
    2.0141    0.8636    0.5683 N   0  0  0  0  0  0  0  0  0  0  0  0
    3.4447    0.8194    0.5806 C   0  0  0  0  0  0  0  0  0  0  0  0
    3.8766   -0.3183   -0.3529 C   0  0  0  0  0  0  0  0  0  0  0  0
    5.3567   -0.4262   -0.3920 C   0  0  0  0  0  0  0  0  0  0  0  0
    5.9070   -1.5638   -0.0060 C   0  0  0  0  0  0  0  0  0  0  0  0
    7.3731   -1.8038    0.0038 C   0  0  0  0  0  0  0  0  0  0  0  0
    8.0901   -0.4597    0.1361 C   0  0  0  0  0  0  0  0  0  0  0  0
    7.6042    0.5203   -0.8821 C   0  0  0  0  0  0  0  0  0  0  0  0
    6.1279    0.7498   -0.8620 C   0  0  0  0  0  0  0  0  0  0  0  0
   -1.0143    0.7658    0.6124 C   0  0  0  0  0  0  0  0  0  0  0  0
   -0.7980    1.9939    0.1607 N   0  0  0  0  0  0  0  0  0  0  0  0
   -1.8197    2.8260   -0.1422 C   0  0  0  0  0  0  0  0  0  0  0  0
   -1.5696    4.0967   -0.6097 C   0  0  0  0  0  0  0  0  0  0  0  0
   -2.6418    4.9294   -0.9126 C   0  0  0  0  0  0  0  0  0  0  0  0
   -3.9485    4.5102   -0.7551 C   0  0  0  0  0  0  0  0  0  0  0  0
   -4.1586    3.2343   -0.2859 C   0  0  0  0  0  0  0  0  0  0  0  0
   -3.1085    2.3713    0.0283 C   0  0  0  0  0  0  0  0  0  0  0  0
   -3.3558    1.1244    0.4870 N   0  0  0  0  0  0  0  0  0  0  0  0
   -2.3175    0.3206    0.7794 C   0  0  0  0  0  0  0  0  0  0  0  0
   -2.3111   -0.9407    1.2427 N   0  0  0  0  0  0  0  0  0  0  0  0
   -3.4242   -1.8147    1.5668 C   0  0  0  0  0  0  0  0  0  0  0  0
   -3.8286   -2.6085    0.3796 C   0  0  0  0  0  0  0  0  0  0  0  0
   -4.7663   -2.2380   -0.5624 C   0  0  0  0  0  0  0  0  0  0  0  0
   -4.8422   -3.2519   -1.4936 C   0  0  0  0  0  0  0  0  0  0  0  0
   -3.9390   -4.2056   -1.0749 C   0  0  0  0  0  0  0  0  0  0  0  0
   -3.3706   -3.7845    0.0250 O   0  0  0  0  0  0  0  0  0  0  0  0
  1  2  1  0
  2  3  2  0
  3  4  1  0
  4  5  2  0
  4  6  1  0
  6  7  1  0
  7  8  1  0
  8  9  1  0
  9 10  2  0
 10 11  1  0
 11 12  1  0
 12 13  1  0
 13 14  1  0
  3 15  1  0
 15 16  2  0
 16 17  1  0
 17 18  2  0
 18 19  1  0
 19 20  2  0
 20 21  1  0
 21 22  2  0
 22 23  1  0
 23 24  2  0
 24 25  1  0
 25 26  1  0
 26 27  1  0
 27 28  2  0
 28 29  1  0
 29 30  2  0
 30 31  1  0
 25  2  1  0
 31 27  1  0
 14  9  1  0
 24 15  1  0
 22 17  1  0
M  END
>  <zinc_id>  (1) 
ZINC000002291404

>  <smiles>  (1) 
Nc1c(C(=O)NCCC2=CCCCC2)c2nc3ccccc3nc2n1Cc1ccco1

$$$$
