
     RDKit          3D

 32 35  0  0  0  0  0  0  0  0999 V2000
    7.8660   -0.4076    2.3604 C   0  0  0  0  0  0  0  0  0  0  0  0
    6.8520   -0.8215    1.3296 C   0  0  0  0  0  0  0  0  0  0  0  0
    5.6187   -0.1531    1.4931 O   0  0  0  0  0  0  0  0  0  0  0  0
    4.5995   -0.4495    0.6017 C   0  0  0  0  0  0  0  0  0  0  0  0
    3.4017    0.2287    0.7957 C   0  0  0  0  0  0  0  0  0  0  0  0
    2.3594   -0.0345   -0.0678 C   0  0  0  0  0  0  0  0  0  0  0  0
    2.4751   -0.9379   -1.1000 C   0  0  0  0  0  0  0  0  0  0  0  0
    1.3662   -1.1923   -1.9875 N   0  0  0  0  0  0  0  0  0  0  0  0
    0.1472   -0.4749   -1.7573 C   0  0  0  0  0  0  0  0  0  0  0  0
   -0.8484   -0.8755   -0.9298 C   0  0  0  0  0  0  0  0  0  0  0  0
   -0.7257   -2.3879   -0.0192 S   0  0  0  0  0  0  0  0  0  0  0  0
   -2.1219   -2.7277    0.9970 C   0  0  0  0  0  0  0  0  0  0  0  0
   -2.0962   -3.9100    1.7490 C   0  0  0  0  0  0  0  0  0  0  0  0
   -3.1579   -4.2146    2.5517 C   0  0  0  0  0  0  0  0  0  0  0  0
   -4.2712   -3.4312    2.6784 C   0  0  0  0  0  0  0  0  0  0  0  0
   -5.4421   -3.7159    3.5305 C   0  0  0  0  0  0  0  0  0  0  0  0
   -4.2659   -2.2635    1.9183 C   0  0  0  0  0  0  0  0  0  0  0  0
   -3.2218   -1.9426    1.1150 C   0  0  0  0  0  0  0  0  0  0  0  0
   -1.9000    0.1277   -0.9804 C   0  0  0  0  0  0  0  0  0  0  0  0
   -2.9913    0.1699   -0.3854 O   0  0  0  0  0  0  0  0  0  0  0  0
   -1.4764    1.1614   -1.8921 N   0  0  0  0  0  0  0  0  0  0  0  0
   -2.1932    2.3597   -2.2602 C   0  0  0  0  0  0  0  0  0  0  0  0
   -1.8110    3.4494   -1.3009 C   0  0  0  0  0  0  0  0  0  0  0  0
   -2.3479    4.7154   -1.4140 C   0  0  0  0  0  0  0  0  0  0  0  0
   -2.0002    5.7180   -0.5362 C   0  0  0  0  0  0  0  0  0  0  0  0
   -1.0988    5.4153    0.4581 C   0  0  0  0  0  0  0  0  0  0  0  0
   -0.5529    4.1633    0.5886 C   0  0  0  0  0  0  0  0  0  0  0  0
   -0.9137    3.1814   -0.2963 C   0  0  0  0  0  0  0  0  0  0  0  0
   -0.2128    0.7871   -2.3702 C   0  0  0  0  0  0  0  0  0  0  0  0
    0.5325    1.4073   -3.1973 O   0  0  0  0  0  0  0  0  0  0  0  0
    3.6771   -1.5832   -1.2520 C   0  0  0  0  0  0  0  0  0  0  0  0
    4.7539   -1.3612   -0.4204 C   0  0  0  0  0  0  0  0  0  0  0  0
  1  2  1  0
  2  3  1  0
  3  4  1  0
  4  5  2  0
  5  6  1  0
  6  7  2  0
  7  8  1  0
  8  9  1  0
  9 10  2  0
 10 11  1  0
 11 12  1  0
 12 13  2  0
 13 14  1  0
 14 15  2  0
 15 16  1  0
 15 17  1  0
 17 18  2  0
 10 19  1  0
 19 20  2  0
 19 21  1  0
 21 22  1  0
 22 23  1  0
 23 24  2  0
 24 25  1  0
 25 26  2  0
 26 27  1  0
 27 28  2  0
 21 29  1  0
 29 30  2  0
  7 31  1  0
 31 32  2  0
 32  4  1  0
 29  9  1  0
 18 12  1  0
 28 23  1  0
M  END
>  <zinc_id>  (1) 
ZINC000001932158

>  <smiles>  (1) 
CCOc1ccc(NC2=C(Sc3ccc(C)cc3)C(=O)N(Cc3ccccc3)C2=O)cc1

$$$$
