
     RDKit          3D

 32 36  0  0  0  0  0  0  0  0999 V2000
    8.2521    0.0880    0.3753 C   0  0  0  0  0  0  0  0  0  0  0  0
    7.5765   -1.2013   -0.0705 C   0  0  0  0  0  0  0  0  0  0  0  0
    6.3514   -1.4190    0.5346 O   0  0  0  0  0  0  0  0  0  0  0  0
    5.2233   -0.6407    0.4969 C   0  0  0  0  0  0  0  0  0  0  0  0
    4.1035   -1.0572    1.1795 C   0  0  0  0  0  0  0  0  0  0  0  0
    2.9253   -0.3020    1.1759 C   0  0  0  0  0  0  0  0  0  0  0  0
    2.9066    0.8707    0.4740 C   0  0  0  0  0  0  0  0  0  0  0  0
    1.5902    1.7290    0.5172 C   0  0  1  0  0  0  0  0  0  0  0  0
    1.3888    1.8216   -1.0514 N   0  0  0  0  0  0  0  0  0  0  0  0
    0.1710    2.6367   -1.1572 C   0  0  0  0  0  0  0  0  0  0  0  0
   -1.0156    1.7856   -0.8423 C   0  0  0  0  0  0  0  0  0  0  0  0
   -0.6515    0.6429    0.0102 C   0  0  0  0  0  0  0  0  0  0  0  0
    0.5411    0.5586    0.6733 C   0  0  0  0  0  0  0  0  0  0  0  0
    0.5514   -0.5662    1.3395 N   0  0  0  0  0  0  0  0  0  0  0  0
   -0.6156   -1.2485    1.1396 C   0  0  0  0  0  0  0  0  0  0  0  0
   -1.0944   -2.4554    1.6006 C   0  0  0  0  0  0  0  0  0  0  0  0
   -2.3273   -2.8981    1.2243 C   0  0  0  0  0  0  0  0  0  0  0  0
   -3.1442   -2.1544    0.3666 C   0  0  0  0  0  0  0  0  0  0  0  0
   -4.3701   -2.6702    0.0366 O   0  0  0  0  0  0  0  0  0  0  0  0
   -5.2766   -2.0179   -0.8130 C   0  0  0  0  0  0  0  0  0  0  0  0
   -5.6349   -0.7148   -0.2228 C   0  0  0  0  0  0  0  0  0  0  0  0
   -5.0628    0.4133   -0.7598 C   0  0  0  0  0  0  0  0  0  0  0  0
   -5.3838    1.6618   -0.2210 C   0  0  0  0  0  0  0  0  0  0  0  0
   -6.2681    1.7460    0.8400 C   0  0  0  0  0  0  0  0  0  0  0  0
   -6.8129    0.6072    1.3424 C   0  0  0  0  0  0  0  0  0  0  0  0
   -6.5291   -0.6448    0.8472 C   0  0  0  0  0  0  0  0  0  0  0  0
   -2.6563   -0.9493   -0.0885 C   0  0  0  0  0  0  0  0  0  0  0  0
   -1.4138   -0.4934    0.2850 C   0  0  0  0  0  0  0  0  0  0  0  0
    3.9756    1.3369   -0.2200 C   0  0  0  0  0  0  0  0  0  0  0  0
    4.0365    2.5795   -1.0231 C   0  0  0  0  0  0  0  0  0  0  0  0
    3.5043    2.4135   -2.4017 C   0  0  0  0  0  0  0  0  0  0  0  0
    5.1593    0.5418   -0.1939 C   0  0  0  0  0  0  0  0  0  0  0  0
  1  2  1  0
  2  3  1  0
  3  4  1  0
  4  5  2  0
  5  6  1  0
  6  7  2  0
  8  7  1  1
  8  9  1  0
  9 10  1  0
 10 11  1  0
 11 12  1  0
 12 13  2  0
 13 14  1  0
 14 15  1  0
 15 16  2  0
 16 17  1  0
 17 18  2  0
 18 19  1  0
 19 20  1  0
 20 21  1  0
 21 22  2  0
 22 23  1  0
 23 24  2  0
 24 25  1  0
 25 26  2  0
 18 27  1  0
 27 28  2  0
  7 29  1  0
 29 30  1  0
 30 31  1  0
 29 32  2  0
 32  4  1  0
 13  8  1  0
 28 15  1  0
 28 12  1  0
 26 21  1  0
M  END
>  <zinc_id>  (1) 
ZINC000003737872

>  <smiles>  (1) 
CCOc1ccc([C@@H]2NCCc3c2[nH]c2ccc(OCc4ccccc4)cc32)c(CC)c1

$$$$
