
     RDKit          3D

 30 32  0  0  0  0  0  0  0  0999 V2000
    6.7557   -2.9422   -0.7116 C   0  0  0  0  0  0  0  0  0  0  0  0
    6.4501   -1.6723   -0.5223 C   0  0  0  0  0  0  0  0  0  0  0  0
    7.1313   -0.6225   -1.2791 C   0  0  0  0  0  0  0  0  0  0  0  0
    7.8828    0.3688   -0.4521 C   0  0  0  0  0  0  0  0  0  0  0  0
    8.9744   -0.2865    0.3821 C   0  0  0  0  0  0  0  0  0  0  0  0
    6.9771    1.1963    0.4359 C   0  0  0  0  0  0  0  0  0  0  0  0
    5.4381   -1.3417    0.4331 N   0  0  0  0  0  0  0  0  0  0  0  0
    4.0986   -1.1418    0.0198 N   0  0  0  0  0  0  0  0  0  0  0  0
    3.3253   -0.0242    0.3595 C   0  0  0  0  0  0  0  0  0  0  0  0
    3.8007    0.8709    1.0666 O   0  0  0  0  0  0  0  0  0  0  0  0
    1.9362    0.0659   -0.1388 C   0  0  0  0  0  0  0  0  0  0  0  0
    1.1033    1.0942    0.1867 C   0  0  0  0  0  0  0  0  0  0  0  0
   -0.1971    1.1577   -0.3033 C   0  0  0  0  0  0  0  0  0  0  0  0
   -0.6754    0.1819   -1.1297 C   0  0  0  0  0  0  0  0  0  0  0  0
   -2.0332    0.1918   -1.6703 C   0  0  0  0  0  0  0  0  0  0  0  0
   -2.9286    0.8496   -1.0482 O   0  0  0  0  0  0  0  0  0  0  0  0
   -3.7703    1.6274   -0.4335 C   0  0  0  0  0  0  0  0  0  0  0  0
   -3.5832    2.9852   -0.2899 C   0  0  0  0  0  0  0  0  0  0  0  0
   -4.4602    3.8273    0.3517 C   0  0  0  0  0  0  0  0  0  0  0  0
   -5.6040    3.2410    0.8820 C   0  0  0  0  0  0  0  0  0  0  0  0
   -5.8114    1.8869    0.7513 C   0  0  0  0  0  0  0  0  0  0  0  0
   -4.9392    1.0507    0.1137 C   0  0  0  0  0  0  0  0  0  0  0  0
   -5.1304   -0.3860   -0.0234 C   0  0  0  0  0  0  0  0  0  0  0  0
   -6.3062   -0.9671   -0.4145 C   0  0  0  0  0  0  0  0  0  0  0  0
   -6.4274   -2.3514   -0.5305 C   0  0  0  0  0  0  0  0  0  0  0  0
   -5.3584   -3.2010   -0.2537 C   0  0  0  0  0  0  0  0  0  0  0  0
   -4.1855   -2.6182    0.1363 C   0  0  0  0  0  0  0  0  0  0  0  0
   -4.0614   -1.2519    0.2523 C   0  0  0  0  0  0  0  0  0  0  0  0
    0.1564   -0.8647   -1.4675 C   0  0  0  0  0  0  0  0  0  0  0  0
    1.4421   -0.9242   -0.9812 C   0  0  0  0  0  0  0  0  0  0  0  0
  1  2  2  0
  2  3  1  0
  3  4  1  0
  4  5  1  0
  4  6  1  0
  2  7  1  0
  7  8  1  0
  8  9  1  0
  9 10  2  0
  9 11  1  0
 11 12  2  0
 12 13  1  0
 13 14  2  0
 14 15  1  0
 15 16  1  0
 16 17  1  0
 17 18  2  0
 18 19  1  0
 19 20  2  0
 20 21  1  0
 21 22  2  0
 22 23  1  0
 23 24  2  0
 24 25  1  0
 25 26  2  0
 26 27  1  0
 27 28  2  0
 14 29  1  0
 29 30  2  0
 30 11  1  0
 22 17  1  0
 28 23  1  0
M  END
>  <zinc_id>  (1) 
ZINC000003250623

>  <smiles>  (1) 
C=C(CC(C)C)NNC(=O)c1ccc(COc2ccccc2-c2ccccc2)cc1

$$$$
