
     RDKit          3D

 32 34  0  0  0  0  0  0  0  0999 V2000
    5.3993   -3.2560    2.7059 C   0  0  0  0  0  0  0  0  0  0  0  0
    4.2953   -2.6807    2.0324 O   0  0  0  0  0  0  0  0  0  0  0  0
    4.5759   -1.6485    1.1348 C   0  0  0  0  0  0  0  0  0  0  0  0
    5.8498   -1.1857    0.8865 C   0  0  0  0  0  0  0  0  0  0  0  0
    6.1025   -0.1679   -0.0041 C   0  0  0  0  0  0  0  0  0  0  0  0
    5.0069    0.3999   -0.6675 C   0  0  0  0  0  0  0  0  0  0  0  0
    5.3274    1.4923   -1.6141 C   0  0  0  0  0  0  0  0  0  0  0  0
    6.1952    1.0485   -2.7695 C   0  0  0  0  0  0  0  0  0  0  0  0
    4.0158    2.0651   -2.0855 C   0  0  0  0  0  0  0  0  0  0  0  0
    6.0363    2.6188   -0.8536 C   0  0  0  0  0  0  0  0  0  0  0  0
    3.7504   -0.0747   -0.4048 C   0  0  0  0  0  0  0  0  0  0  0  0
    3.4749   -1.0840    0.4744 C   0  0  0  0  0  0  0  0  0  0  0  0
    2.1776   -1.5804    0.7451 N   0  0  0  0  0  0  0  0  0  0  0  0
    0.9818   -1.1266    0.1814 C   0  0  0  0  0  0  0  0  0  0  0  0
    0.9996   -0.2020   -0.6414 O   0  0  0  0  0  0  0  0  0  0  0  0
   -0.2782   -1.7678    0.5858 C   0  0  0  0  0  0  0  0  0  0  0  0
   -1.4375   -1.3103    0.0185 O   0  0  0  0  0  0  0  0  0  0  0  0
   -1.9905   -0.0503    0.0510 C   0  0  0  0  0  0  0  0  0  0  0  0
   -1.3839    0.8284    0.6656 O   0  0  0  0  0  0  0  0  0  0  0  0
   -3.2836    0.1076   -0.6743 C   0  0  0  0  0  0  0  0  0  0  0  0
   -3.7628    1.4966   -0.6362 C   0  0  0  0  0  0  0  0  0  0  0  0
   -4.8641    1.9034   -1.3600 C   0  0  0  0  0  0  0  0  0  0  0  0
   -5.3091    3.2179   -1.3317 C   0  0  0  0  0  0  0  0  0  0  0  0
   -4.6396    4.1556   -0.5622 C   0  0  0  0  0  0  0  0  0  0  0  0
   -3.5253    3.7524    0.1720 C   0  0  0  0  0  0  0  0  0  0  0  0
   -3.1050    2.4296    0.1232 C   0  0  0  0  0  0  0  0  0  0  0  0
   -4.2480   -0.7792    0.0591 C   0  0  0  0  0  0  0  0  0  0  0  0
   -5.1661   -1.5569   -0.5642 C   0  0  0  0  0  0  0  0  0  0  0  0
   -6.0297   -2.3486    0.1483 C   0  0  0  0  0  0  0  0  0  0  0  0
   -5.9457   -2.3394    1.5448 C   0  0  0  0  0  0  0  0  0  0  0  0
   -5.0300   -1.5654    2.2049 C   0  0  0  0  0  0  0  0  0  0  0  0
   -4.1896   -0.7916    1.4339 C   0  0  0  0  0  0  0  0  0  0  0  0
  1  2  1  0
  2  3  1  0
  3  4  2  0
  4  5  1  0
  5  6  2  0
  6  7  1  0
  7  8  1  0
  7  9  1  0
  7 10  1  0
  6 11  1  0
 11 12  2  0
 12 13  1  0
 13 14  1  0
 14 15  2  0
 14 16  1  0
 16 17  1  0
 17 18  1  0
 18 19  2  0
 18 20  1  0
 20 21  1  0
 21 22  2  0
 22 23  1  0
 23 24  2  0
 24 25  1  0
 25 26  2  0
 20 27  1  0
 27 28  2  0
 28 29  1  0
 29 30  2  0
 30 31  1  0
 31 32  2  0
 12  3  1  0
 26 21  1  0
 32 27  1  0
M  END
>  <zinc_id>  (1) 
ZINC000003217067

>  <smiles>  (1) 
COc1ccc(C(C)(C)C)cc1NC(=O)COC(=O)C(c1ccccc1)c1ccccc1

$$$$
