
     RDKit          3D

 29 31  0  0  0  0  0  0  0  0999 V2000
    8.2352    0.2605    1.2978 C   0  0  0  0  0  0  0  0  0  0  0  0
    7.0200    0.5639    0.4757 C   0  0  0  0  0  0  0  0  0  0  0  0
    5.7796    0.7373    1.0496 C   0  0  0  0  0  0  0  0  0  0  0  0
    4.6613    1.0172    0.2824 C   0  0  0  0  0  0  0  0  0  0  0  0
    4.7305    1.1360   -1.0865 C   0  0  0  0  0  0  0  0  0  0  0  0
    3.3294    1.4950   -2.1365 S   0  0  0  0  0  0  0  0  0  0  0  0
    2.5927   -0.0663   -2.6208 C   0  0  0  0  0  0  0  0  0  0  0  0
    1.9912   -0.8251   -1.5164 C   0  0  0  0  0  0  0  0  0  0  0  0
    2.7524   -1.6360   -0.9161 O   0  0  0  0  0  0  0  0  0  0  0  0
    0.6695   -0.7390   -1.0676 N   0  0  0  0  0  0  0  0  0  0  0  0
    0.1283   -1.4991    0.0129 C   0  0  0  0  0  0  0  0  0  0  0  0
    0.8568   -2.4096    0.7424 C   0  0  0  0  0  0  0  0  0  0  0  0
    0.3537   -3.1523    1.7883 C   0  0  0  0  0  0  0  0  0  0  0  0
   -0.9599   -2.9915    2.1466 C   0  0  0  0  0  0  0  0  0  0  0  0
   -1.7245   -2.0877    1.4393 C   0  0  0  0  0  0  0  0  0  0  0  0
   -1.1920   -1.3525    0.3898 C   0  0  0  0  0  0  0  0  0  0  0  0
   -2.0672   -0.4291   -0.2968 C   0  0  0  0  0  0  0  0  0  0  0  0
   -1.6261    0.2487   -1.2489 O   0  0  0  0  0  0  0  0  0  0  0  0
   -3.4139   -0.2803    0.0914 N   0  0  0  0  0  0  0  0  0  0  0  0
   -4.2541    0.7673   -0.7518 C   0  0  2  0  0  0  0  0  0  0  0  0
   -3.2728    2.0369   -0.3338 C   0  0  0  0  0  0  0  0  0  0  0  0
   -5.3324    1.0398    0.4067 C   0  0  0  0  0  0  0  0  0  0  0  0
   -4.9633    1.2363    1.6650 C   0  0  0  0  0  0  0  0  0  0  0  0
   -5.8981    1.4671    2.6437 C   0  0  0  0  0  0  0  0  0  0  0  0
   -7.2240    1.4870    2.2758 C   0  0  0  0  0  0  0  0  0  0  0  0
   -7.6118    1.2824    0.9650 C   0  0  0  0  0  0  0  0  0  0  0  0
   -6.6302    1.0498   -0.0079 C   0  0  0  0  0  0  0  0  0  0  0  0
    5.9702    0.9625   -1.6614 C   0  0  0  0  0  0  0  0  0  0  0  0
    7.0995    0.6808   -0.8951 C   0  0  0  0  0  0  0  0  0  0  0  0
  1  2  1  0
  2  3  2  0
  3  4  1  0
  4  5  2  0
  5  6  1  0
  6  7  1  0
  7  8  1  0
  8  9  2  0
  8 10  1  0
 10 11  1  0
 11 12  2  0
 12 13  1  0
 13 14  2  0
 14 15  1  0
 15 16  2  0
 16 17  1  0
 17 18  2  0
 17 19  1  0
 19 20  1  0
 20 21  1  1
 20 22  1  0
 22 23  2  0
 23 24  1  0
 24 25  2  0
 25 26  1  0
 26 27  2  0
  5 28  1  0
 28 29  2  0
 29  2  1  0
 16 11  1  0
 27 22  1  0
M  END
>  <zinc_id>  (1) 
ZINC000001146929

>  <smiles>  (1) 
Cc1ccc(SCC(=O)Nc2ccccc2C(=O)N[C@H](C)c2ccccc2)cc1

$$$$
