
     RDKit          3D

 31 34  0  0  0  0  0  0  0  0999 V2000
   -5.6031    5.5330    2.3592 C   0  0  0  0  0  0  0  0  0  0  0  0
   -5.8258    4.8062    1.1727 O   0  0  0  0  0  0  0  0  0  0  0  0
   -4.9064    3.8066    0.8201 C   0  0  0  0  0  0  0  0  0  0  0  0
   -5.0766    3.0608   -0.3375 C   0  0  0  0  0  0  0  0  0  0  0  0
   -4.1620    2.0787   -0.6730 C   0  0  0  0  0  0  0  0  0  0  0  0
   -3.0711    1.8155    0.1198 C   0  0  0  0  0  0  0  0  0  0  0  0
   -2.0905    0.7714   -0.2314 C   0  0  0  0  0  0  0  0  0  0  0  0
   -0.9970    0.5193    0.5689 C   0  0  0  0  0  0  0  0  0  0  0  0
   -0.0605   -0.4459    0.2688 C   0  0  0  0  0  0  0  0  0  0  0  0
    1.0971   -0.7061    1.1231 C   0  0  0  0  0  0  0  0  0  0  0  0
    1.2162    0.0004    2.1649 O   0  0  0  0  0  0  0  0  0  0  0  0
    2.0613   -1.6844    0.8443 N   0  0  0  0  0  0  0  0  0  0  0  0
    3.1857   -1.8648    1.7672 C   0  0  0  0  0  0  0  0  0  0  0  0
    4.1590   -0.7825    1.5733 C   0  0  0  0  0  0  0  0  0  0  0  0
    4.0927    0.3846    2.2700 C   0  0  0  0  0  0  0  0  0  0  0  0
    5.0134    1.3867    2.0746 C   0  0  0  0  0  0  0  0  0  0  0  0
    6.0133    1.1722    1.1445 C   0  0  0  0  0  0  0  0  0  0  0  0
    6.1101    0.0034    0.4220 C   0  0  0  0  0  0  0  0  0  0  0  0
    5.1682   -0.9648    0.6532 C   0  0  0  0  0  0  0  0  0  0  0  0
   -0.2208   -1.1962   -0.8830 C   0  0  0  0  0  0  0  0  0  0  0  0
    0.6932   -2.1827   -1.2357 C   0  0  0  0  0  0  0  0  0  0  0  0
    0.5377   -2.9311   -2.3819 C   0  0  0  0  0  0  0  0  0  0  0  0
    1.5268   -3.9922   -2.7607 C   0  0  0  0  0  0  0  0  0  0  0  0
    0.8543   -5.3152   -3.0390 C   0  0  0  0  0  0  0  0  0  0  0  0
    2.5697   -4.1257   -1.6978 C   0  0  0  0  0  0  0  0  0  0  0  0
   -0.5625   -2.6639   -3.1683 C   0  0  0  0  0  0  0  0  0  0  0  0
   -1.4673   -1.6856   -2.8173 C   0  0  0  0  0  0  0  0  0  0  0  0
   -1.3215   -0.9289   -1.6707 C   0  0  0  0  0  0  0  0  0  0  0  0
   -2.2207    0.0293   -1.3416 N   0  0  0  0  0  0  0  0  0  0  0  0
   -2.9015    2.5592    1.2745 C   0  0  0  0  0  0  0  0  0  0  0  0
   -3.8113    3.5427    1.6167 C   0  0  0  0  0  0  0  0  0  0  0  0
  1  2  1  0
  2  3  1  0
  3  4  2  0
  4  5  1  0
  5  6  2  0
  6  7  1  0
  7  8  2  0
  8  9  1  0
  9 10  1  0
 10 11  2  0
 10 12  1  0
 12 13  1  0
 13 14  1  0
 14 15  2  0
 15 16  1  0
 16 17  2  0
 17 18  1  0
 18 19  2  0
  9 20  2  0
 20 21  1  0
 21 22  2  0
 22 23  1  0
 23 24  1  0
 23 25  1  0
 22 26  1  0
 26 27  2  0
 27 28  1  0
 28 29  2  0
  6 30  1  0
 30 31  2  0
 31  3  1  0
 29  7  1  0
 19 14  1  0
 28 20  1  0
M  END
>  <zinc_id>  (1) 
ZINC000003047605

>  <smiles>  (1) 
COc1ccc(-c2cc(C(=O)NCc3ccccc3)c3cc(C(C)C)ccc3n2)cc1

$$$$
