
     RDKit          3D

 31 34  0  0  0  0  0  0  0  0999 V2000
    8.3177    0.1300   -2.2026 C   0  0  0  0  0  0  0  0  0  0  0  0
    7.2336   -0.6214   -1.7176 O   0  0  0  0  0  0  0  0  0  0  0  0
    6.1980   -0.0504   -0.9725 C   0  0  0  0  0  0  0  0  0  0  0  0
    5.1488   -0.8153   -0.5113 C   0  0  0  0  0  0  0  0  0  0  0  0
    4.1204   -0.2684    0.2242 C   0  0  0  0  0  0  0  0  0  0  0  0
    4.1071    1.0765    0.5263 C   0  0  0  0  0  0  0  0  0  0  0  0
    3.0313    1.6426    1.2946 N   0  0  0  0  0  0  0  0  0  0  0  0
    1.9571    0.7746    1.7486 C   0  0  0  0  0  0  0  0  0  0  0  0
    2.0722   -0.4159    1.4195 O   0  0  0  0  0  0  0  0  0  0  0  0
    0.8715    1.3082    2.5157 C   0  0  0  0  0  0  0  0  0  0  0  0
   -0.2386    0.5714    3.0316 C   0  0  0  0  0  0  0  0  0  0  0  0
   -1.0384   -0.0917    2.0271 N   0  0  0  0  0  0  0  0  0  0  0  0
   -1.9261    0.6242    1.3081 N   0  0  0  0  0  0  0  0  0  0  0  0
   -2.6351    0.0309    0.3472 C   0  0  0  0  0  0  0  0  0  0  0  0
   -3.6087    0.8031   -0.4456 C   0  0  0  0  0  0  0  0  0  0  0  0
   -4.4701    1.6688    0.1789 C   0  0  0  0  0  0  0  0  0  0  0  0
   -5.4075    2.4193   -0.5341 C   0  0  0  0  0  0  0  0  0  0  0  0
   -5.4800    2.2963   -1.9058 C   0  0  0  0  0  0  0  0  0  0  0  0
   -6.4893    3.1074   -2.6503 C   0  0  0  0  0  0  0  0  0  0  0  0
   -4.6171    1.4287   -2.5339 C   0  0  0  0  0  0  0  0  0  0  0  0
   -3.6923    0.6902   -1.8166 C   0  0  0  0  0  0  0  0  0  0  0  0
   -2.4831   -1.3139    0.0648 C   0  0  0  0  0  0  0  0  0  0  0  0
   -3.2178   -1.9074   -0.9252 C   0  0  0  0  0  0  0  0  0  0  0  0
   -3.0432   -3.2474   -1.1818 C   0  0  0  0  0  0  0  0  0  0  0  0
   -2.1373   -3.9794   -0.4473 C   0  0  0  0  0  0  0  0  0  0  0  0
   -1.3784   -3.4220    0.5569 C   0  0  0  0  0  0  0  0  0  0  0  0
   -1.5845   -2.0630    0.7858 C   0  0  0  0  0  0  0  0  0  0  0  0
   -0.8655   -1.3992    1.7822 C   0  0  0  0  0  0  0  0  0  0  0  0
   -0.0541   -2.1206    2.4295 O   0  0  0  0  0  0  0  0  0  0  0  0
    5.1432    1.8519    0.0754 C   0  0  0  0  0  0  0  0  0  0  0  0
    6.1662    1.2918   -0.6598 C   0  0  0  0  0  0  0  0  0  0  0  0
  1  2  1  0
  2  3  1  0
  3  4  2  0
  4  5  1  0
  5  6  2  0
  6  7  1  0
  7  8  1  0
  8  9  2  0
  8 10  1  0
 10 11  1  0
 11 12  1  0
 12 13  1  0
 13 14  2  0
 14 15  1  0
 15 16  2  0
 16 17  1  0
 17 18  2  0
 18 19  1  0
 18 20  1  0
 20 21  2  0
 14 22  1  0
 22 23  2  0
 23 24  1  0
 24 25  2  0
 25 26  1  0
 26 27  2  0
 27 28  1  0
 28 29  2  0
  6 30  1  0
 30 31  2  0
 31  3  1  0
 28 12  1  0
 21 15  1  0
 27 22  1  0
M  END
>  <zinc_id>  (1) 
ZINC000000801805

>  <smiles>  (1) 
COc1ccc(NC(=O)CCn2nc(-c3ccc(C)cc3)c3ccccc3c2=O)cc1

$$$$
