
     RDKit          3D

 32 35  0  0  0  0  0  0  0  0999 V2000
    6.8395    3.8802   -2.0819 C   0  0  0  0  0  0  0  0  0  0  0  0
    7.0566    2.7762   -1.2242 O   0  0  0  0  0  0  0  0  0  0  0  0
    5.9611    2.0390   -0.8118 C   0  0  0  0  0  0  0  0  0  0  0  0
    6.0946    0.9440    0.0284 C   0  0  0  0  0  0  0  0  0  0  0  0
    4.9882    0.2276    0.4238 C   0  0  0  0  0  0  0  0  0  0  0  0
    3.7360    0.5846   -0.0064 C   0  0  0  0  0  0  0  0  0  0  0  0
    2.5523   -0.1745    0.4112 C   0  0  0  0  0  0  0  0  0  0  0  0
    1.2951    0.2041   -0.0359 C   0  0  0  0  0  0  0  0  0  0  0  0
    0.2105   -0.5342    0.3788 C   0  0  0  0  0  0  0  0  0  0  0  0
   -1.1342   -0.1982   -0.0476 C   0  0  0  0  0  0  0  0  0  0  0  0
   -1.3769    0.7828   -0.8163 O   0  0  0  0  0  0  0  0  0  0  0  0
   -2.2155   -0.9644    0.3887 N   0  0  0  0  0  0  0  0  0  0  0  0
   -3.5572   -0.6956    0.0132 C   0  0  0  0  0  0  0  0  0  0  0  0
   -3.8269    0.3697   -0.8225 C   0  0  0  0  0  0  0  0  0  0  0  0
   -5.1495    0.5816   -1.1527 C   0  0  0  0  0  0  0  0  0  0  0  0
   -6.1764   -0.2224   -0.6812 C   0  0  0  0  0  0  0  0  0  0  0  0
   -7.5561    0.1167   -1.1145 C   0  0  0  0  0  0  0  0  0  0  0  0
   -7.6836    1.5325   -1.5783 C   0  0  0  0  0  0  0  0  0  0  0  0
   -8.5938   -0.3061   -0.1304 C   0  0  0  0  0  0  0  0  0  0  0  0
   -5.8767   -1.2663    0.1423 C   0  0  0  0  0  0  0  0  0  0  0  0
   -4.5646   -1.5099    0.4950 C   0  0  0  0  0  0  0  0  0  0  0  0
    0.3937   -1.6155    1.2151 C   0  0  0  0  0  0  0  0  0  0  0  0
   -0.6802   -2.3677    1.6416 C   0  0  0  0  0  0  0  0  0  0  0  0
   -0.4976   -3.4425    2.4729 C   0  0  0  0  0  0  0  0  0  0  0  0
    0.7582   -3.7844    2.8922 C   0  0  0  0  0  0  0  0  0  0  0  0
    1.8217   -3.0328    2.4648 C   0  0  0  0  0  0  0  0  0  0  0  0
    1.6601   -1.9651    1.6415 C   0  0  0  0  0  0  0  0  0  0  0  0
    2.7115   -1.2190    1.2167 N   0  0  0  0  0  0  0  0  0  0  0  0
    3.5835    1.6548   -0.8303 C   0  0  0  0  0  0  0  0  0  0  0  0
    2.3390    2.0715   -1.3044 O   0  0  0  0  0  0  0  0  0  0  0  0
    2.1997    3.1764   -2.1528 C   0  0  0  0  0  0  0  0  0  0  0  0
    4.6876    2.3569   -1.2153 C   0  0  0  0  0  0  0  0  0  0  0  0
  1  2  1  0
  2  3  1  0
  3  4  2  0
  4  5  1  0
  5  6  2  0
  6  7  1  0
  7  8  2  0
  8  9  1  0
  9 10  1  0
 10 11  2  0
 10 12  1  0
 12 13  1  0
 13 14  2  0
 14 15  1  0
 15 16  2  0
 16 17  1  0
 17 18  1  0
 17 19  1  0
 16 20  1  0
 20 21  2  0
  9 22  2  0
 22 23  1  0
 23 24  2  0
 24 25  1  0
 25 26  2  0
 26 27  1  0
 27 28  2  0
  6 29  1  0
 29 30  1  0
 30 31  1  0
 29 32  2  0
 32  3  1  0
 28  7  1  0
 21 13  1  0
 27 22  1  0
M  END
>  <zinc_id>  (1) 
ZINC000000997304

>  <smiles>  (1) 
COc1ccc(-c2cc(C(=O)Nc3ccc(C(C)C)cc3)c3ccccc3n2)c(OC)c1

$$$$
