
     RDKit          3D

 28 30  0  0  0  0  0  0  0  0999 V2000
   -5.8762    4.3402   -0.6960 C   0  0  0  0  0  0  0  0  0  0  0  0
   -5.7669    3.0465    0.0357 C   0  0  0  0  0  0  0  0  0  0  0  0
   -6.5766    2.9014    1.2429 C   0  0  0  0  0  0  0  0  0  0  0  0
   -5.8047    1.8628   -0.7438 O   0  0  0  0  0  0  0  0  0  0  0  0
   -4.5573    1.1763   -0.4671 C   0  0  0  0  0  0  0  0  0  0  0  0
   -4.2045    0.0012   -0.9791 C   0  0  0  0  0  0  0  0  0  0  0  0
   -2.8919   -0.4599   -0.6436 C   0  0  0  0  0  0  0  0  0  0  0  0
   -2.1078    0.1859    0.1373 C   0  0  0  0  0  0  0  0  0  0  0  0
   -0.5337   -0.1354    0.2338 C   0  0  2  0  0  0  0  0  0  0  0  0
   -0.3640   -0.2570   -1.4507 C   0  0  0  0  0  0  0  0  0  0  0  0
    0.9858   -0.7948   -1.5516 C   0  0  0  0  0  0  0  0  0  0  0  0
    2.0753   -0.2979   -1.0332 N   0  0  0  0  0  0  0  0  0  0  0  0
    3.2776   -0.9827   -1.4585 C   0  0  0  0  0  0  0  0  0  0  0  0
    4.3827   -0.3393   -0.6765 C   0  0  0  0  0  0  0  0  0  0  0  0
    3.9838    0.7246    0.1742 C   0  0  0  0  0  0  0  0  0  0  0  0
    4.9073    1.3378    0.9419 C   0  0  0  0  0  0  0  0  0  0  0  0
    6.2450    0.9336    0.9125 C   0  0  0  0  0  0  0  0  0  0  0  0
    7.1004    1.6740    1.7536 O   0  0  0  0  0  0  0  0  0  0  0  0
    6.6275   -0.1199    0.1302 C   0  0  0  0  0  0  0  0  0  0  0  0
    5.6422   -0.6980   -0.6336 C   0  0  0  0  0  0  0  0  0  0  0  0
   -0.4143   -1.6166    0.5425 C   0  0  0  0  0  0  0  0  0  0  0  0
   -1.2885   -2.5661    0.5419 C   0  0  0  0  0  0  0  0  0  0  0  0
   -1.0250   -3.8308    0.8822 C   0  0  0  0  0  0  0  0  0  0  0  0
    0.2341   -4.1719    1.2720 C   0  0  0  0  0  0  0  0  0  0  0  0
    1.2295   -3.2319    1.3080 C   0  0  0  0  0  0  0  0  0  0  0  0
    0.9302   -1.9655    0.9478 C   0  0  0  0  0  0  0  0  0  0  0  0
   -2.4967    1.3869    0.6973 C   0  0  0  0  0  0  0  0  0  0  0  0
   -3.7132    1.8965    0.3904 C   0  0  0  0  0  0  0  0  0  0  0  0
  1  2  1  0
  2  3  1  0
  2  4  1  0
  4  5  1  0
  5  6  2  0
  6  7  1  0
  7  8  2  0
  8  9  1  0
  9 10  1  6
 10 11  1  0
 11 12  1  0
 12 13  1  0
 13 14  1  0
 14 15  2  0
 15 16  1  0
 16 17  2  0
 17 18  1  0
 17 19  1  0
 19 20  2  0
  9 21  1  0
 21 22  2  0
 22 23  1  0
 23 24  2  0
 24 25  1  0
 25 26  2  0
  8 27  1  0
 27 28  2  0
 28  5  1  0
 20 14  1  0
 26 21  1  0
M  END
>  <zinc_id>  (1) 
ZINC000001774425

>  <smiles>  (1) 
CC(C)Oc1ccc([C@H](CCNCc2ccc(O)cc2)c2ccccc2)cc1

$$$$
