
     RDKit          3D

 33 37  0  0  0  0  0  0  0  0999 V2000
    7.8947   -0.0497    2.2238 C   0  0  0  0  0  0  0  0  0  0  0  0
    8.1103   -1.0972    1.1297 C   0  0  0  0  0  0  0  0  0  0  0  0
    7.3624   -0.7213   -0.0992 C   0  0  0  0  0  0  0  0  0  0  0  0
    6.0642   -1.1875   -0.2148 C   0  0  0  0  0  0  0  0  0  0  0  0
    5.3553   -0.8486   -1.3483 C   0  0  0  0  0  0  0  0  0  0  0  0
    5.8710   -0.0751   -2.3634 C   0  0  0  0  0  0  0  0  0  0  0  0
    5.0948    0.2175   -3.4631 O   0  0  0  0  0  0  0  0  0  0  0  0
    3.7759   -0.2598   -3.5705 C   0  0  0  0  0  0  0  0  0  0  0  0
    2.9066    0.2199   -2.4709 C   0  0  0  0  0  0  0  0  0  0  0  0
    3.2189    1.0793   -1.4535 C   0  0  0  0  0  0  0  0  0  0  0  0
    2.0720    1.2035   -0.6991 C   0  0  0  0  0  0  0  0  0  0  0  0
    1.1116    0.4140   -1.2904 C   0  0  0  0  0  0  0  0  0  0  0  0
   -0.2649    0.2245   -0.8484 C   0  0  0  0  0  0  0  0  0  0  0  0
   -1.0273   -0.5344   -1.4986 O   0  0  0  0  0  0  0  0  0  0  0  0
   -0.7812    0.8739    0.3036 N   0  0  0  0  0  0  0  0  0  0  0  0
   -2.1166    0.6780    0.7160 C   0  0  0  0  0  0  0  0  0  0  0  0
   -2.9460   -0.1617   -0.0106 C   0  0  0  0  0  0  0  0  0  0  0  0
   -4.2603   -0.3955    0.3391 C   0  0  0  0  0  0  0  0  0  0  0  0
   -5.2387   -1.1335   -0.1724 O   0  0  0  0  0  0  0  0  0  0  0  0
   -6.3194   -1.0203    0.5333 C   0  0  0  0  0  0  0  0  0  0  0  0
   -7.5709   -1.5854    0.3975 C   0  0  0  0  0  0  0  0  0  0  0  0
   -8.5563   -1.2734    1.3267 C   0  0  0  0  0  0  0  0  0  0  0  0
   -8.2981   -0.4062    2.3821 C   0  0  0  0  0  0  0  0  0  0  0  0
   -7.0369    0.1424    2.4902 C   0  0  0  0  0  0  0  0  0  0  0  0
   -6.0525   -0.1533    1.5839 C   0  0  0  0  0  0  0  0  0  0  0  0
   -4.7381    0.2479    1.4632 C   0  0  0  0  0  0  0  0  0  0  0  0
   -3.9055    1.0920    2.1943 C   0  0  0  0  0  0  0  0  0  0  0  0
   -2.5991    1.3146    1.8332 C   0  0  0  0  0  0  0  0  0  0  0  0
   -1.7338    2.1460    2.5302 O   0  0  0  0  0  0  0  0  0  0  0  0
   -2.1374    2.8451    3.6927 C   0  0  0  0  0  0  0  0  0  0  0  0
    1.6713   -0.1366   -2.3294 O   0  0  0  0  0  0  0  0  0  0  0  0
    7.1663    0.3698   -2.2115 C   0  0  0  0  0  0  0  0  0  0  0  0
    7.9077    0.0538   -1.0953 C   0  0  0  0  0  0  0  0  0  0  0  0
  1  2  1  0
  2  3  1  0
  3  4  2  0
  4  5  1  0
  5  6  2  0
  6  7  1  0
  7  8  1  0
  8  9  1  0
  9 10  2  0
 10 11  1  0
 11 12  2  0
 12 13  1  0
 13 14  2  0
 13 15  1  0
 15 16  1  0
 16 17  2  0
 17 18  1  0
 18 19  1  0
 19 20  1  0
 20 21  2  0
 21 22  1  0
 22 23  2  0
 23 24  1  0
 24 25  2  0
 25 26  1  0
 26 27  1  0
 27 28  2  0
 28 29  1  0
 29 30  1  0
 12 31  1  0
  6 32  1  0
 32 33  2  0
 33  3  1  0
 31  9  1  0
 28 16  1  0
 26 18  2  0
 25 20  1  0
M  END
>  <zinc_id>  (1) 
ZINC000002752136

>  <smiles>  (1) 
CCc1ccc(OCc2ccc(C(=O)Nc3cc4oc5ccccc5c4cc3OC)o2)cc1

$$$$
