
     RDKit          3D

 31 35  0  0  0  0  0  0  0  0999 V2000
   -4.9761   -0.1617   -3.1982 C   0  0  0  0  0  0  0  0  0  0  0  0
   -5.7675   -0.5360   -1.9890 C   0  0  0  0  0  0  0  0  0  0  0  0
   -4.8342   -0.9426   -0.9061 C   0  0  0  0  0  0  0  0  0  0  0  0
   -4.3976   -2.2250   -0.7064 C   0  0  0  0  0  0  0  0  0  0  0  0
   -3.5226   -2.5227    0.3327 C   0  0  0  0  0  0  0  0  0  0  0  0
   -3.0718   -1.5271    1.1906 C   0  0  0  0  0  0  0  0  0  0  0  0
   -2.2090   -1.7906    2.2248 O   0  0  0  0  0  0  0  0  0  0  0  0
   -1.7412   -3.1192    2.4523 C   0  0  0  0  0  0  0  0  0  0  0  0
   -3.5039   -0.2591    0.9924 C   0  0  0  0  0  0  0  0  0  0  0  0
   -3.0410    0.9092    1.9308 C   0  0  2  0  0  0  0  0  0  0  0  0
   -3.5859    2.1491    1.1225 N   0  0  0  0  0  0  0  0  0  0  0  0
   -3.1616    2.0633   -0.2095 C   0  0  0  0  0  0  0  0  0  0  0  0
   -1.7440    2.5826   -0.3027 C   0  0  0  0  0  0  0  0  0  0  0  0
   -0.9660    1.6970    0.5887 C   0  0  0  0  0  0  0  0  0  0  0  0
   -1.5203    0.9897    1.5335 C   0  0  0  0  0  0  0  0  0  0  0  0
   -0.5712    0.3021    2.1609 N   0  0  0  0  0  0  0  0  0  0  0  0
    0.6365    0.5621    1.6171 C   0  0  0  0  0  0  0  0  0  0  0  0
    1.9381    0.1495    1.8510 C   0  0  0  0  0  0  0  0  0  0  0  0
    2.9966    0.6089    1.1012 C   0  0  0  0  0  0  0  0  0  0  0  0
    2.7609    1.5077    0.0844 C   0  0  0  0  0  0  0  0  0  0  0  0
    3.8198    2.0027   -0.7075 O   0  0  0  0  0  0  0  0  0  0  0  0
    5.1237    1.5977   -0.4848 C   0  0  0  0  0  0  0  0  0  0  0  0
    5.3835    0.1470   -0.6278 C   0  0  0  0  0  0  0  0  0  0  0  0
    5.4369   -0.7341    0.4299 C   0  0  0  0  0  0  0  0  0  0  0  0
    5.6806   -2.0835    0.2772 C   0  0  0  0  0  0  0  0  0  0  0  0
    5.8848   -2.6110   -0.9737 C   0  0  0  0  0  0  0  0  0  0  0  0
    5.8387   -1.7588   -2.0561 C   0  0  0  0  0  0  0  0  0  0  0  0
    5.5936   -0.4087   -1.8896 C   0  0  0  0  0  0  0  0  0  0  0  0
    1.4640    1.9112   -0.1395 C   0  0  0  0  0  0  0  0  0  0  0  0
    0.4104    1.4572    0.6030 C   0  0  0  0  0  0  0  0  0  0  0  0
   -4.3540    0.0429   -0.0134 C   0  0  0  0  0  0  0  0  0  0  0  0
  1  2  1  0
  2  3  1  0
  3  4  2  0
  4  5  1  0
  5  6  2  0
  6  7  1  0
  7  8  1  0
  6  9  1  0
 10  9  1  6
 10 11  1  0
 11 12  1  0
 12 13  1  0
 13 14  1  0
 14 15  2  0
 15 16  1  0
 16 17  1  0
 17 18  2  0
 18 19  1  0
 19 20  2  0
 20 21  1  0
 21 22  1  0
 22 23  1  0
 23 24  2  0
 24 25  1  0
 25 26  2  0
 26 27  1  0
 27 28  2  0
 20 29  1  0
 29 30  2  0
  9 31  2  0
 31  3  1  0
 15 10  1  0
 30 17  1  0
 30 14  1  0
 28 23  1  0
M  END
>  <zinc_id>  (1) 
ZINC000003736693

>  <smiles>  (1) 
CCc1ccc(OC)c([C@@H]2NCCc3c2[nH]c2ccc(OCc4ccccc4)cc32)c1

$$$$
