
     RDKit          3D

 33 36  0  0  0  0  0  0  0  0999 V2000
    5.1000   -5.6430    0.2966 C   0  0  0  0  0  0  0  0  0  0  0  0
    5.8293   -4.8489   -0.7904 C   0  0  0  0  0  0  0  0  0  0  0  0
    6.0986   -3.5284   -0.4010 O   0  0  0  0  0  0  0  0  0  0  0  0
    5.1425   -2.5990   -0.0663 C   0  0  0  0  0  0  0  0  0  0  0  0
    3.7931   -2.8266   -0.0729 C   0  0  0  0  0  0  0  0  0  0  0  0
    2.9202   -1.8365    0.2762 C   0  0  0  0  0  0  0  0  0  0  0  0
    3.3115   -0.5722    0.6506 C   0  0  0  0  0  0  0  0  0  0  0  0
    2.4525    0.4927    0.9786 N   0  0  0  0  0  0  0  0  0  0  0  0
    1.0667    0.5826    0.7263 C   0  0  0  0  0  0  0  0  0  0  0  0
    0.4261    1.7540    0.5749 C   0  0  0  0  0  0  0  0  0  0  0  0
    1.1392    3.3859    0.6551 S   0  0  0  0  0  0  0  0  0  0  0  0
    0.0618    4.6312   -0.0611 C   0  0  0  0  0  0  0  0  0  0  0  0
   -0.9658    5.2482    0.5841 C   0  0  0  0  0  0  0  0  0  0  0  0
   -1.6775    6.2321   -0.1205 C   0  0  0  0  0  0  0  0  0  0  0  0
   -1.3502    6.5582   -1.4037 C   0  0  0  0  0  0  0  0  0  0  0  0
   -0.3033    5.9390   -2.0821 C   0  0  0  0  0  0  0  0  0  0  0  0
    0.3814    4.9787   -1.3799 C   0  0  0  0  0  0  0  0  0  0  0  0
   -0.9742    1.4349    0.2985 C   0  0  0  0  0  0  0  0  0  0  0  0
   -1.9034    2.2913    0.0936 O   0  0  0  0  0  0  0  0  0  0  0  0
   -1.1725    0.0248    0.2870 N   0  0  0  0  0  0  0  0  0  0  0  0
   -2.3476   -0.7174    0.0656 C   0  0  0  0  0  0  0  0  0  0  0  0
   -2.2603   -2.0948   -0.1717 C   0  0  0  0  0  0  0  0  0  0  0  0
   -3.3988   -2.8250   -0.3863 C   0  0  0  0  0  0  0  0  0  0  0  0
   -4.6619   -2.2625   -0.3821 C   0  0  0  0  0  0  0  0  0  0  0  0
   -5.8382   -3.1237   -0.6172 C   0  0  0  0  0  0  0  0  0  0  0  0
   -6.9521   -2.7002    0.3157 C   0  0  0  0  0  0  0  0  0  0  0  0
   -6.3197   -2.9048   -2.0326 C   0  0  0  0  0  0  0  0  0  0  0  0
   -4.7445   -0.9164   -0.1502 C   0  0  0  0  0  0  0  0  0  0  0  0
   -3.5983   -0.1716    0.0675 C   0  0  0  0  0  0  0  0  0  0  0  0
    0.1437   -0.5167    0.5637 C   0  0  0  0  0  0  0  0  0  0  0  0
    0.3164   -1.7747    0.6265 O   0  0  0  0  0  0  0  0  0  0  0  0
    4.6962   -0.3595    0.6532 C   0  0  0  0  0  0  0  0  0  0  0  0
    5.5890   -1.3317    0.3079 C   0  0  0  0  0  0  0  0  0  0  0  0
  1  2  1  0
  2  3  1  0
  3  4  1  0
  4  5  2  0
  5  6  1  0
  6  7  2  0
  7  8  1  0
  8  9  1  0
  9 10  2  0
 10 11  1  0
 11 12  1  0
 12 13  2  0
 13 14  1  0
 14 15  2  0
 15 16  1  0
 16 17  2  0
 10 18  1  0
 18 19  2  0
 18 20  1  0
 20 21  1  0
 21 22  2  0
 22 23  1  0
 23 24  2  0
 24 25  1  0
 25 26  1  0
 25 27  1  0
 24 28  1  0
 28 29  2  0
 20 30  1  0
 30 31  2  0
  7 32  1  0
 32 33  2  0
 33  4  1  0
 30  9  1  0
 17 12  1  0
 29 21  1  0
M  END
>  <zinc_id>  (1) 
ZINC000001954948

>  <smiles>  (1) 
CCOc1ccc(NC2=C(Sc3ccccc3)C(=O)N(c3ccc(C(C)C)cc3)C2=O)cc1

$$$$
