
     RDKit          3D

 32 35  0  0  0  0  0  0  0  0999 V2000
    0.0885    7.8375    1.4902 C   0  0  0  0  0  0  0  0  0  0  0  0
   -0.5259    6.7041    2.3179 C   0  0  0  0  0  0  0  0  0  0  0  0
   -0.7547    5.5062    1.4483 C   0  0  0  0  0  0  0  0  0  0  0  0
   -1.9427    5.3248    0.7703 C   0  0  0  0  0  0  0  0  0  0  0  0
   -2.1596    4.2238   -0.0321 C   0  0  0  0  0  0  0  0  0  0  0  0
   -1.1691    3.2479   -0.1830 C   0  0  0  0  0  0  0  0  0  0  0  0
   -1.4790    2.1612   -1.0202 N   0  0  0  0  0  0  0  0  0  0  0  0
   -0.6260    1.0795   -1.3035 C   0  0  0  0  0  0  0  0  0  0  0  0
   -0.8170   -0.1897   -0.9037 C   0  0  0  0  0  0  0  0  0  0  0  0
   -2.2202   -0.6366    0.0577 S   0  0  0  0  0  0  0  0  0  0  0  0
   -2.3131   -2.3407    0.4942 C   0  0  0  0  0  0  0  0  0  0  0  0
   -3.4040   -2.7995    1.2663 C   0  0  0  0  0  0  0  0  0  0  0  0
   -3.5284   -4.1139    1.6355 C   0  0  0  0  0  0  0  0  0  0  0  0
   -2.6044   -5.0722    1.2814 C   0  0  0  0  0  0  0  0  0  0  0  0
   -2.7436   -6.4985    1.6845 C   0  0  0  0  0  0  0  0  0  0  0  0
   -1.5236   -4.6490    0.5234 C   0  0  0  0  0  0  0  0  0  0  0  0
   -1.4205   -3.3247    0.1652 C   0  0  0  0  0  0  0  0  0  0  0  0
    0.2586   -1.0189   -1.3799 C   0  0  0  0  0  0  0  0  0  0  0  0
    0.4818   -2.2590   -1.2412 O   0  0  0  0  0  0  0  0  0  0  0  0
    1.1783   -0.1937   -2.1283 N   0  0  0  0  0  0  0  0  0  0  0  0
    2.3889   -0.6491   -2.7689 C   0  0  0  0  0  0  0  0  0  0  0  0
    3.6108   -0.5893   -1.9183 C   0  0  0  0  0  0  0  0  0  0  0  0
    3.4230   -1.4321   -0.7204 C   0  0  0  0  0  0  0  0  0  0  0  0
    2.8758   -0.8100    0.3988 C   0  0  0  0  0  0  0  0  0  0  0  0
    2.6760   -1.5450    1.5489 C   0  0  0  0  0  0  0  0  0  0  0  0
    3.0153   -2.8634    1.5734 C   0  0  0  0  0  0  0  0  0  0  0  0
    3.5605   -3.5175    0.4846 C   0  0  0  0  0  0  0  0  0  0  0  0
    3.7529   -2.7601   -0.6609 C   0  0  0  0  0  0  0  0  0  0  0  0
    0.6028    1.0943   -2.0615 C   0  0  0  0  0  0  0  0  0  0  0  0
    1.1063    2.1137   -2.5976 O   0  0  0  0  0  0  0  0  0  0  0  0
   -0.0031    3.4340    0.4876 C   0  0  0  0  0  0  0  0  0  0  0  0
    0.2151    4.5361    1.2913 C   0  0  0  0  0  0  0  0  0  0  0  0
  1  2  1  0
  2  3  1  0
  3  4  2  0
  4  5  1  0
  5  6  2  0
  6  7  1  0
  7  8  1  0
  8  9  2  0
  9 10  1  0
 10 11  1  0
 11 12  2  0
 12 13  1  0
 13 14  2  0
 14 15  1  0
 14 16  1  0
 16 17  2  0
  9 18  1  0
 18 19  2  0
 18 20  1  0
 20 21  1  0
 21 22  1  0
 22 23  1  0
 23 24  2  0
 24 25  1  0
 25 26  2  0
 26 27  1  0
 27 28  2  0
 20 29  1  0
 29 30  2  0
  6 31  1  0
 31 32  2  0
 32  3  1  0
 29  8  1  0
 17 11  1  0
 28 23  1  0
M  END
>  <zinc_id>  (1) 
ZINC000001932066

>  <smiles>  (1) 
CCc1ccc(NC2=C(Sc3ccc(C)cc3)C(=O)N(CCc3ccccc3)C2=O)cc1

$$$$
