
     RDKit          3D

 31 34  0  0  0  0  0  0  0  0999 V2000
   -1.0810   -3.6347   -1.2656 C   0  0  0  0  0  0  0  0  0  0  0  0
   -2.2249   -3.1023   -0.9153 C   0  0  0  0  0  0  0  0  0  0  0  0
   -2.4618   -2.4872    0.4372 C   0  0  0  0  0  0  0  0  0  0  0  0
   -2.8133   -1.0868    0.1681 N   0  0  0  0  0  0  0  0  0  0  0  0
   -4.1675   -0.7763   -0.0190 C   0  0  0  0  0  0  0  0  0  0  0  0
   -4.9227   -1.7991   -0.0403 O   0  0  0  0  0  0  0  0  0  0  0  0
   -4.8530    0.5047   -0.1918 C   0  0  0  0  0  0  0  0  0  0  0  0
   -6.1981    0.4268    0.1891 C   0  0  0  0  0  0  0  0  0  0  0  0
   -7.0230    1.5125    0.1077 C   0  0  0  0  0  0  0  0  0  0  0  0
   -6.5014    2.6903   -0.3590 C   0  0  0  0  0  0  0  0  0  0  0  0
   -5.1790    2.7874   -0.7392 C   0  0  0  0  0  0  0  0  0  0  0  0
   -4.3436    1.6916   -0.6578 C   0  0  0  0  0  0  0  0  0  0  0  0
   -2.6832    2.0245   -1.1939 S   0  0  0  0  0  0  0  0  0  0  0  0
   -1.4966    1.0077   -0.3690 C   0  0  0  0  0  0  0  0  0  0  0  0
   -0.2821    1.6538   -0.2850 C   0  0  0  0  0  0  0  0  0  0  0  0
    0.7895    1.0107    0.3364 C   0  0  0  0  0  0  0  0  0  0  0  0
    0.6372   -0.2555    0.8604 C   0  0  0  0  0  0  0  0  0  0  0  0
    1.7488   -0.9367    1.5112 C   0  0  0  0  0  0  0  0  0  0  0  0
    1.5645   -2.0911    1.9747 O   0  0  0  0  0  0  0  0  0  0  0  0
    3.0324   -0.3639    1.6499 N   0  0  0  0  0  0  0  0  0  0  0  0
    4.1441   -1.0358    2.2966 C   0  0  0  0  0  0  0  0  0  0  0  0
    5.3260   -0.0663    2.2249 C   0  0  0  0  0  0  0  0  0  0  0  0
    5.5784    0.1870    0.7933 C   0  0  0  0  0  0  0  0  0  0  0  0
    6.4443   -0.6066    0.0893 C   0  0  0  0  0  0  0  0  0  0  0  0
    6.6965   -0.3867   -1.2570 C   0  0  0  0  0  0  0  0  0  0  0  0
    6.0745    0.6414   -1.9105 C   0  0  0  0  0  0  0  0  0  0  0  0
    6.3154    0.9126   -3.3515 C   0  0  0  0  0  0  0  0  0  0  0  0
    5.1979    1.4503   -1.2119 C   0  0  0  0  0  0  0  0  0  0  0  0
    4.9485    1.2215    0.1486 C   0  0  0  0  0  0  0  0  0  0  0  0
   -0.5950   -0.8498    0.7474 C   0  0  0  0  0  0  0  0  0  0  0  0
   -1.6720   -0.2439    0.1412 C   0  0  0  0  0  0  0  0  0  0  0  0
  1  2  2  0
  2  3  1  0
  3  4  1  0
  4  5  1  0
  5  6  2  0
  5  7  1  0
  7  8  2  0
  8  9  1  0
  9 10  2  0
 10 11  1  0
 11 12  2  0
 12 13  1  0
 13 14  1  0
 14 15  2  0
 15 16  1  0
 16 17  2  0
 17 18  1  0
 18 19  2  0
 18 20  1  0
 20 21  1  0
 21 22  1  0
 22 23  1  0
 23 24  2  0
 24 25  1  0
 25 26  2  0
 26 27  1  0
 26 28  1  0
 28 29  2  0
 17 30  1  0
 30 31  2  0
 31  4  1  0
 12  7  1  0
 31 14  1  0
 29 23  1  0
M  END
>  <zinc_id>  (1) 
ZINC000003050276

>  <smiles>  (1) 
C=CCN1C(=O)c2ccccc2Sc2ccc(C(=O)NCCc3ccc(C)cc3)cc21

$$$$
