
     RDKit          3D

 30 32  0  0  0  0  0  0  0  0999 V2000
    6.7393    2.8250   -0.7502 C   0  0  0  0  0  0  0  0  0  0  0  0
    5.9023    1.6190   -0.5208 C   0  0  0  0  0  0  0  0  0  0  0  0
    4.7062    1.4226   -1.1417 C   0  0  0  0  0  0  0  0  0  0  0  0
    3.9579    0.2758   -0.8940 C   0  0  0  0  0  0  0  0  0  0  0  0
    2.6634    0.0775   -1.6242 C   0  0  0  0  0  0  0  0  0  0  0  0
    4.3985   -0.6670   -0.0328 C   0  0  0  0  0  0  0  0  0  0  0  0
    3.7757   -1.8504    0.3234 O   0  0  0  0  0  0  0  0  0  0  0  0
    2.9867   -1.9409    1.4489 C   0  0  0  0  0  0  0  0  0  0  0  0
    1.7722   -1.1117    1.4900 C   0  0  0  0  0  0  0  0  0  0  0  0
    0.8770   -1.4674    0.4195 N   0  0  0  0  0  0  0  0  0  0  0  0
   -0.3890   -0.8071    0.2301 C   0  0  0  0  0  0  0  0  0  0  0  0
   -0.6580    0.0874    1.0488 O   0  0  0  0  0  0  0  0  0  0  0  0
   -1.2521   -1.2065   -0.8665 C   0  0  0  0  0  0  0  0  0  0  0  0
   -0.6559   -1.6240   -2.0706 C   0  0  0  0  0  0  0  0  0  0  0  0
   -1.4551   -2.0361   -3.1020 C   0  0  0  0  0  0  0  0  0  0  0  0
   -2.8144   -2.0453   -2.9727 C   0  0  0  0  0  0  0  0  0  0  0  0
   -3.4328   -1.6451   -1.8149 C   0  0  0  0  0  0  0  0  0  0  0  0
   -2.6142   -1.2204   -0.7534 C   0  0  0  0  0  0  0  0  0  0  0  0
   -3.3764   -0.7065    0.7881 S   0  0  0  0  0  0  0  0  0  0  0  0
   -3.9430    0.9729    0.6874 C   0  0  0  0  0  0  0  0  0  0  0  0
   -3.1492    2.0162    1.0535 C   0  0  0  0  0  0  0  0  0  0  0  0
   -3.5492    3.3512    0.9923 C   0  0  0  0  0  0  0  0  0  0  0  0
   -4.8109    3.6060    0.5372 C   0  0  0  0  0  0  0  0  0  0  0  0
   -5.6364    2.5672    0.1596 C   0  0  0  0  0  0  0  0  0  0  0  0
   -5.2299    1.2411    0.2238 C   0  0  0  0  0  0  0  0  0  0  0  0
   -6.1185    0.2015   -0.1774 C   0  0  0  0  0  0  0  0  0  0  0  0
   -6.8445   -0.6602   -0.4890 N   0  0  0  0  0  0  0  0  0  0  0  0
    5.6361   -0.4560    0.6040 C   0  0  0  0  0  0  0  0  0  0  0  0
    6.1406   -1.4911    1.5605 C   0  0  0  0  0  0  0  0  0  0  0  0
    6.3735    0.6721    0.3603 C   0  0  0  0  0  0  0  0  0  0  0  0
  1  2  1  0
  2  3  2  0
  3  4  1  0
  4  5  1  0
  4  6  2  0
  6  7  1  0
  7  8  1  0
  8  9  1  0
  9 10  1  0
 10 11  1  0
 11 12  2  0
 11 13  1  0
 13 14  2  0
 14 15  1  0
 15 16  2  0
 16 17  1  0
 17 18  2  0
 18 19  1  0
 19 20  1  0
 20 21  2  0
 21 22  1  0
 22 23  2  0
 23 24  1  0
 24 25  2  0
 25 26  1  0
 26 27  3  0
  6 28  1  0
 28 29  1  0
 28 30  2  0
 30  2  1  0
 18 13  1  0
 25 20  1  0
M  END
>  <zinc_id>  (1) 
ZINC000002839065

>  <smiles>  (1) 
Cc1cc(C)c(OCCNC(=O)c2ccccc2Sc2ccccc2C#N)c(C)c1

$$$$
