
     RDKit          3D

 34 37  0  0  0  0  0  0  0  0999 V2000
    2.2333   -3.0081    1.9468 C   0  0  0  0  0  0  0  0  0  0  0  0
    2.6370   -1.4958    1.3904 C   0  0  2  0  0  0  0  0  0  0  0  0
    1.2934   -1.3708    0.5682 N   0  0  0  0  0  0  0  0  0  0  0  0
    0.8097   -0.0478    0.3790 C   0  0  0  0  0  0  0  0  0  0  0  0
    1.5096    0.8646    0.8815 O   0  0  0  0  0  0  0  0  0  0  0  0
   -0.4146    0.1402   -0.3538 C   0  0  0  0  0  0  0  0  0  0  0  0
   -0.9536    1.2774   -0.6198 C   0  0  0  0  0  0  0  0  0  0  0  0
   -0.4273    2.5521   -0.2402 C   0  0  0  0  0  0  0  0  0  0  0  0
    0.8711    2.9449   -0.4627 C   0  0  0  0  0  0  0  0  0  0  0  0
    1.2925    4.1750   -0.0532 C   0  0  0  0  0  0  0  0  0  0  0  0
    0.4307    5.0500    0.5911 C   0  0  0  0  0  0  0  0  0  0  0  0
   -0.8855    4.6949    0.8353 C   0  0  0  0  0  0  0  0  0  0  0  0
   -1.2901    3.4528    0.4153 C   0  0  0  0  0  0  0  0  0  0  0  0
   -1.7304    5.5851    1.4813 O   0  0  0  0  0  0  0  0  0  0  0  0
   -1.1510    6.6005    2.2975 C   0  0  0  0  0  0  0  0  0  0  0  0
   -0.0806    7.2442    1.4175 C   0  0  0  0  0  0  0  0  0  0  0  0
    0.8703    6.2862    0.9988 O   0  0  0  0  0  0  0  0  0  0  0  0
   -1.0666   -1.1287   -0.8075 C   0  0  0  0  0  0  0  0  0  0  0  0
   -2.1160   -1.0441   -1.4336 O   0  0  0  0  0  0  0  0  0  0  0  0
   -0.5404   -2.3767   -0.5522 N   0  0  0  0  0  0  0  0  0  0  0  0
   -1.3116   -3.6465   -1.0761 C   0  0  1  0  0  0  0  0  0  0  0  0
   -0.8632   -4.6267    0.1871 C   0  0  0  0  0  0  0  0  0  0  0  0
   -2.7526   -3.2591   -0.5972 C   0  0  0  0  0  0  0  0  0  0  0  0
   -3.6936   -3.5169   -1.5407 C   0  0  0  0  0  0  0  0  0  0  0  0
   -5.0622   -3.2395   -1.3025 C   0  0  0  0  0  0  0  0  0  0  0  0
   -5.3798   -2.7021   -0.0788 C   0  0  0  0  0  0  0  0  0  0  0  0
   -4.4152   -2.4545    0.8475 C   0  0  0  0  0  0  0  0  0  0  0  0
   -3.1111   -2.7436    0.5587 C   0  0  0  0  0  0  0  0  0  0  0  0
    3.4988   -1.9905    0.1185 C   0  0  0  0  0  0  0  0  0  0  0  0
    4.3113   -3.0621    0.2667 C   0  0  0  0  0  0  0  0  0  0  0  0
    5.0385   -3.4293   -0.8433 C   0  0  0  0  0  0  0  0  0  0  0  0
    4.9681   -2.7668   -2.0551 C   0  0  0  0  0  0  0  0  0  0  0  0
    4.1157   -1.6833   -2.1249 C   0  0  0  0  0  0  0  0  0  0  0  0
    3.3655   -1.2750   -1.0394 C   0  0  0  0  0  0  0  0  0  0  0  0
  2  1  1  1
  2  3  1  0
  3  4  1  0
  4  5  2  0
  4  6  1  0
  6  7  2  3
  7  8  1  0
  8  9  2  0
  9 10  1  0
 10 11  2  0
 11 12  1  0
 12 13  2  0
 12 14  1  0
 14 15  1  0
 15 16  1  0
 16 17  1  0
  6 18  1  0
 18 19  2  0
 18 20  1  0
 20 21  1  0
 21 22  1  1
 21 23  1  0
 23 24  2  0
 24 25  1  0
 25 26  2  0
 26 27  1  0
 27 28  2  0
  2 29  1  0
 29 30  2  0
 30 31  1  0
 31 32  2  0
 32 33  1  0
 33 34  2  0
 13  8  1  0
 28 23  1  0
 34 29  1  0
 17 11  1  0
M  END
>  <zinc_id>  (1) 
ZINC000003260869

>  <smiles>  (1) 
C[C@H](NC(=O)C(=Cc1ccc2c(c1)OCCO2)C(=O)N[C@@H](C)c1ccccc1)c1ccccc1

$$$$
