
     RDKit          3D

 33 36  0  0  0  0  0  0  0  0999 V2000
   -0.6101    6.5307   -0.1657 C   0  0  0  0  0  0  0  0  0  0  0  0
   -1.6493    5.6321    0.4926 C   0  0  0  0  0  0  0  0  0  0  0  0
   -1.2058    4.1682    0.3387 C   0  0  0  0  0  0  0  0  0  0  0  0
   -1.1132    3.8971   -1.1229 C   0  0  0  0  0  0  0  0  0  0  0  0
   -0.7145    2.6068   -1.5041 N   0  0  0  0  0  0  0  0  0  0  0  0
   -1.2951    1.3551   -1.2487 C   0  0  0  0  0  0  0  0  0  0  0  0
   -2.3426    1.3722   -0.5713 O   0  0  0  0  0  0  0  0  0  0  0  0
   -0.7504    0.0892   -1.7208 C   0  0  0  0  0  0  0  0  0  0  0  0
   -1.1810   -1.0849   -1.5514 C   0  0  0  0  0  0  0  0  0  0  0  0
   -2.3839   -1.5718   -0.8166 C   0  0  0  0  0  0  0  0  0  0  0  0
   -2.7896   -1.0947    0.3915 C   0  0  0  0  0  0  0  0  0  0  0  0
   -3.9185   -1.5838    1.0260 C   0  0  0  0  0  0  0  0  0  0  0  0
   -4.6663   -2.5914    0.4203 C   0  0  0  0  0  0  0  0  0  0  0  0
   -5.8231   -3.1384    1.0099 N   0  0  0  0  0  0  0  0  0  0  0  0
   -7.1203   -2.5387    0.7742 C   0  0  0  0  0  0  0  0  0  0  0  0
   -5.7608   -4.3109    1.8633 C   0  0  0  0  0  0  0  0  0  0  0  0
   -4.2644   -3.0755   -0.7935 C   0  0  0  0  0  0  0  0  0  0  0  0
   -3.1435   -2.5708   -1.3955 C   0  0  0  0  0  0  0  0  0  0  0  0
   -0.2707   -1.9168   -2.1954 N   0  0  0  0  0  0  0  0  0  0  0  0
    0.5998   -1.3671   -2.9017 O   0  0  0  0  0  0  0  0  0  0  0  0
    0.5745    0.0963   -2.5962 C   0  0  2  0  0  0  0  0  0  0  0  0
    1.6046    0.1530   -1.4043 C   0  0  0  0  0  0  0  0  0  0  0  0
    1.4674    0.7718   -0.2479 C   0  0  0  0  0  0  0  0  0  0  0  0
    2.4499    0.7631    0.7214 C   0  0  0  0  0  0  0  0  0  0  0  0
    3.6163    0.0962    0.4980 C   0  0  0  0  0  0  0  0  0  0  0  0
    4.6789    0.0858    1.5336 C   0  0  0  0  0  0  0  0  0  0  0  0
    4.8762    1.1447    2.3885 C   0  0  0  0  0  0  0  0  0  0  0  0
    5.8628    1.1335    3.3469 C   0  0  0  0  0  0  0  0  0  0  0  0
    6.6953    0.0528    3.4852 C   0  0  0  0  0  0  0  0  0  0  0  0
    6.5022   -1.0116    2.6307 C   0  0  0  0  0  0  0  0  0  0  0  0
    5.5143   -1.0049    1.6694 C   0  0  0  0  0  0  0  0  0  0  0  0
    3.7933   -0.5594   -0.6944 C   0  0  0  0  0  0  0  0  0  0  0  0
    2.7677   -0.5279   -1.6596 C   0  0  0  0  0  0  0  0  0  0  0  0
  1  2  1  0
  2  3  1  0
  3  4  1  0
  4  5  1  0
  5  6  1  0
  6  7  2  0
  6  8  1  0
  8  9  2  0
  9 10  1  0
 10 11  2  0
 11 12  1  0
 12 13  2  0
 13 14  1  0
 14 15  1  0
 14 16  1  0
 13 17  1  0
 17 18  2  0
  9 19  1  0
 19 20  1  0
 20 21  1  0
 21 22  1  1
 22 23  2  0
 23 24  1  0
 24 25  2  0
 25 26  1  0
 26 27  2  0
 27 28  1  0
 28 29  2  0
 29 30  1  0
 30 31  2  0
 25 32  1  0
 32 33  2  0
 21  8  1  0
 33 22  1  0
 18 10  1  0
 31 26  1  0
M  END
>  <zinc_id>  (1) 
ZINC000002465216

>  <smiles>  (1) 
CCCCNC(=O)C1=C(c2ccc(N(C)C)cc2)NO[C@@H]1c1ccc(-c2ccccc2)cc1

$$$$
