
     RDKit          3D

 32 35  0  0  0  0  0  0  0  0999 V2000
    3.6822   -1.3688    3.4107 C   0  0  0  0  0  0  0  0  0  0  0  0
    4.7664   -1.4074    2.3482 C   0  0  0  0  0  0  0  0  0  0  0  0
    4.3982   -0.5581    1.2200 N   0  0  0  0  0  0  0  0  0  0  0  0
    5.4619   -0.6261    0.2311 C   0  0  0  0  0  0  0  0  0  0  0  0
    5.5035   -2.0178   -0.3817 C   0  0  0  0  0  0  0  0  0  0  0  0
    3.2032   -1.0962    0.5734 C   0  0  0  0  0  0  0  0  0  0  0  0
    2.8775   -0.1779   -0.5703 C   0  0  0  0  0  0  0  0  0  0  0  0
    1.6409   -0.6369   -1.3298 C   0  0  0  0  0  0  0  0  0  0  0  0
    0.5257   -0.6918   -0.5536 N   0  0  0  0  0  0  0  0  0  0  0  0
   -0.4649    0.0703    0.0298 C   0  0  0  0  0  0  0  0  0  0  0  0
   -1.3617   -0.5615    0.9208 C   0  0  0  0  0  0  0  0  0  0  0  0
   -1.1786   -1.9832    1.1871 C   0  0  0  0  0  0  0  0  0  0  0  0
   -1.6353   -2.8727    0.0912 C   0  0  0  0  0  0  0  0  0  0  0  0
   -0.7585   -3.2630   -0.9130 C   0  0  0  0  0  0  0  0  0  0  0  0
   -1.1664   -4.0926   -1.9440 C   0  0  0  0  0  0  0  0  0  0  0  0
   -2.4572   -4.5720   -2.0269 C   0  0  0  0  0  0  0  0  0  0  0  0
   -3.3346   -4.1809   -1.0214 C   0  0  0  0  0  0  0  0  0  0  0  0
   -2.9218   -3.3540    0.0030 C   0  0  0  0  0  0  0  0  0  0  0  0
   -2.3561    0.1747    1.4949 C   0  0  0  0  0  0  0  0  0  0  0  0
   -3.3401   -0.4458    2.4522 C   0  0  0  0  0  0  0  0  0  0  0  0
   -2.5212    1.5185    1.2377 C   0  0  0  0  0  0  0  0  0  0  0  0
   -3.5733    2.2930    1.8478 C   0  0  0  0  0  0  0  0  0  0  0  0
   -4.4111    2.9208    2.3584 N   0  0  0  0  0  0  0  0  0  0  0  0
   -1.6186    2.0787    0.3606 C   0  0  0  0  0  0  0  0  0  0  0  0
   -1.5579    3.3580   -0.0827 N   0  0  0  0  0  0  0  0  0  0  0  0
   -0.5423    3.5019   -0.9470 C   0  0  0  0  0  0  0  0  0  0  0  0
   -0.0584    4.5717   -1.6813 C   0  0  0  0  0  0  0  0  0  0  0  0
    1.0216    4.4347   -2.5259 C   0  0  0  0  0  0  0  0  0  0  0  0
    1.6259    3.1930   -2.6317 C   0  0  0  0  0  0  0  0  0  0  0  0
    1.1189    2.1549   -1.8878 C   0  0  0  0  0  0  0  0  0  0  0  0
    0.0478    2.2465   -1.0356 C   0  0  0  0  0  0  0  0  0  0  0  0
   -0.6157    1.3901   -0.2343 N   0  0  0  0  0  0  0  0  0  0  0  0
  1  2  1  0
  2  3  1  0
  3  4  1  0
  4  5  1  0
  3  6  1  0
  6  7  1  0
  7  8  1  0
  8  9  1  0
  9 10  1  0
 10 11  2  0
 11 12  1  0
 12 13  1  0
 13 14  2  0
 14 15  1  0
 15 16  2  0
 16 17  1  0
 17 18  2  0
 11 19  1  0
 19 20  1  0
 19 21  2  0
 21 22  1  0
 22 23  3  0
 21 24  1  0
 24 25  2  0
 25 26  1  0
 26 27  2  0
 27 28  1  0
 28 29  2  0
 29 30  1  0
 30 31  2  0
 31 32  1  0
 32 10  1  0
 18 13  1  0
 32 24  1  0
 31 26  1  0
M  END
>  <zinc_id>  (1) 
ZINC000004192482

>  <smiles>  (1) 
CCN(CC)CCCNc1c(Cc2ccccc2)c(C)c(C#N)c2nc3ccccc3n12

$$$$
