
     RDKit          3D

 29 32  0  0  0  0  0  0  0  0999 V2000
   -1.9630   -2.3347    0.2502 O   0  0  0  0  0  0  0  0  0  0  0  0
   -2.9666   -1.5916    0.3215 C   0  0  0  0  0  0  0  0  0  0  0  0
   -2.7910   -0.2994    0.2845 N   0  0  0  0  0  0  0  0  0  0  0  0
   -2.0562    0.8460    0.2031 C   0  0  0  0  0  0  0  0  0  0  0  0
   -2.8586    2.4307    0.2431 S   0  0  0  0  0  0  0  0  0  0  0  0
   -1.5156    3.4251    0.1132 C   0  0  0  0  0  0  0  0  0  0  0  0
   -0.4816    2.5485    0.0418 C   0  0  0  0  0  0  0  0  0  0  0  0
   -0.7439    1.2297    0.0865 C   0  0  0  0  0  0  0  0  0  0  0  0
    0.3644    0.2243    0.0104 C   0  0  0  0  0  0  0  0  0  0  0  0
    0.2458   -0.9842    0.0410 O   0  0  0  0  0  0  0  0  0  0  0  0
    1.7396    0.6679   -0.1127 N   0  0  0  0  0  0  0  0  0  0  0  0
    2.8357   -0.2770   -0.1888 C   0  0  0  0  0  0  0  0  0  0  0  0
    4.0931    0.5283   -0.3083 C   0  0  0  0  0  0  0  0  0  0  0  0
    5.3071   -0.3165   -0.3960 C   0  0  0  0  0  0  0  0  0  0  0  0
    5.8214   -0.7604   -1.5791 C   0  0  0  0  0  0  0  0  0  0  0  0
    6.9689   -1.5518   -1.5676 C   0  0  0  0  0  0  0  0  0  0  0  0
    7.5857   -1.8879   -0.3716 C   0  0  0  0  0  0  0  0  0  0  0  0
    7.0697   -1.4426    0.8135 C   0  0  0  0  0  0  0  0  0  0  0  0
    5.9334   -0.6612    0.7720 C   0  0  0  0  0  0  0  0  0  0  0  0
    0.9050    3.2270   -0.0788 C   0  0  0  0  0  0  0  0  0  0  0  0
    0.8744    4.3868    0.9326 C   0  0  0  0  0  0  0  0  0  0  0  0
   -0.0182    5.4140    0.2879 C   0  0  0  0  0  0  0  0  0  0  0  0
   -1.3683    4.9067    0.0695 C   0  0  0  0  0  0  0  0  0  0  0  0
   -4.2887   -2.2889    0.4443 C   0  0  0  0  0  0  0  0  0  0  0  0
   -5.4533   -1.5899    0.5298 C   0  0  0  0  0  0  0  0  0  0  0  0
   -6.6824   -2.2322    0.6439 C   0  0  0  0  0  0  0  0  0  0  0  0
   -6.7105   -3.6146    0.6702 C   0  0  0  0  0  0  0  0  0  0  0  0
   -5.5194   -4.3441    0.5830 C   0  0  0  0  0  0  0  0  0  0  0  0
   -4.3270   -3.6582    0.4712 C   0  0  0  0  0  0  0  0  0  0  0  0
  1  2  2  0
  2  3  1  0
  3  4  1  0
  4  5  1  0
  5  6  1  0
  6  7  2  0
  7  8  1  0
  8  9  1  0
  9 10  2  0
  9 11  1  0
 11 12  1  0
 12 13  1  0
 13 14  1  0
 14 15  2  0
 15 16  1  0
 16 17  2  0
 17 18  1  0
 18 19  2  0
  7 20  1  0
 20 21  1  0
 21 22  1  0
 22 23  1  0
  2 24  1  0
 24 25  2  0
 25 26  1  0
 26 27  2  0
 27 28  1  0
 28 29  2  0
  8  4  2  0
 19 14  1  0
 29 24  1  0
 23  6  1  0
M  END
>  <zinc_id>  (1) 
ZINC000001170447

>  <smiles>  (1) 
O=C(Nc1sc2c(c1C(=O)NCCc1ccccc1)CCCC2)c1ccccc1

$$$$
