
     RDKit          3D

 33 37  0  0  0  0  0  0  0  0999 V2000
    1.7255   -1.4374   -1.9050 C   0  0  0  0  0  0  0  0  0  0  0  0
    2.5138   -2.2185   -0.8771 C   0  0  0  0  0  0  0  0  0  0  0  0
    3.5402   -3.1158   -1.4275 C   0  0  0  0  0  0  0  0  0  0  0  0
    3.4087   -1.1178   -0.0630 C   0  0  2  0  0  0  0  0  0  0  0  0
    3.4847   -1.9123    1.3601 C   0  0  0  0  0  0  0  0  0  0  0  0
    2.8968   -3.2283    1.0855 C   0  0  0  0  0  0  0  0  0  0  0  0
    1.7832   -2.7327    0.1757 C   0  0  2  0  0  0  0  0  0  0  0  0
    0.7446   -3.7519    0.0782 C   0  0  0  0  0  0  0  0  0  0  0  0
    1.1995   -1.4886    1.0695 C   0  0  2  0  0  0  0  0  0  0  0  0
   -0.0715   -1.3396    0.1728 O   0  0  0  0  0  0  0  0  0  0  0  0
   -0.9421   -0.3577    0.5378 C   0  0  0  0  0  0  0  0  0  0  0  0
   -0.7036    0.3476    1.5220 O   0  0  0  0  0  0  0  0  0  0  0  0
   -2.1694   -0.1615   -0.2718 C   0  0  0  0  0  0  0  0  0  0  0  0
   -2.2226   -1.0755   -1.3382 O   0  0  0  0  0  0  0  0  0  0  0  0
   -3.3620   -0.3895    0.5873 C   0  0  0  0  0  0  0  0  0  0  0  0
   -3.4754    0.3848    1.7219 C   0  0  0  0  0  0  0  0  0  0  0  0
   -4.5513    0.2282    2.5612 C   0  0  0  0  0  0  0  0  0  0  0  0
   -5.5475   -0.7000    2.3015 C   0  0  0  0  0  0  0  0  0  0  0  0
   -5.4198   -1.4770    1.1499 C   0  0  0  0  0  0  0  0  0  0  0  0
   -4.3332   -1.3237    0.2965 C   0  0  0  0  0  0  0  0  0  0  0  0
   -2.2165    1.2007   -0.8089 C   0  0  0  0  0  0  0  0  0  0  0  0
   -2.1378    1.4208   -2.1624 C   0  0  0  0  0  0  0  0  0  0  0  0
   -2.1916    2.7291   -2.6206 C   0  0  0  0  0  0  0  0  0  0  0  0
   -2.3198    3.7638   -1.7446 C   0  0  0  0  0  0  0  0  0  0  0  0
   -2.3999    3.5491   -0.3752 C   0  0  0  0  0  0  0  0  0  0  0  0
   -2.3448    2.2481    0.0598 C   0  0  0  0  0  0  0  0  0  0  0  0
    1.9913   -0.2532    0.2123 C   0  0  1  0  0  0  0  0  0  0  0  0
    2.5485    0.4638    1.5277 C   0  0  0  0  0  0  0  0  0  0  0  0
    3.7168    1.1899    1.0002 N   0  0  0  0  0  0  0  0  0  0  0  0
    3.1827    2.2416    0.1301 C   0  0  0  0  0  0  0  0  0  0  0  0
    4.2670    3.3159    0.1043 C   0  0  0  0  0  0  0  0  0  0  0  0
    5.0836    3.0418    1.3228 C   0  0  0  0  0  0  0  0  0  0  0  0
    4.3222    1.9561    2.0701 C   0  0  0  0  0  0  0  0  0  0  0  0
  1  2  1  0
  2  3  1  0
  2  4  1  0
  4  5  1  1
  5  6  1  0
  6  7  1  0
  7  8  1  6
  7  9  1  0
  9 10  1  6
 10 11  1  0
 11 12  2  0
 11 13  1  0
 13 14  1  0
 13 15  1  0
 15 16  2  0
 16 17  1  0
 17 18  2  0
 18 19  1  0
 19 20  2  0
 13 21  1  0
 21 22  2  0
 22 23  1  0
 23 24  2  0
 24 25  1  0
 25 26  2  0
  9 27  1  0
 27 28  1  1
 28 29  1  0
 29 30  1  0
 30 31  1  0
 31 32  1  0
 32 33  1  0
  7  2  1  0
 20 15  1  0
 26 21  1  0
 33 29  1  0
 27  4  1  0
M  END
>  <zinc_id>  (1) 
ZINC000003632166

>  <smiles>  (1) 
CC1(C)[C@@H]2CC[C@@]1(C)[C@H](OC(=O)C(O)(c1ccccc1)c1ccccc1)[C@H]2CN1CCCC1

$$$$
