
     RDKit          3D

 31 34  0  0  0  0  0  0  0  0999 V2000
   -3.7222    2.1552   -3.8909 C   0  0  0  0  0  0  0  0  0  0  0  0
   -3.6901    0.7355   -4.2206 N   0  0  0  0  0  0  0  0  0  0  0  0
   -3.7810   -0.0274   -3.0750 O   0  0  0  0  0  0  0  0  0  0  0  0
   -4.4301    0.5193   -1.9807 C   0  0  0  0  0  0  0  0  0  0  0  0
   -4.9112    1.6215   -1.9937 O   0  0  0  0  0  0  0  0  0  0  0  0
   -4.4969   -0.4274   -0.6825 C   0  0  2  0  0  0  0  0  0  0  0  0
   -4.6346    0.7957    0.4228 C   0  0  0  0  0  0  0  0  0  0  0  0
   -4.7131    0.0561    1.7432 C   0  0  0  0  0  0  0  0  0  0  0  0
   -4.8421    1.1348    2.7981 C   0  0  0  0  0  0  0  0  0  0  0  0
   -3.5004    1.7770    3.0805 C   0  0  0  0  0  0  0  0  0  0  0  0
   -2.6314    0.7296    3.7376 C   0  0  0  0  0  0  0  0  0  0  0  0
   -3.1609   -0.6705    3.4927 C   0  0  0  0  0  0  0  0  0  0  0  0
   -3.5039   -0.7998    2.0105 C   0  0  0  0  0  0  0  0  0  0  0  0
   -2.8906   -0.5781   -0.5422 C   0  0  0  0  0  0  0  0  0  0  0  0
   -2.4317   -1.8631   -0.4458 C   0  0  0  0  0  0  0  0  0  0  0  0
   -1.0428   -1.9966   -0.3269 C   0  0  0  0  0  0  0  0  0  0  0  0
   -0.2161   -0.8849   -0.3109 C   0  0  0  0  0  0  0  0  0  0  0  0
    1.1481   -0.9868   -0.1955 O   0  0  0  0  0  0  0  0  0  0  0  0
    1.9196    0.1911   -0.1871 C   0  0  0  0  0  0  0  0  0  0  0  0
    3.3426   -0.2174   -0.0528 C   0  0  0  0  0  0  0  0  0  0  0  0
    3.7527   -1.5316    0.0411 C   0  0  0  0  0  0  0  0  0  0  0  0
    5.0823   -1.8833    0.1652 C   0  0  0  0  0  0  0  0  0  0  0  0
    6.0617   -0.9014    0.1995 C   0  0  0  0  0  0  0  0  0  0  0  0
    7.4043   -1.2160    0.3229 C   0  0  0  0  0  0  0  0  0  0  0  0
    8.3586   -0.2224    0.3546 C   0  0  0  0  0  0  0  0  0  0  0  0
    7.9103    1.0767    0.2584 C   0  0  0  0  0  0  0  0  0  0  0  0
    6.5908    1.4023    0.1363 C   0  0  0  0  0  0  0  0  0  0  0  0
    5.6309    0.4023    0.1044 C   0  0  0  0  0  0  0  0  0  0  0  0
    4.3072    0.7181   -0.0176 N   0  0  0  0  0  0  0  0  0  0  0  0
   -0.7642    0.3688   -0.4132 C   0  0  0  0  0  0  0  0  0  0  0  0
   -2.1459    0.5229   -0.5325 C   0  0  0  0  0  0  0  0  0  0  0  0
  1  2  1  0
  2  3  1  0
  3  4  1  0
  4  5  2  0
  4  6  1  0
  6  7  1  1
  7  8  1  0
  8  9  1  0
  9 10  1  0
 10 11  1  0
 11 12  1  0
 12 13  1  0
  6 14  1  0
 14 15  2  0
 15 16  1  0
 16 17  2  0
 17 18  1  0
 18 19  1  0
 19 20  1  0
 20 21  2  0
 21 22  1  0
 22 23  2  0
 23 24  1  0
 24 25  2  0
 25 26  1  0
 26 27  2  0
 27 28  1  0
 28 29  2  0
 17 30  1  0
 30 31  2  0
 13  8  1  0
 31 14  1  0
 29 20  1  0
 28 23  1  0
M  END
>  <zinc_id>  (1) 
ZINC000000837059

>  <smiles>  (1) 
CNOC(=O)[C@H](CC1CCCCC1)c1ccc(OCc2ccc3ccccc3n2)cc1

$$$$
