
     RDKit          3D

 31 34  0  0  0  0  0  0  0  0999 V2000
    7.2124   -1.4949   -1.6687 C   0  0  0  0  0  0  0  0  0  0  0  0
    7.8263   -0.3465   -0.9033 C   0  0  0  0  0  0  0  0  0  0  0  0
    7.8776   -0.5868    0.5795 C   0  0  0  0  0  0  0  0  0  0  0  0
    7.1814    0.9926   -1.2571 C   0  0  0  0  0  0  0  0  0  0  0  0
    5.7270    0.8848   -0.9064 C   0  0  0  0  0  0  0  0  0  0  0  0
    4.8678    0.3958   -1.8583 C   0  0  0  0  0  0  0  0  0  0  0  0
    3.5089    0.2869   -1.5574 C   0  0  0  0  0  0  0  0  0  0  0  0
    3.0208    0.6606   -0.3272 C   0  0  0  0  0  0  0  0  0  0  0  0
    1.6280    0.5500    0.0065 C   0  0  0  0  0  0  0  0  0  0  0  0
    0.6821    0.0463   -0.8927 C   0  0  0  0  0  0  0  0  0  0  0  0
   -0.6360   -0.0487   -0.5325 C   0  0  0  0  0  0  0  0  0  0  0  0
   -1.6670   -0.5901   -1.4191 C   0  0  0  0  0  0  0  0  0  0  0  0
   -1.3873   -0.8945   -2.6075 O   0  0  0  0  0  0  0  0  0  0  0  0
   -2.9391   -0.7617   -0.9223 N   0  0  0  0  0  0  0  0  0  0  0  0
   -4.0646   -1.3527   -1.8554 C   0  0  1  0  0  0  0  0  0  0  0  0
   -3.9241   -2.8950   -1.2780 C   0  0  0  0  0  0  0  0  0  0  0  0
   -5.2436   -0.9306   -0.8455 C   0  0  0  0  0  0  0  0  0  0  0  0
   -5.2668    0.3824   -0.4763 C   0  0  0  0  0  0  0  0  0  0  0  0
   -6.2520    0.8049    0.3916 C   0  0  0  0  0  0  0  0  0  0  0  0
   -7.1734   -0.0381    0.8729 N   0  0  0  0  0  0  0  0  0  0  0  0
   -7.1017   -1.3345    0.4702 C   0  0  0  0  0  0  0  0  0  0  0  0
   -6.1360   -1.8079   -0.3971 C   0  0  0  0  0  0  0  0  0  0  0  0
   -0.9696    0.3714    0.7353 C   0  0  0  0  0  0  0  0  0  0  0  0
   -2.2848    0.2934    1.1386 C   0  0  0  0  0  0  0  0  0  0  0  0
   -2.6477    0.7056    2.3994 C   0  0  0  0  0  0  0  0  0  0  0  0
   -1.7304    1.2009    3.2877 C   0  0  0  0  0  0  0  0  0  0  0  0
   -0.4204    1.2902    2.9158 C   0  0  0  0  0  0  0  0  0  0  0  0
   -0.0653    0.8720    1.6445 C   0  0  0  0  0  0  0  0  0  0  0  0
    1.2131    0.9347    1.2193 N   0  0  0  0  0  0  0  0  0  0  0  0
    3.9048    1.1416    0.5916 C   0  0  0  0  0  0  0  0  0  0  0  0
    5.2598    1.2680    0.3384 C   0  0  0  0  0  0  0  0  0  0  0  0
  1  2  1  0
  2  3  1  0
  2  4  1  0
  4  5  1  0
  5  6  2  0
  6  7  1  0
  7  8  2  0
  8  9  1  0
  9 10  2  0
 10 11  1  0
 11 12  1  0
 12 13  2  0
 12 14  1  0
 14 15  1  0
 15 16  1  1
 15 17  1  0
 17 18  2  0
 18 19  1  0
 19 20  2  0
 20 21  1  0
 21 22  2  0
 11 23  2  0
 23 24  1  0
 24 25  2  0
 25 26  1  0
 26 27  2  0
 27 28  1  0
 28 29  2  0
  8 30  1  0
 30 31  2  0
 31  5  1  0
 29  9  1  0
 22 17  1  0
 28 23  1  0
M  END
>  <zinc_id>  (1) 
ZINC000000647792

>  <smiles>  (1) 
CC(C)Cc1ccc(-c2cc(C(=O)N[C@@H](C)c3ccncc3)c3ccccc3n2)cc1

$$$$
