
     RDKit          3D

 32 35  0  0  0  0  0  0  0  0999 V2000
   -2.3887   -2.4087    3.0438 C   0  0  0  0  0  0  0  0  0  0  0  0
   -2.7579   -1.2033    1.9938 C   0  0  1  0  0  0  0  0  0  0  0  0
   -1.3979   -1.3161    1.2305 N   0  0  0  0  0  0  0  0  0  0  0  0
   -0.9884   -0.0835    0.6845 C   0  0  0  0  0  0  0  0  0  0  0  0
   -1.6786    0.9685    0.8235 O   0  0  0  0  0  0  0  0  0  0  0  0
    0.2936   -0.0303   -0.0748 C   0  0  0  0  0  0  0  0  0  0  0  0
    0.7278    1.1476   -0.6216 C   0  0  0  0  0  0  0  0  0  0  0  0
    0.0743    2.4353   -0.5625 N   0  0  0  0  0  0  0  0  0  0  0  0
    0.6658    3.5367   -1.1818 C   0  0  0  0  0  0  0  0  0  0  0  0
    1.7414    3.4273   -1.7806 O   0  0  0  0  0  0  0  0  0  0  0  0
   -0.0044    4.8542   -1.1205 C   0  0  0  0  0  0  0  0  0  0  0  0
    0.4449    6.0301   -1.6756 C   0  0  0  0  0  0  0  0  0  0  0  0
   -0.4947    6.9864   -1.3673 C   0  0  0  0  0  0  0  0  0  0  0  0
   -1.4758    6.3583   -0.6394 C   0  0  0  0  0  0  0  0  0  0  0  0
   -1.1393    5.1181   -0.5257 O   0  0  0  0  0  0  0  0  0  0  0  0
    2.1989    0.7179   -1.3706 S   0  0  0  0  0  0  0  0  0  0  0  0
    2.2304   -0.9715   -0.9673 C   0  0  0  0  0  0  0  0  0  0  0  0
    1.0747   -1.1086   -0.2603 C   0  0  0  0  0  0  0  0  0  0  0  0
    0.9448   -2.5727    0.1859 C   0  0  0  0  0  0  0  0  0  0  0  0
    2.1668   -2.6647    1.0641 C   0  0  0  0  0  0  0  0  0  0  0  0
    3.4432   -2.9503    0.1259 C   0  0  2  0  0  0  0  0  0  0  0  0
    4.4566   -1.8801    0.7738 C   0  0  0  0  0  0  0  0  0  0  0  0
    4.6781   -2.1720    2.2027 C   0  0  0  0  0  0  0  0  0  0  0  0
    4.1485   -0.4986    0.4350 C   0  0  0  0  0  0  0  0  0  0  0  0
    5.6891   -2.2039   -0.0984 C   0  0  0  0  0  0  0  0  0  0  0  0
    3.0768   -2.1373   -1.1851 C   0  0  0  0  0  0  0  0  0  0  0  0
   -3.5604   -2.1481    0.9883 C   0  0  0  0  0  0  0  0  0  0  0  0
   -4.7958   -1.6985    0.5950 C   0  0  0  0  0  0  0  0  0  0  0  0
   -5.5156   -2.4788   -0.2636 C   0  0  0  0  0  0  0  0  0  0  0  0
   -5.0298   -3.6796   -0.7274 C   0  0  0  0  0  0  0  0  0  0  0  0
   -3.7856   -4.0769   -0.2978 C   0  0  0  0  0  0  0  0  0  0  0  0
   -3.0426   -3.2965    0.5734 C   0  0  0  0  0  0  0  0  0  0  0  0
  2  1  1  1
  2  3  1  0
  3  4  1  0
  4  5  2  0
  4  6  1  0
  6  7  2  0
  7  8  1  0
  8  9  1  0
  9 10  2  0
  9 11  1  0
 11 12  2  0
 12 13  1  0
 13 14  2  0
 14 15  1  0
  7 16  1  0
 16 17  1  0
 17 18  2  0
 18 19  1  0
 19 20  1  0
 20 21  1  0
 21 22  1  1
 22 23  1  0
 22 24  1  0
 22 25  1  0
 21 26  1  0
  2 27  1  0
 27 28  2  0
 28 29  1  0
 29 30  2  0
 30 31  1  0
 31 32  2  0
 18  6  1  0
 32 27  1  0
 15 11  1  0
 26 17  1  0
M  END
>  <zinc_id>  (1) 
ZINC000000643904

>  <smiles>  (1) 
C[C@@H](NC(=O)c1c(NC(=O)c2ccco2)sc2c1CC[C@H](C(C)(C)C)C2)c1ccccc1

$$$$
