
     RDKit          3D

 33 36  0  0  0  0  0  0  0  0999 V2000
   -4.1389   -5.2885   -2.2866 C   0  0  0  0  0  0  0  0  0  0  0  0
   -3.2167   -4.2916   -1.8871 O   0  0  0  0  0  0  0  0  0  0  0  0
   -3.2357   -3.7453   -0.6134 C   0  0  0  0  0  0  0  0  0  0  0  0
   -4.1641   -4.1445    0.3513 C   0  0  0  0  0  0  0  0  0  0  0  0
   -4.1922   -3.6146    1.6064 C   0  0  0  0  0  0  0  0  0  0  0  0
   -3.2559   -2.6394    1.9283 C   0  0  0  0  0  0  0  0  0  0  0  0
   -2.3445   -2.2522    0.9707 C   0  0  0  0  0  0  0  0  0  0  0  0
   -2.3052   -2.7791   -0.3000 C   0  0  0  0  0  0  0  0  0  0  0  0
   -1.3330   -2.3447   -1.2737 N   0  0  0  0  0  0  0  0  0  0  0  0
   -0.3955   -1.3297   -0.8619 C   0  0  0  0  0  0  0  0  0  0  0  0
   -0.7760   -0.0690   -0.5780 C   0  0  0  0  0  0  0  0  0  0  0  0
   -2.4519    0.5011   -0.6713 S   0  0  0  0  0  0  0  0  0  0  0  0
   -2.7162    2.1869   -0.2601 C   0  0  0  0  0  0  0  0  0  0  0  0
   -1.7232    3.0350    0.1099 C   0  0  0  0  0  0  0  0  0  0  0  0
   -1.8932    4.3482    0.4353 C   0  0  0  0  0  0  0  0  0  0  0  0
   -3.1583    4.8837    0.3948 C   0  0  0  0  0  0  0  0  0  0  0  0
   -3.4014    6.2988    0.7368 C   0  0  0  0  0  0  0  0  0  0  0  0
   -4.1988    4.0538    0.0228 C   0  0  0  0  0  0  0  0  0  0  0  0
   -4.0069    2.7372   -0.3004 C   0  0  0  0  0  0  0  0  0  0  0  0
    0.4082    0.6796   -0.2017 C   0  0  0  0  0  0  0  0  0  0  0  0
    0.5440    1.8815    0.1424 O   0  0  0  0  0  0  0  0  0  0  0  0
    1.5488   -0.1970   -0.2700 N   0  0  0  0  0  0  0  0  0  0  0  0
    2.8901    0.1526    0.0225 C   0  0  0  0  0  0  0  0  0  0  0  0
    3.1776    1.1455    0.9367 C   0  0  0  0  0  0  0  0  0  0  0  0
    4.4981    1.4891    1.2255 C   0  0  0  0  0  0  0  0  0  0  0  0
    5.5529    0.8519    0.6110 C   0  0  0  0  0  0  0  0  0  0  0  0
    6.9771    1.2225    0.9230 C   0  0  0  0  0  0  0  0  0  0  0  0
    7.6645    1.7721   -0.3099 C   0  0  0  0  0  0  0  0  0  0  0  0
    7.7262    0.0313    1.4773 C   0  0  0  0  0  0  0  0  0  0  0  0
    5.2630   -0.1411   -0.3033 C   0  0  0  0  0  0  0  0  0  0  0  0
    3.9495   -0.4733   -0.5817 C   0  0  0  0  0  0  0  0  0  0  0  0
    1.0245   -1.4367   -0.6816 C   0  0  0  0  0  0  0  0  0  0  0  0
    1.6830   -2.5241   -0.8777 O   0  0  0  0  0  0  0  0  0  0  0  0
  1  2  1  0
  2  3  1  0
  3  4  2  0
  4  5  1  0
  5  6  2  0
  6  7  1  0
  7  8  2  0
  8  9  1  0
  9 10  1  0
 10 11  2  0
 11 12  1  0
 12 13  1  0
 13 14  2  0
 14 15  1  0
 15 16  2  0
 16 17  1  0
 16 18  1  0
 18 19  2  0
 11 20  1  0
 20 21  2  0
 20 22  1  0
 22 23  1  0
 23 24  2  0
 24 25  1  0
 25 26  2  0
 26 27  1  0
 27 28  1  0
 27 29  1  0
 26 30  1  0
 30 31  2  0
 22 32  1  0
 32 33  2  0
  8  3  1  0
 32 10  1  0
 19 13  1  0
 31 23  1  0
M  END
>  <zinc_id>  (1) 
ZINC000001954986

>  <smiles>  (1) 
COc1ccccc1NC1=C(Sc2ccc(C)cc2)C(=O)N(c2ccc(C(C)C)cc2)C1=O

$$$$
