
     RDKit          3D

 31 34  0  0  0  0  0  0  0  0999 V2000
   -5.4533   -0.1652   -1.6594 C   0  0  0  0  0  0  0  0  0  0  0  0
   -5.8197   -0.4162   -0.2006 C   0  0  0  0  0  0  0  0  0  0  0  0
   -4.7942   -1.3457    0.3262 C   0  0  0  0  0  0  0  0  0  0  0  0
   -5.1171   -2.6707    0.4853 C   0  0  0  0  0  0  0  0  0  0  0  0
   -4.1625   -3.5217    0.9730 C   0  0  0  0  0  0  0  0  0  0  0  0
   -2.9153   -3.0244    1.2884 C   0  0  0  0  0  0  0  0  0  0  0  0
   -2.5851   -1.6967    1.1308 C   0  0  0  0  0  0  0  0  0  0  0  0
   -1.3204   -1.2418    1.4608 C   0  0  0  0  0  0  0  0  0  0  0  0
   -0.1680   -2.4641    2.0655 S   0  0  0  0  0  0  0  0  0  0  0  0
    0.7911   -3.1572    0.6894 C   0  0  0  0  0  0  0  0  0  0  0  0
    1.7373   -2.1413    0.1314 C   0  0  0  0  0  0  0  0  0  0  0  0
    1.2573   -1.2820   -0.6494 O   0  0  0  0  0  0  0  0  0  0  0  0
    3.1014   -2.0928    0.4219 N   0  0  0  0  0  0  0  0  0  0  0  0
    4.0378   -1.1498   -0.0793 C   0  0  0  0  0  0  0  0  0  0  0  0
    3.7563   -0.1067   -0.9088 C   0  0  0  0  0  0  0  0  0  0  0  0
    4.7233    0.7906   -1.3668 C   0  0  0  0  0  0  0  0  0  0  0  0
    6.0361    0.6287   -0.9698 C   0  0  0  0  0  0  0  0  0  0  0  0
    7.0427    1.4898   -1.3927 O   0  0  0  0  0  0  0  0  0  0  0  0
    6.7723    2.5843   -2.2513 C   0  0  0  0  0  0  0  0  0  0  0  0
    6.3303   -0.4147   -0.1370 C   0  0  0  0  0  0  0  0  0  0  0  0
    5.3677   -1.2986    0.3129 C   0  0  0  0  0  0  0  0  0  0  0  0
   -1.0432    0.0526    1.2925 N   0  0  0  0  0  0  0  0  0  0  0  0
   -1.9753    0.9030    0.8100 C   0  0  0  0  0  0  0  0  0  0  0  0
   -1.7005    2.3133    0.5930 C   0  0  0  0  0  0  0  0  0  0  0  0
   -0.4590    2.8817    0.8325 C   0  0  0  0  0  0  0  0  0  0  0  0
   -0.2527    4.2234    0.6127 C   0  0  0  0  0  0  0  0  0  0  0  0
   -1.2497    5.0605    0.1506 C   0  0  0  0  0  0  0  0  0  0  0  0
   -2.4822    4.4999   -0.0875 C   0  0  0  0  0  0  0  0  0  0  0  0
   -2.7020    3.1588    0.1296 C   0  0  0  0  0  0  0  0  0  0  0  0
   -3.1975    0.4428    0.4963 N   0  0  0  0  0  0  0  0  0  0  0  0
   -3.5559   -0.8395    0.6357 C   0  0  0  0  0  0  0  0  0  0  0  0
  1  2  1  0
  2  3  1  0
  3  4  2  0
  4  5  1  0
  5  6  2  0
  6  7  1  0
  7  8  2  0
  8  9  1  0
  9 10  1  0
 10 11  1  0
 11 12  2  0
 11 13  1  0
 13 14  1  0
 14 15  2  0
 15 16  1  0
 16 17  2  0
 17 18  1  0
 18 19  1  0
 17 20  1  0
 20 21  2  0
  8 22  1  0
 22 23  2  0
 23 24  1  0
 24 25  2  0
 25 26  1  0
 26 27  2  0
 27 28  1  0
 28 29  2  0
 23 30  1  0
 30 31  2  0
 31  3  1  0
 31  7  1  0
 21 14  1  0
 29 24  1  0
M  END
>  <zinc_id>  (1) 
ZINC000000648339

>  <smiles>  (1) 
CCc1cccc2c(SCC(=O)Nc3ccc(OC)cc3)nc(-c3ccccc3)nc12

$$$$
