
     RDKit          3D

 31 34  0  0  0  0  0  0  0  0999 V2000
    5.1120    2.5542   -2.7684 C   0  0  0  0  0  0  0  0  0  0  0  0
    5.6288    1.2556   -2.7363 O   0  0  0  0  0  0  0  0  0  0  0  0
    5.0971    0.2663   -1.9097 C   0  0  0  0  0  0  0  0  0  0  0  0
    5.5992   -0.9987   -1.8773 C   0  0  0  0  0  0  0  0  0  0  0  0
    5.0391   -1.9431   -1.0427 C   0  0  0  0  0  0  0  0  0  0  0  0
    3.9686   -1.6783   -0.2126 C   0  0  0  0  0  0  0  0  0  0  0  0
    3.3871   -2.7158    0.6751 C   0  0  0  0  0  0  0  0  0  0  0  0
    2.3026   -3.4486   -0.0424 C   0  0  0  0  0  0  0  0  0  0  0  0
    1.2177   -2.5912   -0.4697 N   0  0  0  0  0  0  0  0  0  0  0  0
    0.4230   -1.8223    0.3905 C   0  0  0  0  0  0  0  0  0  0  0  0
    0.6483   -1.8626    1.6263 O   0  0  0  0  0  0  0  0  0  0  0  0
   -0.6675   -0.9632   -0.0625 C   0  0  0  0  0  0  0  0  0  0  0  0
   -1.4293   -0.2202    0.8100 C   0  0  0  0  0  0  0  0  0  0  0  0
   -2.4647    0.6010    0.4257 C   0  0  0  0  0  0  0  0  0  0  0  0
   -3.1994    1.3398    1.4521 C   0  0  0  0  0  0  0  0  0  0  0  0
   -4.2420    2.1745    1.1320 C   0  0  0  0  0  0  0  0  0  0  0  0
   -4.9530    2.8842    2.0809 C   0  0  0  0  0  0  0  0  0  0  0  0
   -4.5955    2.7415    3.3834 C   0  0  0  0  0  0  0  0  0  0  0  0
   -3.5619    1.9231    3.7767 C   0  0  0  0  0  0  0  0  0  0  0  0
   -3.2455    1.8173    5.0994 O   0  0  0  0  0  0  0  0  0  0  0  0
   -3.9796    2.5474    6.0571 C   0  0  0  0  0  0  0  0  0  0  0  0
   -2.8650    1.2199    2.7827 C   0  0  0  0  0  0  0  0  0  0  0  0
   -2.7466    0.6813   -0.8708 N   0  0  0  0  0  0  0  0  0  0  0  0
   -2.0310   -0.0285   -1.7882 C   0  0  0  0  0  0  0  0  0  0  0  0
   -2.3719    0.0986   -3.1062 C   0  0  0  0  0  0  0  0  0  0  0  0
   -1.6677   -0.6047   -4.0497 C   0  0  0  0  0  0  0  0  0  0  0  0
   -0.6345   -1.4236   -3.6624 C   0  0  0  0  0  0  0  0  0  0  0  0
   -0.2666   -1.5731   -2.3421 C   0  0  0  0  0  0  0  0  0  0  0  0
   -0.9929   -0.8523   -1.4070 C   0  0  0  0  0  0  0  0  0  0  0  0
    3.4667   -0.3842   -0.2560 C   0  0  0  0  0  0  0  0  0  0  0  0
    4.0243    0.5598   -1.0882 C   0  0  0  0  0  0  0  0  0  0  0  0
  1  2  1  0
  2  3  1  0
  3  4  2  0
  4  5  1  0
  5  6  2  0
  6  7  1  0
  7  8  1  0
  8  9  1  0
  9 10  1  0
 10 11  2  0
 10 12  1  0
 12 13  2  0
 13 14  1  0
 14 15  1  0
 15 16  2  0
 16 17  1  0
 17 18  2  0
 18 19  1  0
 19 20  1  0
 20 21  1  0
 19 22  2  0
 14 23  2  0
 23 24  1  0
 24 25  2  0
 25 26  1  0
 26 27  2  0
 27 28  1  0
 28 29  2  0
  6 30  1  0
 30 31  2  0
 31  3  1  0
 29 12  1  0
 22 15  1  0
 29 24  1  0
M  END
>  <zinc_id>  (1) 
ZINC000001218068

>  <smiles>  (1) 
COc1ccc(CCNC(=O)c2cc(-c3cccc(OC)c3)nc3ccccc23)cc1

$$$$
