
     RDKit          3D

 30 32  0  0  0  0  0  0  0  0999 V2000
   -8.6370    0.6032   -1.2194 C   0  0  0  0  0  0  0  0  0  0  0  0
   -7.4585    0.6994   -0.2885 C   0  0  0  0  0  0  0  0  0  0  0  0
   -7.7270    0.9325    1.0307 C   0  0  0  0  0  0  0  0  0  0  0  0
   -6.6764    1.0295    1.9268 C   0  0  0  0  0  0  0  0  0  0  0  0
   -5.3809    0.8897    1.4741 C   0  0  0  0  0  0  0  0  0  0  0  0
   -5.1185    0.6561    0.1505 C   0  0  0  0  0  0  0  0  0  0  0  0
   -3.8256    0.5008   -0.3997 N   0  0  0  0  0  0  0  0  0  0  0  0
   -2.7490    0.5955    0.5093 C   0  0  0  0  0  0  0  0  0  0  0  0
   -2.9983    0.7986    1.6731 O   0  0  0  0  0  0  0  0  0  0  0  0
   -1.2834    0.4253   -0.0788 C   0  0  1  0  0  0  0  0  0  0  0  0
   -1.1491    1.9994   -0.5347 C   0  0  0  0  0  0  0  0  0  0  0  0
   -0.5525    0.5969    1.2367 O   0  0  0  0  0  0  0  0  0  0  0  0
    0.8606    0.5128    1.1722 C   0  0  0  0  0  0  0  0  0  0  0  0
    1.2653    0.3054    0.0025 O   0  0  0  0  0  0  0  0  0  0  0  0
    1.6220    0.6649    2.3788 C   0  0  0  0  0  0  0  0  0  0  0  0
    3.0508    0.6262    2.4234 C   0  0  0  0  0  0  0  0  0  0  0  0
    3.9076    1.5646    1.7113 C   0  0  0  0  0  0  0  0  0  0  0  0
    3.9264    1.6341    0.3461 O   0  0  0  0  0  0  0  0  0  0  0  0
    4.3194    0.5826   -0.4991 C   0  0  0  0  0  0  0  0  0  0  0  0
    4.3142    0.7227   -1.8636 C   0  0  0  0  0  0  0  0  0  0  0  0
    4.7047   -0.3219   -2.7039 C   0  0  0  0  0  0  0  0  0  0  0  0
    5.1045   -1.5182   -2.1814 C   0  0  0  0  0  0  0  0  0  0  0  0
    5.4930   -2.5602   -2.9981 C   0  0  0  0  0  0  0  0  0  0  0  0
    5.8867   -3.7425   -2.4474 C   0  0  0  0  0  0  0  0  0  0  0  0
    5.9031   -3.9135   -1.0977 C   0  0  0  0  0  0  0  0  0  0  0  0
    5.5126   -2.8651   -0.2908 C   0  0  0  0  0  0  0  0  0  0  0  0
    5.1123   -1.6666   -0.8101 C   0  0  0  0  0  0  0  0  0  0  0  0
    4.7218   -0.6219    0.0299 C   0  0  0  0  0  0  0  0  0  0  0  0
   -6.1806    0.5609   -0.7381 C   0  0  0  0  0  0  0  0  0  0  0  0
   -5.9684    0.3089   -2.1875 C   0  0  0  0  0  0  0  0  0  0  0  0
  1  2  1  0
  2  3  2  0
  3  4  1  0
  4  5  2  0
  5  6  1  0
  6  7  1  0
  7  8  1  0
  8  9  2  0
  8 10  1  0
 10 11  1  6
 10 12  1  0
 12 13  1  0
 13 14  2  0
 13 15  1  0
 15 16  1  0
 16 17  1  0
 17 18  1  0
 18 19  1  0
 19 20  2  0
 20 21  1  0
 21 22  2  0
 22 23  1  0
 23 24  2  0
 24 25  1  0
 25 26  2  0
 26 27  1  0
 27 28  2  0
  6 29  2  0
 29 30  1  0
 29  2  1  0
 28 19  1  0
 27 22  1  0
M  END
>  <zinc_id>  (1) 
ZINC000002611773

>  <smiles>  (1) 
Cc1cccc(NC(=O)[C@@H](C)OC(=O)CCCOc2ccc3ccccc3c2)c1C

$$$$
