
     RDKit          3D

 31 34  0  0  0  0  0  0  0  0999 V2000
   -3.4489    2.7159    2.8598 C   0  0  0  0  0  0  0  0  0  0  0  0
   -2.6383    2.2272    4.0583 C   0  0  0  0  0  0  0  0  0  0  0  0
   -1.2330    2.8064    3.8610 C   0  0  0  0  0  0  0  0  0  0  0  0
   -2.5803    0.7099    4.0545 C   0  0  0  0  0  0  0  0  0  0  0  0
   -1.9418    0.2499    2.8154 N   0  0  0  0  0  0  0  0  0  0  0  0
   -0.6384    0.0479    2.6646 C   0  0  0  0  0  0  0  0  0  0  0  0
    0.3802    0.2312    3.6511 N   0  0  0  0  0  0  0  0  0  0  0  0
   -0.3778   -0.3797    1.3802 C   0  0  0  0  0  0  0  0  0  0  0  0
    0.8970   -0.7225    0.7638 C   0  0  0  0  0  0  0  0  0  0  0  0
    1.9149   -0.6203    1.4981 O   0  0  0  0  0  0  0  0  0  0  0  0
    1.0714   -1.1480   -0.5559 N   0  0  0  0  0  0  0  0  0  0  0  0
    2.5644   -1.4610   -0.9891 C   0  0  2  0  0  0  0  0  0  0  0  0
    3.0634    0.1005   -0.6779 C   0  0  0  0  0  0  0  0  0  0  0  0
    2.2573   -1.1040   -2.5954 C   0  0  0  0  0  0  0  0  0  0  0  0
    3.5615   -1.3234   -3.3027 C   0  0  0  0  0  0  0  0  0  0  0  0
    4.6698   -0.4942   -2.8320 C   0  0  0  0  0  0  0  0  0  0  0  0
    4.8771    0.7429   -3.4251 C   0  0  0  0  0  0  0  0  0  0  0  0
    5.9249    1.5635   -3.0061 C   0  0  0  0  0  0  0  0  0  0  0  0
    6.7658    1.1724   -2.0097 C   0  0  0  0  0  0  0  0  0  0  0  0
    6.5659   -0.0713   -1.4059 C   0  0  0  0  0  0  0  0  0  0  0  0
    5.5208   -0.8716   -1.8351 C   0  0  0  0  0  0  0  0  0  0  0  0
   -1.5978   -0.4429    0.7047 C   0  0  0  0  0  0  0  0  0  0  0  0
   -1.9340   -0.7913   -0.5519 N   0  0  0  0  0  0  0  0  0  0  0  0
   -3.2237   -0.7611   -0.9505 C   0  0  0  0  0  0  0  0  0  0  0  0
   -3.6202   -1.1092   -2.2279 C   0  0  0  0  0  0  0  0  0  0  0  0
   -4.9386   -1.0819   -2.6448 C   0  0  0  0  0  0  0  0  0  0  0  0
   -5.8731   -0.6821   -1.7102 C   0  0  0  0  0  0  0  0  0  0  0  0
   -5.4849   -0.3365   -0.4439 C   0  0  0  0  0  0  0  0  0  0  0  0
   -4.1648   -0.3627   -0.0229 C   0  0  0  0  0  0  0  0  0  0  0  0
   -3.8122   -0.0162    1.2338 N   0  0  0  0  0  0  0  0  0  0  0  0
   -2.5265   -0.0430    1.6415 C   0  0  0  0  0  0  0  0  0  0  0  0
  1  2  1  0
  2  3  1  0
  2  4  1  0
  4  5  1  0
  5  6  1  0
  6  7  1  0
  6  8  2  0
  8  9  1  0
  9 10  2  0
  9 11  1  0
 11 12  1  0
 12 13  1  1
 12 14  1  0
 14 15  1  0
 15 16  1  0
 16 17  2  0
 17 18  1  0
 18 19  2  0
 19 20  1  0
 20 21  2  0
  8 22  1  0
 22 23  2  0
 23 24  1  0
 24 25  2  0
 25 26  1  0
 26 27  2  0
 27 28  1  0
 28 29  2  0
 29 30  1  0
 30 31  2  0
 31  5  1  0
 21 16  1  0
 31 22  1  0
 29 24  1  0
M  END
>  <zinc_id>  (1) 
ZINC000002377862

>  <smiles>  (1) 
CC(C)Cn1c(N)c(C(=O)N[C@H](C)CCc2ccccc2)c2nc3ccccc3nc21

$$$$
