
     RDKit          3D

 32 35  0  0  0  0  0  0  0  0999 V2000
    5.7058   -0.2445   -0.3704 C   0  0  0  0  0  0  0  0  0  0  0  0
    5.6708   -1.0537    0.9251 C   0  0  0  0  0  0  0  0  0  0  0  0
    5.1133   -2.3674    0.6730 C   0  0  0  0  0  0  0  0  0  0  0  0
    5.8402   -3.1830   -0.3073 C   0  0  0  0  0  0  0  0  0  0  0  0
    7.2748   -3.4124    0.1711 C   0  0  0  0  0  0  0  0  0  0  0  0
    3.7936   -2.7858    1.0155 C   0  0  0  0  0  0  0  0  0  0  0  0
    2.6753   -2.1481    0.5139 O   0  0  0  0  0  0  0  0  0  0  0  0
    2.2971   -0.8333    0.6962 C   0  0  0  0  0  0  0  0  0  0  0  0
    3.0203   -0.1115    1.3884 O   0  0  0  0  0  0  0  0  0  0  0  0
    1.0724   -0.2884    0.0923 C   0  0  0  0  0  0  0  0  0  0  0  0
    0.1553   -0.9338   -0.6987 C   0  0  0  0  0  0  0  0  0  0  0  0
    0.2115   -2.2993   -1.1021 N   0  0  0  0  0  0  0  0  0  0  0  0
   -0.8241   -0.0992   -1.0533 N   0  0  0  0  0  0  0  0  0  0  0  0
   -1.9953   -0.3484   -1.8785 C   0  0  0  0  0  0  0  0  0  0  0  0
   -3.1559   -0.8036   -1.0778 C   0  0  0  0  0  0  0  0  0  0  0  0
   -4.0368    0.1047   -0.5605 C   0  0  0  0  0  0  0  0  0  0  0  0
   -5.1262   -0.3544    0.1934 C   0  0  0  0  0  0  0  0  0  0  0  0
   -5.3148   -1.6898    0.4145 C   0  0  0  0  0  0  0  0  0  0  0  0
   -6.3976   -2.1137    1.1614 O   0  0  0  0  0  0  0  0  0  0  0  0
   -6.6866   -3.4495    1.4489 C   0  0  0  0  0  0  0  0  0  0  0  0
   -4.4375   -2.6000   -0.1003 C   0  0  0  0  0  0  0  0  0  0  0  0
   -3.3535   -2.1328   -0.8512 C   0  0  0  0  0  0  0  0  0  0  0  0
   -0.5688    1.1052   -0.5035 C   0  0  0  0  0  0  0  0  0  0  0  0
   -1.1985    2.2798   -0.5263 N   0  0  0  0  0  0  0  0  0  0  0  0
   -0.7323    3.3513    0.1150 C   0  0  0  0  0  0  0  0  0  0  0  0
   -1.4100    4.5593    0.0724 C   0  0  0  0  0  0  0  0  0  0  0  0
   -0.9235    5.6516    0.7333 C   0  0  0  0  0  0  0  0  0  0  0  0
    0.2463    5.5311    1.4387 C   0  0  0  0  0  0  0  0  0  0  0  0
    0.9317    4.3381    1.4910 C   0  0  0  0  0  0  0  0  0  0  0  0
    0.4403    3.2527    0.8292 C   0  0  0  0  0  0  0  0  0  0  0  0
    1.1036    2.0749    0.8723 N   0  0  0  0  0  0  0  0  0  0  0  0
    0.6090    1.0040    0.2132 C   0  0  0  0  0  0  0  0  0  0  0  0
  1  2  1  0
  2  3  1  0
  3  4  1  0
  4  5  1  0
  3  6  1  0
  6  7  1  0
  7  8  1  0
  8  9  2  0
  8 10  1  0
 10 11  2  0
 11 12  1  0
 11 13  1  0
 13 14  1  0
 14 15  1  0
 15 16  2  0
 16 17  1  0
 17 18  2  0
 18 19  1  0
 19 20  1  0
 18 21  1  0
 21 22  2  0
 13 23  1  0
 23 24  2  0
 24 25  1  0
 25 26  2  0
 26 27  1  0
 27 28  2  0
 28 29  1  0
 29 30  2  0
 30 31  1  0
 31 32  2  0
 32 10  1  0
 22 15  1  0
 32 23  1  0
 30 25  1  0
M  END
>  <zinc_id>  (1) 
ZINC000002397814

>  <smiles>  (1) 
CCC(CC)COC(=O)c1c(N)n(Cc2ccc(OC)cc2)c2nc3ccccc3nc12

$$$$
