
     RDKit          3D

 29 31  0  0  0  0  0  0  0  0999 V2000
   -7.4206    2.1653    0.5189 C   0  0  0  0  0  0  0  0  0  0  0  0
   -6.1934    1.5798   -0.0999 C   0  0  0  0  0  0  0  0  0  0  0  0
   -6.4341    0.8847   -1.4101 C   0  0  0  0  0  0  0  0  0  0  0  0
   -5.4365    0.7157    0.8530 C   0  0  0  0  0  0  0  0  0  0  0  0
   -5.9223    0.5901    2.1382 C   0  0  0  0  0  0  0  0  0  0  0  0
   -5.2837   -0.1916    3.0872 C   0  0  0  0  0  0  0  0  0  0  0  0
   -4.1309   -0.8483    2.6972 C   0  0  0  0  0  0  0  0  0  0  0  0
   -3.6547   -0.7154    1.4102 C   0  0  0  0  0  0  0  0  0  0  0  0
   -4.2814    0.0577    0.4626 C   0  0  0  0  0  0  0  0  0  0  0  0
   -3.8314    0.2291   -0.8732 N   0  0  0  0  0  0  0  0  0  0  0  0
   -2.6641   -0.4087   -1.3617 C   0  0  0  0  0  0  0  0  0  0  0  0
   -2.0222   -1.1426   -0.5809 O   0  0  0  0  0  0  0  0  0  0  0  0
   -2.1810   -0.2414   -2.7445 C   0  0  0  0  0  0  0  0  0  0  0  0
   -1.0111   -0.9670   -3.0094 O   0  0  0  0  0  0  0  0  0  0  0  0
    0.1321   -0.7163   -2.2811 C   0  0  0  0  0  0  0  0  0  0  0  0
    0.1144    0.1517   -1.3946 O   0  0  0  0  0  0  0  0  0  0  0  0
    1.3886   -1.4625   -2.5328 C   0  0  0  0  0  0  0  0  0  0  0  0
    2.4359   -0.9982   -1.6054 C   0  0  0  0  0  0  0  0  0  0  0  0
    2.5983   -1.6649   -0.4015 C   0  0  0  0  0  0  0  0  0  0  0  0
    3.5793   -1.2230    0.4627 C   0  0  0  0  0  0  0  0  0  0  0  0
    4.4007   -0.1616    0.1949 C   0  0  0  0  0  0  0  0  0  0  0  0
    5.4270    0.2479    1.1742 C   0  0  0  0  0  0  0  0  0  0  0  0
    6.0433   -0.6759    1.9902 C   0  0  0  0  0  0  0  0  0  0  0  0
    7.0057   -0.3037    2.9156 C   0  0  0  0  0  0  0  0  0  0  0  0
    7.3559    1.0215    3.0233 C   0  0  0  0  0  0  0  0  0  0  0  0
    6.7313    1.9409    2.1995 C   0  0  0  0  0  0  0  0  0  0  0  0
    5.7755    1.5698    1.2807 C   0  0  0  0  0  0  0  0  0  0  0  0
    4.2252    0.4882   -1.0052 C   0  0  0  0  0  0  0  0  0  0  0  0
    3.2542    0.0786   -1.9006 C   0  0  0  0  0  0  0  0  0  0  0  0
  1  2  1  0
  2  3  1  0
  2  4  1  0
  4  5  2  0
  5  6  1  0
  6  7  2  0
  7  8  1  0
  8  9  2  0
  9 10  1  0
 10 11  1  0
 11 12  2  0
 11 13  1  0
 13 14  1  0
 14 15  1  0
 15 16  2  0
 15 17  1  0
 17 18  1  0
 18 19  2  0
 19 20  1  0
 20 21  2  0
 21 22  1  0
 22 23  2  0
 23 24  1  0
 24 25  2  0
 25 26  1  0
 26 27  2  0
 21 28  1  0
 28 29  2  0
  9  4  1  0
 29 18  1  0
 27 22  1  0
M  END
>  <zinc_id>  (1) 
ZINC000003217074

>  <smiles>  (1) 
CC(C)c1ccccc1NC(=O)COC(=O)Cc1ccc(-c2ccccc2)cc1

$$$$
