
     RDKit          3D

 30 33  0  0  0  0  0  0  0  0999 V2000
   -3.1982    1.4137   -1.3988 C   0  0  0  0  0  0  0  0  0  0  0  0
   -2.9266    0.3456   -0.3984 C   0  0  0  0  0  0  0  0  0  0  0  0
   -2.0819   -0.6881   -0.5372 N   0  0  0  0  0  0  0  0  0  0  0  0
   -2.0893   -1.4536    0.5659 C   0  0  0  0  0  0  0  0  0  0  0  0
   -1.0925   -2.9178    0.7517 S   0  0  0  0  0  0  0  0  0  0  0  0
    0.4965   -2.5475    1.4690 C   0  0  0  0  0  0  0  0  0  0  0  0
    1.3573   -1.6903    0.5424 C   0  0  0  0  0  0  0  0  0  0  0  0
    0.7941   -1.4225   -0.5147 O   0  0  0  0  0  0  0  0  0  0  0  0
    2.6374   -1.3165    0.9727 C   0  0  0  0  0  0  0  0  0  0  0  0
    3.5161   -0.5988    0.3411 C   0  0  0  0  0  0  0  0  0  0  0  0
    3.3855   -0.0225   -0.9377 N   0  0  0  0  0  0  0  0  0  0  0  0
    2.2298   -0.1237   -1.8252 C   0  0  0  0  0  0  0  0  0  0  0  0
    4.5780    0.7024   -1.2676 C   0  0  0  0  0  0  0  0  0  0  0  0
    4.9095    1.4146   -2.3752 C   0  0  0  0  0  0  0  0  0  0  0  0
    6.1362    2.0591   -2.5017 C   0  0  0  0  0  0  0  0  0  0  0  0
    7.0192    1.9525   -1.4546 C   0  0  0  0  0  0  0  0  0  0  0  0
    6.6830    1.2317   -0.3356 C   0  0  0  0  0  0  0  0  0  0  0  0
    5.4450    0.5894   -0.2241 C   0  0  0  0  0  0  0  0  0  0  0  0
    4.8831   -0.2269    0.8611 C   0  0  0  0  0  0  0  0  0  0  0  0
    5.6944   -1.4755    1.1284 C   0  0  0  0  0  0  0  0  0  0  0  0
    4.7703    0.5692    2.1383 C   0  0  0  0  0  0  0  0  0  0  0  0
   -2.9614   -0.8734    1.4021 N   0  0  0  0  0  0  0  0  0  0  0  0
   -3.4937    0.2273    0.8503 C   0  0  0  0  0  0  0  0  0  0  0  0
   -4.4887    1.1830    1.3819 C   0  0  0  0  0  0  0  0  0  0  0  0
   -5.8010    0.8905    0.7208 C   0  0  0  0  0  0  0  0  0  0  0  0
   -6.1736    1.4897   -0.4619 C   0  0  0  0  0  0  0  0  0  0  0  0
   -7.3765    1.2281   -1.0779 C   0  0  0  0  0  0  0  0  0  0  0  0
   -8.2702    0.3327   -0.5135 C   0  0  0  0  0  0  0  0  0  0  0  0
   -7.8918   -0.2662    0.6732 C   0  0  0  0  0  0  0  0  0  0  0  0
   -6.6901   -0.0062    1.2907 C   0  0  0  0  0  0  0  0  0  0  0  0
  1  2  1  0
  2  3  1  0
  3  4  1  0
  4  5  1  0
  5  6  1  0
  6  7  1  0
  7  8  2  0
  7  9  1  0
  9 10  2  0
 10 11  1  0
 11 12  1  0
 11 13  1  0
 13 14  2  0
 14 15  1  0
 15 16  2  0
 16 17  1  0
 17 18  2  0
 18 19  1  0
 19 20  1  0
 19 21  1  0
  4 22  2  0
 22 23  1  0
 23 24  1  0
 24 25  1  0
 25 26  2  0
 26 27  1  0
 27 28  2  0
 28 29  1  0
 29 30  2  0
 23  2  2  0
 30 25  1  0
 19 10  1  0
 18 13  1  0
M  END
>  <zinc_id>  (1) 
ZINC000004492404

>  <smiles>  (1) 
Cc1[nH]c(SCC(=O)/C=C2\N(C)c3ccccc3C2(C)C)nc1Cc1ccccc1

$$$$
