
     RDKit          3D

 32 36  0  0  0  0  0  0  0  0999 V2000
   -2.5832    3.0902   -2.8561 C   0  0  0  0  0  0  0  0  0  0  0  0
   -1.8971    2.4986   -1.7819 O   0  0  0  0  0  0  0  0  0  0  0  0
   -1.3727    3.1765   -0.7126 C   0  0  0  0  0  0  0  0  0  0  0  0
   -1.4566    4.5484   -0.5532 C   0  0  0  0  0  0  0  0  0  0  0  0
   -0.9216    5.2065    0.5314 C   0  0  0  0  0  0  0  0  0  0  0  0
   -0.2797    4.4492    1.4876 C   0  0  0  0  0  0  0  0  0  0  0  0
   -0.1952    3.0885    1.3313 C   0  0  0  0  0  0  0  0  0  0  0  0
   -0.7215    2.4419    0.2648 C   0  0  0  0  0  0  0  0  0  0  0  0
   -0.6504    0.9992    0.1491 C   0  0  0  0  0  0  0  0  0  0  0  0
   -1.8320    0.3214   -0.0552 C   0  0  0  0  0  0  0  0  0  0  0  0
   -1.9543   -1.0430   -0.1521 C   0  0  0  0  0  0  0  0  0  0  0  0
   -3.2249   -1.7150   -0.3705 C   0  0  0  0  0  0  0  0  0  0  0  0
   -4.4182   -1.0297   -0.4939 C   0  0  0  0  0  0  0  0  0  0  0  0
   -5.5937   -1.7184   -0.7006 C   0  0  0  0  0  0  0  0  0  0  0  0
   -5.6200   -3.1011   -0.7906 C   0  0  0  0  0  0  0  0  0  0  0  0
   -6.8958   -3.8456   -1.0174 C   0  0  0  0  0  0  0  0  0  0  0  0
   -4.4268   -3.7709   -0.6666 C   0  0  0  0  0  0  0  0  0  0  0  0
   -3.2505   -3.0709   -0.4590 C   0  0  0  0  0  0  0  0  0  0  0  0
   -0.8032   -1.7224   -0.0319 N   0  0  0  0  0  0  0  0  0  0  0  0
    0.3960   -1.0935    0.1710 C   0  0  0  0  0  0  0  0  0  0  0  0
    1.9866   -1.6893    0.3432 S   0  0  0  0  0  0  0  0  0  0  0  0
    2.8109   -0.2163    0.5353 C   0  0  0  0  0  0  0  0  0  0  0  0
    4.2609    0.0285    0.7374 C   0  0  0  0  0  0  0  0  0  0  0  0
    4.7089    1.1850    0.8643 O   0  0  0  0  0  0  0  0  0  0  0  0
    5.1139   -1.0978    0.7806 N   0  0  0  0  0  0  0  0  0  0  0  0
    4.7022   -2.4895    0.6457 C   0  0  0  0  0  0  0  0  0  0  0  0
    5.9370   -3.2085    0.1551 C   0  0  0  0  0  0  0  0  0  0  0  0
    7.1106   -2.3027    0.3790 C   0  0  0  0  0  0  0  0  0  0  0  0
    6.5431   -1.0263    0.9642 C   0  0  0  0  0  0  0  0  0  0  0  0
    1.8130    0.7146    0.4603 C   0  0  0  0  0  0  0  0  0  0  0  0
    2.1629    2.1279    0.5697 N   0  0  0  0  0  0  0  0  0  0  0  0
    0.5516    0.2645    0.2716 C   0  0  0  0  0  0  0  0  0  0  0  0
  1  2  1  0
  2  3  1  0
  3  4  2  0
  4  5  1  0
  5  6  2  0
  6  7  1  0
  7  8  2  0
  8  9  1  0
  9 10  2  0
 10 11  1  0
 11 12  1  0
 12 13  2  0
 13 14  1  0
 14 15  2  0
 15 16  1  0
 15 17  1  0
 17 18  2  0
 11 19  2  0
 19 20  1  0
 20 21  1  0
 21 22  1  0
 22 23  1  0
 23 24  2  0
 23 25  1  0
 25 26  1  0
 26 27  1  0
 27 28  1  0
 28 29  1  0
 22 30  2  0
 30 31  1  0
 30 32  1  0
  8  3  1  0
 32  9  1  0
 18 12  1  0
 32 20  2  0
 29 25  1  0
M  END
>  <zinc_id>  (1) 
ZINC000000920378

>  <smiles>  (1) 
COc1ccccc1-c1cc(-c2ccc(C)cc2)nc2sc(C(=O)N3CCCC3)c(N)c12

$$$$
