
     RDKit          3D

 33 36  0  0  0  0  0  0  0  0999 V2000
    8.4975   -0.3532   -0.3477 C   0  0  0  0  0  0  0  0  0  0  0  0
    7.6857    0.2845   -1.4556 C   0  0  0  0  0  0  0  0  0  0  0  0
    6.4608    0.7874   -0.8661 N   0  0  0  0  0  0  0  0  0  0  0  0
    5.2453    0.1673   -1.2062 C   0  0  0  0  0  0  0  0  0  0  0  0
    5.2055   -0.9125   -2.0656 C   0  0  0  0  0  0  0  0  0  0  0  0
    3.9901   -1.5185   -2.3991 C   0  0  0  0  0  0  0  0  0  0  0  0
    2.8184   -1.0324   -1.8638 C   0  0  0  0  0  0  0  0  0  0  0  0
    1.5802   -1.6320   -2.1880 N   0  0  0  0  0  0  0  0  0  0  0  0
    0.3598   -1.1513   -1.6439 C   0  0  0  0  0  0  0  0  0  0  0  0
    0.3484   -0.1698   -0.8514 O   0  0  0  0  0  0  0  0  0  0  0  0
   -0.9337   -1.7958   -1.9978 C   0  0  0  0  0  0  0  0  0  0  0  0
   -2.0249   -1.1796   -1.3535 O   0  0  0  0  0  0  0  0  0  0  0  0
   -2.1273   -1.1219    0.0199 C   0  0  0  0  0  0  0  0  0  0  0  0
   -1.2416   -1.6208    0.7324 O   0  0  0  0  0  0  0  0  0  0  0  0
   -3.2845   -0.4706    0.6639 C   0  0  0  0  0  0  0  0  0  0  0  0
   -4.2761    0.0892   -0.1210 C   0  0  0  0  0  0  0  0  0  0  0  0
   -4.2236    0.0652   -1.5126 C   0  0  0  0  0  0  0  0  0  0  0  0
   -5.2027    0.6183   -2.3082 C   0  0  0  0  0  0  0  0  0  0  0  0
   -6.2837    1.2225   -1.7319 C   0  0  0  0  0  0  0  0  0  0  0  0
   -6.3668    1.2631   -0.3357 C   0  0  0  0  0  0  0  0  0  0  0  0
   -5.3769    0.7047    0.4431 C   0  0  0  0  0  0  0  0  0  0  0  0
   -5.5035    0.7705    1.8104 C   0  0  0  0  0  0  0  0  0  0  0  0
   -4.5286    0.2200    2.6250 C   0  0  0  0  0  0  0  0  0  0  0  0
   -4.6624    0.2883    4.0052 C   0  0  0  0  0  0  0  0  0  0  0  0
   -3.6630   -0.2770    4.7709 C   0  0  0  0  0  0  0  0  0  0  0  0
   -2.5752   -0.8849    4.1965 C   0  0  0  0  0  0  0  0  0  0  0  0
   -2.4534   -0.9469    2.8345 C   0  0  0  0  0  0  0  0  0  0  0  0
   -3.4319   -0.3930    2.0250 C   0  0  0  0  0  0  0  0  0  0  0  0
    2.8399    0.0387   -1.0088 C   0  0  0  0  0  0  0  0  0  0  0  0
    4.0620    0.6256   -0.6919 C   0  0  0  0  0  0  0  0  0  0  0  0
    6.5496    1.8966    0.0413 C   0  0  0  0  0  0  0  0  0  0  0  0
    5.1878    2.2763    0.5177 C   0  0  0  0  0  0  0  0  0  0  0  0
    7.3287    1.3888    1.2630 C   0  0  0  0  0  0  0  0  0  0  0  0
  1  2  1  0
  2  3  1  0
  3  4  1  0
  4  5  2  0
  5  6  1  0
  6  7  2  0
  7  8  1  0
  8  9  1  0
  9 10  2  0
  9 11  1  0
 11 12  1  0
 12 13  1  0
 13 14  2  0
 13 15  1  0
 15 16  1  0
 16 17  2  0
 17 18  1  0
 18 19  2  0
 19 20  1  0
 20 21  2  0
 21 22  1  0
 22 23  2  0
 23 24  1  0
 24 25  2  0
 25 26  1  0
 26 27  2  0
 27 28  1  0
  7 29  1  0
 29 30  2  0
  3 31  1  0
 31 32  1  0
 31 33  1  0
 30  4  1  0
 28 15  2  0
 21 16  1  0
 28 23  1  0
M  END
>  <zinc_id>  (1) 
ZINC000003235568

>  <smiles>  (1) 
CCN(c1ccc(NC(=O)COC(=O)c2c3ccccc3cc3ccccc23)cc1)C(C)C

$$$$
