
     RDKit          3D

 32 35  0  0  0  0  0  0  0  0999 V2000
    7.9044    1.7429    0.4907 C   0  0  0  0  0  0  0  0  0  0  0  0
    7.7322    0.2413    0.4972 C   0  0  0  0  0  0  0  0  0  0  0  0
    8.5271   -0.3187   -0.6666 C   0  0  0  0  0  0  0  0  0  0  0  0
    6.3310   -0.1378    0.2972 N   0  0  0  0  0  0  0  0  0  0  0  0
    5.3652    0.8480    0.1132 C   0  0  0  0  0  0  0  0  0  0  0  0
    5.7228    2.0743    0.1485 O   0  0  0  0  0  0  0  0  0  0  0  0
    3.9559    0.5743   -0.1168 C   0  0  0  0  0  0  0  0  0  0  0  0
    3.4330   -0.6816   -0.2786 C   0  0  0  0  0  0  0  0  0  0  0  0
    2.0706   -0.9185   -0.4722 C   0  0  0  0  0  0  0  0  0  0  0  0
    1.1701    0.1266   -0.5082 C   0  0  0  0  0  0  0  0  0  0  0  0
   -0.2657   -0.0734   -0.7124 C   0  0  0  0  0  0  0  0  0  0  0  0
   -0.6873   -0.7940   -1.6462 O   0  0  0  0  0  0  0  0  0  0  0  0
   -1.2288    0.5312    0.1293 N   0  0  0  0  0  0  0  0  0  0  0  0
   -2.5017    0.5173    0.1675 N   0  0  0  0  0  0  0  0  0  0  0  0
   -3.6712    0.2408    0.1052 C   0  0  0  0  0  0  0  0  0  0  0  0
   -4.7808    1.1548    0.4804 C   0  0  0  0  0  0  0  0  0  0  0  0
   -4.7554    2.4409    0.9541 C   0  0  0  0  0  0  0  0  0  0  0  0
   -5.9241    3.1000    1.2427 C   0  0  0  0  0  0  0  0  0  0  0  0
   -7.1426    2.4447    1.0483 C   0  0  0  0  0  0  0  0  0  0  0  0
   -7.1839    1.1524    0.5733 C   0  0  0  0  0  0  0  0  0  0  0  0
   -5.9745    0.5216    0.2935 C   0  0  0  0  0  0  0  0  0  0  0  0
   -5.7171   -0.8386   -0.2124 C   0  0  0  0  0  0  0  0  0  0  0  0
   -6.5938   -1.8474   -0.5477 C   0  0  0  0  0  0  0  0  0  0  0  0
   -6.0977   -3.0403   -1.0011 C   0  0  0  0  0  0  0  0  0  0  0  0
   -4.7326   -3.2030   -1.1121 C   0  0  0  0  0  0  0  0  0  0  0  0
   -3.8702   -2.1875   -0.7738 C   0  0  0  0  0  0  0  0  0  0  0  0
   -4.3567   -0.9918   -0.3190 C   0  0  0  0  0  0  0  0  0  0  0  0
    1.6935    1.3976   -0.3444 C   0  0  0  0  0  0  0  0  0  0  0  0
    3.0325    1.6274   -0.1557 C   0  0  0  0  0  0  0  0  0  0  0  0
    6.0184   -1.5511    0.3257 C   0  0  0  0  0  0  0  0  0  0  0  0
    5.2186   -1.7853    1.6219 C   0  0  0  0  0  0  0  0  0  0  0  0
    7.3088   -2.3672    0.4918 C   0  0  0  0  0  0  0  0  0  0  0  0
  1  2  1  0
  2  3  1  0
  2  4  1  0
  4  5  1  0
  5  6  2  0
  5  7  1  0
  7  8  2  0
  8  9  1  0
  9 10  2  0
 10 11  1  0
 11 12  2  0
 11 13  1  0
 13 14  1  0
 14 15  2  3
 15 16  1  0
 16 17  2  0
 17 18  1  0
 18 19  2  0
 19 20  1  0
 20 21  2  0
 21 22  1  0
 22 23  2  0
 23 24  1  0
 24 25  2  0
 25 26  1  0
 26 27  2  0
 10 28  1  0
 28 29  2  0
  4 30  1  0
 30 31  1  0
 30 32  1  0
 29  7  1  0
 27 15  1  0
 21 16  1  0
 27 22  1  0
M  END
>  <zinc_id>  (1) 
ZINC000003664829

>  <smiles>  (1) 
CC(C)N(C(=O)c1ccc(C(=O)NN=C2c3ccccc3-c3ccccc32)cc1)C(C)C

$$$$
