
     RDKit          3D

 30 33  0  0  0  0  0  0  0  0999 V2000
    8.5166   -1.3759   -0.2275 C   0  0  0  0  0  0  0  0  0  0  0  0
    8.5839   -0.1319    0.6025 C   0  0  0  0  0  0  0  0  0  0  0  0
    7.6432    0.8185    0.1832 O   0  0  0  0  0  0  0  0  0  0  0  0
    6.2770    0.5134    0.2032 C   0  0  0  0  0  0  0  0  0  0  0  0
    5.8189   -0.7156    0.6304 C   0  0  0  0  0  0  0  0  0  0  0  0
    4.4660   -1.0108    0.6476 C   0  0  0  0  0  0  0  0  0  0  0  0
    3.5346   -0.0810    0.2366 C   0  0  0  0  0  0  0  0  0  0  0  0
    2.0900   -0.3946    0.2544 C   0  0  0  0  0  0  0  0  0  0  0  0
    1.2061    0.4355   -0.1161 N   0  0  0  0  0  0  0  0  0  0  0  0
   -0.1578    0.2417   -0.1375 N   0  0  0  0  0  0  0  0  0  0  0  0
   -0.8099   -1.0042   -0.0276 C   0  0  0  0  0  0  0  0  0  0  0  0
   -0.1172   -2.0370    0.1012 O   0  0  0  0  0  0  0  0  0  0  0  0
   -2.2782   -1.1258   -0.0597 C   0  0  0  0  0  0  0  0  0  0  0  0
   -3.1793   -0.0887   -0.1952 C   0  0  0  0  0  0  0  0  0  0  0  0
   -4.4553   -0.6114   -0.1796 C   0  0  0  0  0  0  0  0  0  0  0  0
   -4.2590   -1.9908   -0.0299 C   0  0  0  0  0  0  0  0  0  0  0  0
   -5.3784   -2.7813    0.0183 C   0  0  0  0  0  0  0  0  0  0  0  0
   -6.6487   -2.2378   -0.0770 C   0  0  0  0  0  0  0  0  0  0  0  0
   -6.8496   -0.8917   -0.2234 C   0  0  0  0  0  0  0  0  0  0  0  0
   -8.1238   -0.3598   -0.3177 C   0  0  0  0  0  0  0  0  0  0  0  0
   -8.2704    0.9964   -0.4635 C   0  0  0  0  0  0  0  0  0  0  0  0
   -7.1866    1.8116   -0.5153 C   0  0  0  0  0  0  0  0  0  0  0  0
   -5.9206    1.2603   -0.4193 C   0  0  0  0  0  0  0  0  0  0  0  0
   -5.7270   -0.0936   -0.2723 C   0  0  0  0  0  0  0  0  0  0  0  0
   -2.9677   -2.2242    0.0338 O   0  0  0  0  0  0  0  0  0  0  0  0
    4.0087    1.1433   -0.1877 C   0  0  0  0  0  0  0  0  0  0  0  0
    5.3535    1.4503   -0.2099 C   0  0  0  0  0  0  0  0  0  0  0  0
    5.8260    2.6839   -0.6377 O   0  0  0  0  0  0  0  0  0  0  0  0
    4.9730    3.7166   -1.0817 C   0  0  0  0  0  0  0  0  0  0  0  0
    4.0319    4.0844    0.0432 C   0  0  0  0  0  0  0  0  0  0  0  0
  1  2  1  0
  2  3  1  0
  3  4  1  0
  4  5  2  0
  5  6  1  0
  6  7  2  0
  7  8  1  0
  8  9  2  0
  9 10  1  0
 10 11  1  0
 11 12  2  0
 11 13  1  0
 13 14  2  0
 14 15  1  0
 15 16  2  0
 16 17  1  0
 17 18  2  0
 18 19  1  0
 19 20  2  0
 20 21  1  0
 21 22  2  0
 22 23  1  0
 23 24  2  0
 16 25  1  0
  7 26  1  0
 26 27  2  0
 27 28  1  0
 28 29  1  0
 29 30  1  0
 27  4  1  0
 25 13  1  0
 24 15  1  0
 24 19  1  0
M  END
>  <zinc_id>  (1) 
ZINC000000659700

>  <smiles>  (1) 
CCOc1ccc(/C=N/NC(=O)c2cc3c(ccc4ccccc43)o2)cc1OCC

$$$$
