
     RDKit          3D

 30 32  0  0  0  0  0  0  0  0999 V2000
   -3.2331   -2.0454   -1.4296 C   0  0  0  0  0  0  0  0  0  0  0  0
   -4.2335   -1.1147   -0.8004 C   0  0  0  0  0  0  0  0  0  0  0  0
   -5.5317   -1.5698   -0.6600 C   0  0  0  0  0  0  0  0  0  0  0  0
   -6.4333   -0.7149   -0.0764 C   0  0  0  0  0  0  0  0  0  0  0  0
   -6.0302    0.5487    0.3472 C   0  0  0  0  0  0  0  0  0  0  0  0
   -4.7162    0.9798    0.1923 C   0  0  0  0  0  0  0  0  0  0  0  0
   -4.2979    2.3407    0.6525 C   0  0  0  0  0  0  0  0  0  0  0  0
   -5.5332    3.0708    1.1550 C   0  0  0  0  0  0  0  0  0  0  0  0
   -3.7692    3.1337   -0.5229 C   0  0  0  0  0  0  0  0  0  0  0  0
   -3.8044    0.1318   -0.3911 C   0  0  0  0  0  0  0  0  0  0  0  0
   -2.4635    0.5493   -0.5674 N   0  0  0  0  0  0  0  0  0  0  0  0
   -1.4132    0.3277    0.3290 C   0  0  0  0  0  0  0  0  0  0  0  0
   -1.6515   -0.2905    1.3754 O   0  0  0  0  0  0  0  0  0  0  0  0
   -0.0594    0.8665   -0.0557 C   0  0  0  0  0  0  0  0  0  0  0  0
    0.9037    0.3157    1.1985 C   0  0  2  0  0  0  0  0  0  0  0  0
    2.2002    0.9813    0.5936 N   0  0  0  0  0  0  0  0  0  0  0  0
    3.3962    0.2389    0.7032 C   0  0  0  0  0  0  0  0  0  0  0  0
    3.3169   -0.8714    1.2695 O   0  0  0  0  0  0  0  0  0  0  0  0
    4.6882    0.7342    0.1820 C   0  0  0  0  0  0  0  0  0  0  0  0
    4.8405    1.9992   -0.3355 C   0  0  0  0  0  0  0  0  0  0  0  0
    6.0285    2.4938   -0.8328 C   0  0  0  0  0  0  0  0  0  0  0  0
    7.1262    1.6600   -0.8057 C   0  0  0  0  0  0  0  0  0  0  0  0
    7.0346    0.3808   -0.2996 C   0  0  0  0  0  0  0  0  0  0  0  0
    5.8105   -0.0700    0.1906 C   0  0  0  0  0  0  0  0  0  0  0  0
    1.1262   -1.1318    0.5157 C   0  0  0  0  0  0  0  0  0  0  0  0
    0.9189   -2.2041    1.3574 C   0  0  0  0  0  0  0  0  0  0  0  0
    1.1093   -3.4790    0.8274 C   0  0  0  0  0  0  0  0  0  0  0  0
    1.4898   -3.5800   -0.4945 C   0  0  0  0  0  0  0  0  0  0  0  0
    1.6863   -2.4774   -1.3004 C   0  0  0  0  0  0  0  0  0  0  0  0
    1.4944   -1.2040   -0.7666 C   0  0  0  0  0  0  0  0  0  0  0  0
  1  2  1  0
  2  3  2  0
  3  4  1  0
  4  5  2  0
  5  6  1  0
  6  7  1  0
  7  8  1  0
  7  9  1  0
  6 10  2  0
 10 11  1  0
 11 12  1  0
 12 13  2  0
 12 14  1  0
 15 14  1  6
 15 16  1  0
 16 17  1  0
 17 18  2  0
 17 19  1  0
 19 20  2  0
 20 21  1  0
 21 22  2  0
 22 23  1  0
 23 24  2  0
 15 25  1  0
 25 26  2  0
 26 27  1  0
 27 28  2  0
 28 29  1  0
 29 30  2  0
 10  2  1  0
 24 19  1  0
 30 25  1  0
M  END
>  <zinc_id>  (1) 
ZINC000003349271

>  <smiles>  (1) 
Cc1cccc(C(C)C)c1NC(=O)C[C@H](NC(=O)c1ccccc1)c1ccccc1

$$$$
