
     RDKit          3D

 31 34  0  0  0  0  0  0  0  0999 V2000
    0.6115    6.7908    2.0945 C   0  0  0  0  0  0  0  0  0  0  0  0
    0.4365    5.4729    1.4077 C   0  0  0  0  0  0  0  0  0  0  0  0
    0.5437    4.2786    2.0696 C   0  0  0  0  0  0  0  0  0  0  0  0
    0.3685    3.1055    1.3643 C   0  0  0  0  0  0  0  0  0  0  0  0
    0.0899    3.1169    0.0165 C   0  0  0  0  0  0  0  0  0  0  0  0
   -0.0973    1.9337   -0.7455 N   0  0  0  0  0  0  0  0  0  0  0  0
    0.0078    0.6863   -0.0883 C   0  0  0  0  0  0  0  0  0  0  0  0
   -0.8773   -0.3251   -0.1101 C   0  0  0  0  0  0  0  0  0  0  0  0
   -2.3756   -0.1545   -1.0484 S   0  0  0  0  0  0  0  0  0  0  0  0
   -3.4375   -1.5516   -0.9867 C   0  0  0  0  0  0  0  0  0  0  0  0
   -3.2345   -2.7184   -0.3119 C   0  0  0  0  0  0  0  0  0  0  0  0
   -4.1201   -3.7704   -0.3146 C   0  0  0  0  0  0  0  0  0  0  0  0
   -5.3091   -3.7108   -1.0230 C   0  0  0  0  0  0  0  0  0  0  0  0
   -6.2595   -4.8499   -1.0211 C   0  0  0  0  0  0  0  0  0  0  0  0
   -5.5300   -2.5393   -1.7103 C   0  0  0  0  0  0  0  0  0  0  0  0
   -4.6476   -1.4926   -1.7069 C   0  0  0  0  0  0  0  0  0  0  0  0
   -0.3682   -1.4127    0.7017 C   0  0  0  0  0  0  0  0  0  0  0  0
   -0.9397   -2.5093    0.8999 O   0  0  0  0  0  0  0  0  0  0  0  0
    0.8923   -0.9900    1.2200 N   0  0  0  0  0  0  0  0  0  0  0  0
    1.7199   -1.8027    2.0830 C   0  0  0  0  0  0  0  0  0  0  0  0
    2.6562   -2.6306    1.2368 C   0  0  0  0  0  0  0  0  0  0  0  0
    3.5528   -1.8024    0.3908 C   0  0  0  0  0  0  0  0  0  0  0  0
    4.7927   -1.3737    0.8397 C   0  0  0  0  0  0  0  0  0  0  0  0
    5.6232   -0.6056    0.0525 C   0  0  0  0  0  0  0  0  0  0  0  0
    5.2520   -0.2300   -1.2219 C   0  0  0  0  0  0  0  0  0  0  0  0
    4.0210   -0.6510   -1.6781 C   0  0  0  0  0  0  0  0  0  0  0  0
    3.1957   -1.4185   -0.8863 C   0  0  0  0  0  0  0  0  0  0  0  0
    1.1341    0.3110    0.7354 C   0  0  0  0  0  0  0  0  0  0  0  0
    2.1562    1.0328    0.9743 O   0  0  0  0  0  0  0  0  0  0  0  0
   -0.0155    4.3167   -0.6375 C   0  0  0  0  0  0  0  0  0  0  0  0
    0.1580    5.4941    0.0589 C   0  0  0  0  0  0  0  0  0  0  0  0
  1  2  1  0
  2  3  2  0
  3  4  1  0
  4  5  2  0
  5  6  1  0
  6  7  1  0
  7  8  2  0
  8  9  1  0
  9 10  1  0
 10 11  2  0
 11 12  1  0
 12 13  2  0
 13 14  1  0
 13 15  1  0
 15 16  2  0
  8 17  1  0
 17 18  2  0
 17 19  1  0
 19 20  1  0
 20 21  1  0
 21 22  1  0
 22 23  2  0
 23 24  1  0
 24 25  2  0
 25 26  1  0
 26 27  2  0
 19 28  1  0
 28 29  2  0
  5 30  1  0
 30 31  2  0
 31  2  1  0
 28  7  1  0
 16 10  1  0
 27 22  1  0
M  END
>  <zinc_id>  (1) 
ZINC000001932062

>  <smiles>  (1) 
Cc1ccc(NC2=C(Sc3ccc(C)cc3)C(=O)N(CCc3ccccc3)C2=O)cc1

$$$$
