
     RDKit          3D

 33 36  0  0  0  0  0  0  0  0999 V2000
    6.3188    3.3998    2.1660 C   0  0  0  0  0  0  0  0  0  0  0  0
    6.5857    3.0285    0.8285 O   0  0  0  0  0  0  0  0  0  0  0  0
    6.0870    1.8077    0.3796 C   0  0  0  0  0  0  0  0  0  0  0  0
    6.3523    1.4555   -0.9242 C   0  0  0  0  0  0  0  0  0  0  0  0
    5.8905    0.2689   -1.4264 C   0  0  0  0  0  0  0  0  0  0  0  0
    5.1453   -0.5923   -0.6147 C   0  0  0  0  0  0  0  0  0  0  0  0
    4.6955   -1.8524   -1.2552 C   0  0  0  0  0  0  0  0  0  0  0  0
    3.3512   -1.7337   -1.9315 C   0  0  0  0  0  0  0  0  0  0  0  0
    2.3794   -1.3641   -0.9009 N   0  0  0  0  0  0  0  0  0  0  0  0
    1.0090   -1.1703   -1.2126 C   0  0  0  0  0  0  0  0  0  0  0  0
    0.6560   -1.3261   -2.4090 O   0  0  0  0  0  0  0  0  0  0  0  0
   -0.0103   -0.8048   -0.2426 C   0  0  0  0  0  0  0  0  0  0  0  0
   -1.3273   -0.5988   -0.5973 C   0  0  0  0  0  0  0  0  0  0  0  0
   -2.2863   -0.2502    0.3294 C   0  0  0  0  0  0  0  0  0  0  0  0
   -3.6815   -0.0308   -0.0396 C   0  0  0  0  0  0  0  0  0  0  0  0
   -4.6164    0.3173    0.9104 C   0  0  0  0  0  0  0  0  0  0  0  0
   -5.9528    0.5327    0.5886 C   0  0  0  0  0  0  0  0  0  0  0  0
   -6.3707    0.3973   -0.7183 C   0  0  0  0  0  0  0  0  0  0  0  0
   -7.6800    0.6007   -1.0786 O   0  0  0  0  0  0  0  0  0  0  0  0
   -8.7045    0.9568   -0.1887 C   0  0  0  0  0  0  0  0  0  0  0  0
   -5.4569    0.0496   -1.6911 C   0  0  0  0  0  0  0  0  0  0  0  0
   -5.8961   -0.0813   -2.9967 O   0  0  0  0  0  0  0  0  0  0  0  0
   -4.9389   -0.4406   -3.9864 C   0  0  0  0  0  0  0  0  0  0  0  0
   -4.1217   -0.1603   -1.3384 C   0  0  0  0  0  0  0  0  0  0  0  0
   -1.8791   -0.1186    1.6035 N   0  0  0  0  0  0  0  0  0  0  0  0
   -0.6195   -0.3043    2.0100 C   0  0  0  0  0  0  0  0  0  0  0  0
   -0.2275   -0.1632    3.3281 C   0  0  0  0  0  0  0  0  0  0  0  0
    1.0530   -0.3486    3.7670 C   0  0  0  0  0  0  0  0  0  0  0  0
    2.0041   -0.7007    2.8104 C   0  0  0  0  0  0  0  0  0  0  0  0
    1.6453   -0.8503    1.4815 C   0  0  0  0  0  0  0  0  0  0  0  0
    0.3557   -0.6573    1.0769 C   0  0  0  0  0  0  0  0  0  0  0  0
    4.8806   -0.2390    0.6890 C   0  0  0  0  0  0  0  0  0  0  0  0
    5.3600    0.9730    1.1798 C   0  0  0  0  0  0  0  0  0  0  0  0
  1  2  1  0
  2  3  1  0
  3  4  2  0
  4  5  1  0
  5  6  2  0
  6  7  1  0
  7  8  1  0
  8  9  1  0
  9 10  1  0
 10 11  2  0
 10 12  1  0
 12 13  2  0
 13 14  1  0
 14 15  1  0
 15 16  2  0
 16 17  1  0
 17 18  2  0
 18 19  1  0
 19 20  1  0
 18 21  1  0
 21 22  1  0
 22 23  1  0
 21 24  2  0
 14 25  2  0
 25 26  1  0
 26 27  2  0
 27 28  1  0
 28 29  2  0
 29 30  1  0
 30 31  2  0
  6 32  1  0
 32 33  2  0
 33  3  1  0
 31 12  1  0
 24 15  1  0
 31 26  1  0
M  END
>  <zinc_id>  (1) 
ZINC000001117202

>  <smiles>  (1) 
COc1ccc(CCNC(=O)c2cc(-c3ccc(OC)c(OC)c3)nc3ccccc23)cc1

$$$$
