
     RDKit          3D

 32 35  0  0  0  0  0  0  0  0999 V2000
   -6.1222   -1.2279    2.5176 C   0  0  0  0  0  0  0  0  0  0  0  0
   -5.2727   -2.4257    2.0785 C   0  0  0  0  0  0  0  0  0  0  0  0
   -4.2285   -1.8959    1.3176 O   0  0  0  0  0  0  0  0  0  0  0  0
   -3.2148   -2.5994    0.7179 C   0  0  0  0  0  0  0  0  0  0  0  0
   -3.1140   -3.9940    0.8104 C   0  0  0  0  0  0  0  0  0  0  0  0
   -2.0858   -4.6750    0.1995 C   0  0  0  0  0  0  0  0  0  0  0  0
   -1.1596   -3.9438   -0.5047 C   0  0  0  0  0  0  0  0  0  0  0  0
   -1.2713   -2.5728   -0.5872 C   0  0  0  0  0  0  0  0  0  0  0  0
   -2.2866   -1.8610    0.0114 C   0  0  0  0  0  0  0  0  0  0  0  0
   -2.4386   -0.4152   -0.0873 C   0  0  0  0  0  0  0  0  0  0  0  0
   -1.5166    0.4876    0.0729 C   0  0  0  0  0  0  0  0  0  0  0  0
   -0.1540    0.3409    0.3778 C   0  0  0  0  0  0  0  0  0  0  0  0
    0.3488   -0.7959    0.5483 O   0  0  0  0  0  0  0  0  0  0  0  0
    0.8160    1.4058    0.5324 N   0  0  0  0  0  0  0  0  0  0  0  0
    2.1985    1.0985    0.8607 C   0  0  0  0  0  0  0  0  0  0  0  0
    2.8432    0.2074   -0.1680 C   0  0  0  0  0  0  0  0  0  0  0  0
    4.2317   -0.1408    0.1563 C   0  0  0  0  0  0  0  0  0  0  0  0
    4.4246   -1.4245    0.6726 C   0  0  0  0  0  0  0  0  0  0  0  0
    5.6797   -1.8646    1.0227 C   0  0  0  0  0  0  0  0  0  0  0  0
    6.7939   -1.0652    0.8805 C   0  0  0  0  0  0  0  0  0  0  0  0
    6.6123    0.1969    0.3746 C   0  0  0  0  0  0  0  0  0  0  0  0
    5.3379    0.6372    0.0212 C   0  0  0  0  0  0  0  0  0  0  0  0
    5.1557    1.8857   -0.4825 F   0  0  0  0  0  0  0  0  0  0  0  0
   -2.3239    1.8701   -0.1188 C   0  0  1  0  0  0  0  0  0  0  0  0
   -1.2777    2.6557   -0.9882 C   0  0  0  0  0  0  0  0  0  0  0  0
   -0.6158    2.3029   -2.0553 C   0  0  0  0  0  0  0  0  0  0  0  0
    0.2774    3.1241   -2.7156 C   0  0  0  0  0  0  0  0  0  0  0  0
    0.4933    4.3884   -2.2352 C   0  0  0  0  0  0  0  0  0  0  0  0
   -0.1804    4.8065   -1.1156 C   0  0  0  0  0  0  0  0  0  0  0  0
   -1.0790    3.9252   -0.4825 C   0  0  0  0  0  0  0  0  0  0  0  0
   -3.1970    1.2861   -1.2118 O   0  0  0  0  0  0  0  0  0  0  0  0
   -3.6744    0.2828   -0.4202 N   0  0  0  0  0  0  0  0  0  0  0  0
  1  2  1  0
  2  3  1  0
  3  4  1  0
  4  5  2  0
  5  6  1  0
  6  7  2  0
  7  8  1  0
  8  9  2  0
  9 10  1  0
 10 11  2  0
 11 12  1  0
 12 13  2  0
 12 14  1  0
 14 15  1  0
 15 16  1  0
 16 17  1  0
 17 18  2  0
 18 19  1  0
 19 20  2  0
 20 21  1  0
 21 22  2  0
 22 23  1  0
 11 24  1  0
 24 25  1  6
 25 26  2  0
 26 27  1  0
 27 28  2  0
 28 29  1  0
 29 30  2  0
 24 31  1  0
 31 32  1  0
  9  4  1  0
 32 10  1  0
 22 17  1  0
 30 25  1  0
M  END
>  <zinc_id>  (1) 
ZINC000002469334

>  <smiles>  (1) 
CCOc1ccccc1C1=C(C(=O)NCCc2ccccc2F)[C@@H](c2ccccc2)ON1

$$$$
