
     RDKit          3D

 31 33  0  0  0  0  0  0  0  0999 V2000
   -0.9120    4.4548   -1.3862 C   0  0  0  0  0  0  0  0  0  0  0  0
   -1.6828    4.2690   -0.1137 C   0  0  0  0  0  0  0  0  0  0  0  0
   -2.1791    2.9737    0.0468 O   0  0  0  0  0  0  0  0  0  0  0  0
   -1.4645    1.8265    0.1094 C   0  0  0  0  0  0  0  0  0  0  0  0
   -0.1880    1.9663    0.0077 O   0  0  0  0  0  0  0  0  0  0  0  0
   -1.9664    0.4754    0.2806 C   0  0  0  0  0  0  0  0  0  0  0  0
   -1.1027   -0.5507    0.3530 C   0  0  0  0  0  0  0  0  0  0  0  0
    0.2942   -0.2886    0.2354 N   0  0  0  0  0  0  0  0  0  0  0  0
    1.0920   -0.8028   -0.8031 C   0  0  0  0  0  0  0  0  0  0  0  0
    0.4057   -1.7493   -1.9415 S   0  0  0  0  0  0  0  0  0  0  0  0
    2.4832   -0.5446   -0.9244 N   0  0  0  0  0  0  0  0  0  0  0  0
    3.1917    0.2719    0.0160 C   0  0  0  0  0  0  0  0  0  0  0  0
    2.4987    0.7433    0.9542 O   0  0  0  0  0  0  0  0  0  0  0  0
    4.6120    0.5403   -0.1009 C   0  0  0  0  0  0  0  0  0  0  0  0
    5.4032    0.0448   -1.1098 C   0  0  0  0  0  0  0  0  0  0  0  0
    6.7721    0.3445   -1.1624 C   0  0  0  0  0  0  0  0  0  0  0  0
    7.3418    1.1439   -0.1973 C   0  0  0  0  0  0  0  0  0  0  0  0
    6.5592    1.6431    0.8137 C   0  0  0  0  0  0  0  0  0  0  0  0
    5.2115    1.3348    0.8462 C   0  0  0  0  0  0  0  0  0  0  0  0
   -1.5711   -1.8580    0.7539 C   0  0  0  0  0  0  0  0  0  0  0  0
   -0.7001   -2.9402    0.7012 C   0  0  0  0  0  0  0  0  0  0  0  0
   -1.2268   -4.1812    0.9866 C   0  0  0  0  0  0  0  0  0  0  0  0
   -2.5644   -4.3596    1.3138 C   0  0  0  0  0  0  0  0  0  0  0  0
   -3.4157   -3.2769    1.3641 C   0  0  0  0  0  0  0  0  0  0  0  0
   -2.8846   -2.0470    1.0810 C   0  0  0  0  0  0  0  0  0  0  0  0
   -3.8019   -0.8578    1.2662 C   0  0  0  0  0  0  0  0  0  0  0  0
   -3.3973    0.1261    0.2164 C   0  0  0  0  0  0  0  0  0  0  0  0
   -4.3363    1.2544    0.0218 C   0  0  0  0  0  0  0  0  0  0  0  0
   -4.0659    1.9181   -1.3074 C   0  0  0  0  0  0  0  0  0  0  0  0
   -3.4648   -0.7554   -1.1254 C   0  0  0  0  0  0  0  0  0  0  0  0
   -4.9408   -1.1187   -1.1962 C   0  0  0  0  0  0  0  0  0  0  0  0
  1  2  1  0
  2  3  1  0
  3  4  1  0
  4  5  2  0
  4  6  1  0
  6  7  2  0
  7  8  1  0
  8  9  1  0
  9 10  2  0
  9 11  1  0
 11 12  1  0
 12 13  2  0
 12 14  1  0
 14 15  2  0
 15 16  1  0
 16 17  2  0
 17 18  1  0
 18 19  2  0
  7 20  1  0
 20 21  2  0
 21 22  1  0
 22 23  2  0
 23 24  1  0
 24 25  2  0
 25 26  1  0
 26 27  1  0
 27 28  1  0
 28 29  1  0
 27 30  1  0
 30 31  1  0
 27  6  1  0
 19 14  1  0
 25 20  1  0
M  END
>  <zinc_id>  (1) 
ZINC000002315009

>  <smiles>  (1) 
CCOC(=O)C1=C(NC(=S)NC(=O)c2ccccc2)c2ccccc2CC1(CC)CC

$$$$
