
     RDKit          3D

 32 36  0  0  0  0  0  0  0  0999 V2000
    6.9260   -0.4677   -0.6714 C   0  0  0  0  0  0  0  0  0  0  0  0
    6.5287    0.1902    0.6257 C   0  0  0  0  0  0  0  0  0  0  0  0
    5.3888   -0.3986    1.1090 O   0  0  0  0  0  0  0  0  0  0  0  0
    4.1539   -0.4602    0.4752 C   0  0  0  0  0  0  0  0  0  0  0  0
    3.9509    0.0975   -0.7681 C   0  0  0  0  0  0  0  0  0  0  0  0
    2.7323    0.0492   -1.4188 C   0  0  0  0  0  0  0  0  0  0  0  0
    1.6446   -0.5706   -0.8433 C   0  0  0  0  0  0  0  0  0  0  0  0
    0.3496   -0.7700   -1.2452 N   0  0  0  0  0  0  0  0  0  0  0  0
   -0.2914   -1.4327   -0.3151 C   0  0  0  0  0  0  0  0  0  0  0  0
    0.5881   -1.6724    0.7126 C   0  0  0  0  0  0  0  0  0  0  0  0
    1.8289   -1.1361    0.4043 C   0  0  0  0  0  0  0  0  0  0  0  0
    3.0585   -1.0775    1.0412 C   0  0  0  0  0  0  0  0  0  0  0  0
    0.0712   -2.4009    1.8775 C   0  0  0  0  0  0  0  0  0  0  0  0
   -1.3298   -2.0268    2.2360 C   0  0  0  0  0  0  0  0  0  0  0  0
   -2.0594   -1.3146    1.2150 N   0  0  0  0  0  0  0  0  0  0  0  0
   -1.7293   -2.0147   -0.1300 C   0  0  1  0  0  0  0  0  0  0  0  0
   -2.5381   -1.0699   -1.1140 C   0  0  0  0  0  0  0  0  0  0  0  0
   -2.6224   -1.6094   -2.4203 C   0  0  0  0  0  0  0  0  0  0  0  0
   -3.3489   -0.9107   -3.3446 C   0  0  0  0  0  0  0  0  0  0  0  0
   -3.9762    0.2778   -3.0118 C   0  0  0  0  0  0  0  0  0  0  0  0
   -3.8558    0.7518   -1.7231 C   0  0  0  0  0  0  0  0  0  0  0  0
   -4.4654    1.9348   -1.3452 O   0  0  0  0  0  0  0  0  0  0  0  0
   -5.2337    2.7154   -2.2366 C   0  0  0  0  0  0  0  0  0  0  0  0
   -3.1179    0.0546   -0.7642 C   0  0  0  0  0  0  0  0  0  0  0  0
   -3.0471    0.5955    0.4652 O   0  0  0  0  0  0  0  0  0  0  0  0
   -2.3590    1.5509    1.0920 C   0  0  0  0  0  0  0  0  0  0  0  0
   -0.9537    1.6758    1.2659 C   0  0  0  0  0  0  0  0  0  0  0  0
   -0.2734    1.1926    2.3953 C   0  0  0  0  0  0  0  0  0  0  0  0
    1.0811    1.3720    2.5387 C   0  0  0  0  0  0  0  0  0  0  0  0
    1.8377    2.0287    1.5914 C   0  0  0  0  0  0  0  0  0  0  0  0
    1.2042    2.5084    0.4825 C   0  0  0  0  0  0  0  0  0  0  0  0
   -0.1433    2.3375    0.3260 C   0  0  0  0  0  0  0  0  0  0  0  0
  1  2  1  0
  2  3  1  0
  3  4  1  0
  4  5  2  0
  5  6  1  0
  6  7  2  0
  7  8  1  0
  8  9  1  0
  9 10  2  0
 10 11  1  0
 11 12  2  0
 10 13  1  0
 13 14  1  0
 14 15  1  0
 15 16  1  0
 16 17  1  1
 17 18  2  0
 18 19  1  0
 19 20  2  0
 20 21  1  0
 21 22  1  0
 22 23  1  0
 21 24  2  0
 24 25  1  0
 25 26  1  0
 26 27  1  0
 27 28  2  0
 28 29  1  0
 29 30  2  0
 30 31  1  0
 31 32  2  0
 12  4  1  0
 24 17  1  0
 32 27  1  0
 11  7  1  0
 16  9  1  0
M  END
>  <zinc_id>  (1) 
ZINC000003738927

>  <smiles>  (1) 
CCOc1ccc2[nH]c3c(c2c1)CCN[C@@H]3c1cccc(OC)c1OCc1ccccc1

$$$$
