
     RDKit          3D

 30 32  0  0  0  0  0  0  0  0999 V2000
   -1.4023   -3.3285    0.0771 C   0  0  0  0  0  0  0  0  0  0  0  0
   -1.5711   -2.0671    0.4385 C   0  0  0  0  0  0  0  0  0  0  0  0
   -0.4153   -1.4636    1.0859 N   0  0  0  0  0  0  0  0  0  0  0  0
    0.7598   -1.4027    0.2655 N   0  0  0  0  0  0  0  0  0  0  0  0
    0.5968   -1.2505   -1.1511 C   0  0  0  0  0  0  0  0  0  0  0  0
   -0.6290   -1.1735   -1.5238 O   0  0  0  0  0  0  0  0  0  0  0  0
    1.6164   -1.1787   -2.1643 C   0  0  0  0  0  0  0  0  0  0  0  0
    2.9036   -1.3351   -1.9377 O   0  0  0  0  0  0  0  0  0  0  0  0
    3.9133   -0.7942   -1.2396 C   0  0  0  0  0  0  0  0  0  0  0  0
    3.7606    0.2846   -0.4218 C   0  0  0  0  0  0  0  0  0  0  0  0
    4.8044    0.8383    0.2899 C   0  0  0  0  0  0  0  0  0  0  0  0
    6.0585    0.2851    0.1764 C   0  0  0  0  0  0  0  0  0  0  0  0
    7.2636    0.7885    0.8750 C   0  0  0  0  0  0  0  0  0  0  0  0
    8.0903    1.5472   -0.1751 C   0  0  0  0  0  0  0  0  0  0  0  0
    6.9078    1.6693    2.0276 C   0  0  0  0  0  0  0  0  0  0  0  0
    8.1011   -0.4093    1.3126 C   0  0  0  0  0  0  0  0  0  0  0  0
    6.2081   -0.8026   -0.6488 C   0  0  0  0  0  0  0  0  0  0  0  0
    5.2032   -1.3668   -1.3580 C   0  0  0  0  0  0  0  0  0  0  0  0
   -2.7628   -1.2788    0.1930 C   0  0  0  0  0  0  0  0  0  0  0  0
   -3.7176   -1.6981   -0.7375 C   0  0  0  0  0  0  0  0  0  0  0  0
   -4.8592   -0.9967   -1.0297 C   0  0  0  0  0  0  0  0  0  0  0  0
   -5.1248    0.2064   -0.3870 C   0  0  0  0  0  0  0  0  0  0  0  0
   -6.2532    0.9396   -0.6426 C   0  0  0  0  0  0  0  0  0  0  0  0
   -6.5362    2.1239   -0.0121 C   0  0  0  0  0  0  0  0  0  0  0  0
   -7.6877    2.8657   -0.2760 O   0  0  0  0  0  0  0  0  0  0  0  0
   -7.9431    4.0734    0.3910 C   0  0  0  0  0  0  0  0  0  0  0  0
   -5.5976    2.5498    0.9187 C   0  0  0  0  0  0  0  0  0  0  0  0
   -4.4592    1.8245    1.1837 C   0  0  0  0  0  0  0  0  0  0  0  0
   -4.1915    0.6366    0.5384 C   0  0  0  0  0  0  0  0  0  0  0  0
   -3.0367   -0.0869    0.8229 C   0  0  0  0  0  0  0  0  0  0  0  0
  1  2  2  0
  2  3  1  0
  3  4  1  0
  4  5  1  0
  5  6  2  0
  5  7  1  0
  7  8  1  0
  8  9  1  0
  9 10  2  0
 10 11  1  0
 11 12  2  0
 12 13  1  0
 13 14  1  0
 13 15  1  0
 13 16  1  0
 12 17  1  0
 17 18  2  0
  2 19  1  0
 19 20  2  0
 20 21  1  0
 21 22  2  0
 22 23  1  0
 23 24  2  0
 24 25  1  0
 25 26  1  0
 24 27  1  0
 27 28  2  0
 28 29  1  0
 29 30  2  0
 18  9  1  0
 30 19  1  0
 29 22  1  0
M  END
>  <zinc_id>  (1) 
ZINC000003253744

>  <smiles>  (1) 
C=C(NNC(=O)COc1ccc(C(C)(C)C)cc1)c1ccc2cc(OC)ccc2c1

$$$$
