
     RDKit          3D

 30 33  0  0  0  0  0  0  0  0999 V2000
   -4.0743   -0.3802   -1.2907 C   0  0  0  0  0  0  0  0  0  0  0  0
   -3.1630   -1.4322   -0.7638 C   0  0  0  0  0  0  0  0  0  0  0  0
   -2.8907   -2.5728   -1.5062 C   0  0  0  0  0  0  0  0  0  0  0  0
   -2.0566   -3.5666   -1.0590 C   0  0  0  0  0  0  0  0  0  0  0  0
   -1.4584   -3.4246    0.1917 C   0  0  0  0  0  0  0  0  0  0  0  0
   -1.7062   -2.3026    0.9587 C   0  0  0  0  0  0  0  0  0  0  0  0
   -1.1021   -2.0866    2.3000 C   0  0  0  0  0  0  0  0  0  0  0  0
    0.4806   -1.1918    2.0623 S   0  0  0  0  0  0  0  0  0  0  0  0
    0.1658    0.4597    1.4297 C   0  0  0  0  0  0  0  0  0  0  0  0
   -0.0358    1.5487    2.2302 N   0  0  0  0  0  0  0  0  0  0  0  0
   -0.2757    2.6266    1.4708 C   0  0  0  0  0  0  0  0  0  0  0  0
   -0.2271    2.2258    0.1597 C   0  0  0  0  0  0  0  0  0  0  0  0
   -0.4410    3.1460   -0.8448 C   0  0  0  0  0  0  0  0  0  0  0  0
   -0.4002    2.7957   -2.0486 O   0  0  0  0  0  0  0  0  0  0  0  0
   -0.6961    4.4307   -0.5462 N   0  0  0  0  0  0  0  0  0  0  0  0
   -0.7475    4.8438    0.7507 C   0  0  0  0  0  0  0  0  0  0  0  0
   -0.9895    6.0605    1.0159 O   0  0  0  0  0  0  0  0  0  0  0  0
   -0.5360    3.9285    1.7031 N   0  0  0  0  0  0  0  0  0  0  0  0
   -0.5863    4.3473    3.0905 C   0  0  0  0  0  0  0  0  0  0  0  0
    0.0459    0.8949    0.1795 N   0  0  0  0  0  0  0  0  0  0  0  0
    0.1328    0.1304   -1.0221 C   0  0  0  0  0  0  0  0  0  0  0  0
    1.3250    0.0745   -1.7922 C   0  0  0  0  0  0  0  0  0  0  0  0
    2.6214   -0.3964   -1.4950 C   0  0  0  0  0  0  0  0  0  0  0  0
    2.8974   -1.7885   -1.1688 C   0  0  0  0  0  0  0  0  0  0  0  0
    3.1275   -2.6712   -2.2226 C   0  0  0  0  0  0  0  0  0  0  0  0
    3.4187   -3.9932   -2.0067 C   0  0  0  0  0  0  0  0  0  0  0  0
    3.4834   -4.4523   -0.7120 C   0  0  0  0  0  0  0  0  0  0  0  0
    3.2642   -3.6225    0.3783 C   0  0  0  0  0  0  0  0  0  0  0  0
    2.9756   -2.3026    0.0886 C   0  0  0  0  0  0  0  0  0  0  0  0
   -2.5520   -1.3287    0.4688 C   0  0  0  0  0  0  0  0  0  0  0  0
  1  2  1  0
  2  3  2  0
  3  4  1  0
  4  5  2  0
  5  6  1  0
  6  7  1  0
  7  8  1  0
  8  9  1  0
  9 10  2  0
 10 11  1  0
 11 12  2  0
 12 13  1  0
 13 14  2  0
 13 15  1  0
 15 16  1  0
 16 17  2  0
 16 18  1  0
 18 19  1  0
 12 20  1  0
 20 21  1  0
 21 22  1  0
 22 23  1  0
 23 24  1  0
 24 25  2  0
 25 26  1  0
 26 27  2  0
 27 28  1  0
 28 29  2  0
  6 30  2  0
 30  2  1  0
 20  9  1  0
 29 24  1  0
 18 11  1  0
M  END
>  <zinc_id>  (1) 
ZINC000000629307

>  <smiles>  (1) 
Cc1cccc(CSc2nc3c(c(=O)[nH]c(=O)n3C)n2CCCc2ccccc2)c1

$$$$
