
     RDKit          3D

 30 33  0  0  0  0  0  0  0  0999 V2000
    1.8783   -1.5220    0.1558 O   0  0  0  0  0  0  0  0  0  0  0  0
    0.9432   -1.7275   -0.6257 C   0  0  0  0  0  0  0  0  0  0  0  0
    1.2173   -2.2107   -1.9137 N   0  0  0  0  0  0  0  0  0  0  0  0
    2.4675   -2.5113   -2.4891 C   0  0  0  0  0  0  0  0  0  0  0  0
    3.4594   -1.4176   -2.6261 C   0  0  0  0  0  0  0  0  0  0  0  0
    3.8103   -0.8583   -1.4038 O   0  0  0  0  0  0  0  0  0  0  0  0
    4.7170    0.1809   -1.2557 C   0  0  0  0  0  0  0  0  0  0  0  0
    5.3480    0.7469   -2.3427 C   0  0  0  0  0  0  0  0  0  0  0  0
    6.2508    1.7772   -2.2363 C   0  0  0  0  0  0  0  0  0  0  0  0
    6.5538    2.2838   -0.9883 C   0  0  0  0  0  0  0  0  0  0  0  0
    5.9365    1.7364    0.1253 C   0  0  0  0  0  0  0  0  0  0  0  0
    6.2578    2.2608    1.3621 C   0  0  0  0  0  0  0  0  0  0  0  0
    5.6454    1.7188    2.4827 C   0  0  0  0  0  0  0  0  0  0  0  0
    4.7380    0.6823    2.3686 C   0  0  0  0  0  0  0  0  0  0  0  0
    4.4547    0.2002    1.1277 C   0  0  0  0  0  0  0  0  0  0  0  0
    5.0340    0.7015   -0.0186 C   0  0  0  0  0  0  0  0  0  0  0  0
   -0.4670   -1.4808   -0.2533 C   0  0  0  0  0  0  0  0  0  0  0  0
   -0.8115   -0.9422    0.9680 C   0  0  0  0  0  0  0  0  0  0  0  0
   -2.1330   -0.7110    1.3107 C   0  0  0  0  0  0  0  0  0  0  0  0
   -3.1544   -1.0140    0.4357 C   0  0  0  0  0  0  0  0  0  0  0  0
   -4.5963   -0.7799    0.7495 C   0  0  0  0  0  0  0  0  0  0  0  0
   -5.0940    0.8865    0.1849 S   0  0  0  0  0  0  0  0  0  0  0  0
   -6.8410    1.1561    0.5756 C   0  0  0  0  0  0  0  0  0  0  0  0
   -7.6598    0.2050   -0.2392 C   0  0  0  0  0  0  0  0  0  0  0  0
   -9.0882    0.1046    0.2439 C   0  0  0  0  0  0  0  0  0  0  0  0
   -9.0535   -0.2664    1.7109 C   0  0  0  0  0  0  0  0  0  0  0  0
   -8.4851    0.9500    2.4503 C   0  0  0  0  0  0  0  0  0  0  0  0
   -7.0272    1.0380    2.0521 C   0  0  0  0  0  0  0  0  0  0  0  0
   -2.8133   -1.5531   -0.7871 C   0  0  0  0  0  0  0  0  0  0  0  0
   -1.4878   -1.7824   -1.1243 C   0  0  0  0  0  0  0  0  0  0  0  0
  1  2  2  0
  2  3  1  0
  3  4  1  0
  4  5  1  0
  5  6  1  0
  6  7  1  0
  7  8  2  0
  8  9  1  0
  9 10  2  0
 10 11  1  0
 11 12  2  0
 12 13  1  0
 13 14  2  0
 14 15  1  0
 15 16  2  0
  2 17  1  0
 17 18  2  0
 18 19  1  0
 19 20  2  0
 20 21  1  0
 21 22  1  0
 22 23  1  0
 23 24  1  0
 24 25  1  0
 25 26  1  0
 26 27  1  0
 27 28  1  0
 20 29  1  0
 29 30  2  0
 16  7  1  0
 30 17  1  0
 16 11  1  0
 28 23  1  0
M  END
>  <zinc_id>  (1) 
ZINC000003617120

>  <smiles>  (1) 
O=C(NCCOc1cccc2ccccc12)c1ccc(CSC2CCCCC2)cc1

$$$$
