
     RDKit          3D

 32 35  0  0  0  0  0  0  0  0999 V2000
    7.2973   -0.4298    0.5642 C   0  0  0  0  0  0  0  0  0  0  0  0
    7.0259    0.9524   -0.0369 C   0  0  0  0  0  0  0  0  0  0  0  0
    6.2959    0.8210   -1.3451 C   0  0  0  0  0  0  0  0  0  0  0  0
    5.0174    0.1573   -1.2277 N   0  0  0  0  0  0  0  0  0  0  0  0
    3.9531    0.6257   -0.4308 C   0  0  0  0  0  0  0  0  0  0  0  0
    4.1258    1.6910    0.2227 O   0  0  0  0  0  0  0  0  0  0  0  0
    2.6799   -0.0764   -0.3452 C   0  0  0  0  0  0  0  0  0  0  0  0
    2.5159   -1.2752   -0.9970 C   0  0  0  0  0  0  0  0  0  0  0  0
    1.3214   -1.9269   -0.9223 C   0  0  0  0  0  0  0  0  0  0  0  0
    0.2884   -1.4117   -0.2137 C   0  0  0  0  0  0  0  0  0  0  0  0
    0.3797   -0.2343    0.4523 C   0  0  0  0  0  0  0  0  0  0  0  0
    1.6186    0.4264    0.3670 C   0  0  0  0  0  0  0  0  0  0  0  0
   -0.6256    0.4308    1.1766 N   0  0  0  0  0  0  0  0  0  0  0  0
   -0.3183    1.7232    1.8426 C   0  0  0  0  0  0  0  0  0  0  0  0
   -0.5407    2.8505    0.9446 C   0  0  0  0  0  0  0  0  0  0  0  0
   -1.7789    3.4039    0.8070 C   0  0  0  0  0  0  0  0  0  0  0  0
   -1.9971    4.4700   -0.0402 C   0  0  0  0  0  0  0  0  0  0  0  0
   -0.9259    4.9651   -0.7474 C   0  0  0  0  0  0  0  0  0  0  0  0
    0.3558    4.4360   -0.6412 C   0  0  0  0  0  0  0  0  0  0  0  0
    1.4408    5.0298   -1.4349 C   0  0  0  0  0  0  0  0  0  0  0  0
    0.5053    3.3668    0.2269 C   0  0  0  0  0  0  0  0  0  0  0  0
   -1.9340   -0.0819    1.2974 C   0  0  0  0  0  0  0  0  0  0  0  0
   -2.7939    0.5654    1.9676 O   0  0  0  0  0  0  0  0  0  0  0  0
   -2.3972   -1.3268    0.7009 C   0  0  0  0  0  0  0  0  0  0  0  0
   -3.6369   -1.7238    0.7331 C   0  0  0  0  0  0  0  0  0  0  0  0
   -4.0323   -2.9760    0.1223 C   0  0  0  0  0  0  0  0  0  0  0  0
   -5.2053   -3.0363   -0.5841 C   0  0  0  0  0  0  0  0  0  0  0  0
   -5.6308   -4.2233   -1.1735 C   0  0  0  0  0  0  0  0  0  0  0  0
   -4.8456   -5.3738   -1.0414 C   0  0  0  0  0  0  0  0  0  0  0  0
   -3.6735   -5.3209   -0.3372 C   0  0  0  0  0  0  0  0  0  0  0  0
   -3.2624   -4.1360    0.2430 C   0  0  0  0  0  0  0  0  0  0  0  0
   -1.2228   -2.3621   -0.1497 S   0  0  0  0  0  0  0  0  0  0  0  0
  1  2  1  0
  2  3  1  0
  3  4  1  0
  4  5  1  0
  5  6  2  0
  5  7  1  0
  7  8  2  0
  8  9  1  0
  9 10  2  0
 10 11  1  0
 11 12  2  0
 11 13  1  0
 13 14  1  0
 14 15  1  0
 15 16  2  0
 16 17  1  0
 17 18  2  0
 18 19  1  0
 19 20  1  0
 19 21  2  0
 13 22  1  0
 22 23  2  0
 22 24  1  0
 24 25  2  0
 25 26  1  0
 26 27  2  0
 27 28  1  0
 28 29  2  0
 29 30  1  0
 30 31  2  0
 24 32  1  0
 12  7  1  0
 21 15  1  0
 31 26  1  0
 32 10  1  0
M  END
>  <zinc_id>  (1) 
ZINC000003065467

>  <smiles>  (1) 
CCCNC(=O)c1ccc2c(c1)N(Cc1cccc(C)c1)C(=O)/C(=C/c1ccccc1)S2

$$$$
