
     RDKit          3D

 32 35  0  0  0  0  0  0  0  0999 V2000
   -2.6020   -4.7260    3.6428 C   0  0  0  0  0  0  0  0  0  0  0  0
   -2.4847   -3.5145    2.7709 C   0  0  0  0  0  0  0  0  0  0  0  0
   -1.6735   -2.4503    3.1096 C   0  0  0  0  0  0  0  0  0  0  0  0
   -1.5487   -1.3235    2.3233 C   0  0  0  0  0  0  0  0  0  0  0  0
   -2.2494   -1.2255    1.1451 C   0  0  0  0  0  0  0  0  0  0  0  0
   -2.1621    0.1734    0.0633 S   0  0  0  0  0  0  0  0  0  0  0  0
   -0.8389   -0.0598   -1.1432 C   0  0  0  0  0  0  0  0  0  0  0  0
   -0.5157    0.8022   -2.0895 C   0  0  0  0  0  0  0  0  0  0  0  0
   -1.1476    2.0490   -2.3183 N   0  0  0  0  0  0  0  0  0  0  0  0
   -0.9438    3.0974   -1.3615 C   0  0  0  0  0  0  0  0  0  0  0  0
   -1.5393    4.3289   -1.5429 C   0  0  0  0  0  0  0  0  0  0  0  0
   -1.3327    5.3260   -0.6131 C   0  0  0  0  0  0  0  0  0  0  0  0
   -0.5457    5.1409    0.5045 C   0  0  0  0  0  0  0  0  0  0  0  0
   -0.3378    6.2410    1.4991 C   0  0  0  0  0  0  0  0  0  0  0  0
    0.0379    3.9075    0.6661 C   0  0  0  0  0  0  0  0  0  0  0  0
    0.8976    3.7021    1.8850 C   0  0  0  0  0  0  0  0  0  0  0  0
   -0.1594    2.9120   -0.2482 C   0  0  0  0  0  0  0  0  0  0  0  0
    0.5958    0.2339   -2.8388 C   0  0  0  0  0  0  0  0  0  0  0  0
    1.2091    0.7359   -3.8305 O   0  0  0  0  0  0  0  0  0  0  0  0
    0.9314   -1.0374   -2.2852 N   0  0  0  0  0  0  0  0  0  0  0  0
    1.9599   -1.9626   -2.7107 C   0  0  0  0  0  0  0  0  0  0  0  0
    3.2757   -1.6893   -2.0295 C   0  0  0  0  0  0  0  0  0  0  0  0
    3.0812   -1.8184   -0.5727 C   0  0  0  0  0  0  0  0  0  0  0  0
    3.2379   -3.0252    0.0388 C   0  0  0  0  0  0  0  0  0  0  0  0
    3.0593   -3.1197    1.3981 C   0  0  0  0  0  0  0  0  0  0  0  0
    2.7229   -2.0095    2.1561 C   0  0  0  0  0  0  0  0  0  0  0  0
    2.5705   -0.7887    1.4949 C   0  0  0  0  0  0  0  0  0  0  0  0
    2.7504   -0.7104    0.1498 C   0  0  0  0  0  0  0  0  0  0  0  0
    0.0300   -1.2368   -1.2097 C   0  0  0  0  0  0  0  0  0  0  0  0
   -0.0236   -2.2433   -0.4418 O   0  0  0  0  0  0  0  0  0  0  0  0
   -3.0695   -2.2968    0.7986 C   0  0  0  0  0  0  0  0  0  0  0  0
   -3.1854   -3.4124    1.5894 C   0  0  0  0  0  0  0  0  0  0  0  0
  1  2  1  0
  2  3  2  0
  3  4  1  0
  4  5  2  0
  5  6  1  0
  6  7  1  0
  7  8  2  0
  8  9  1  0
  9 10  1  0
 10 11  2  0
 11 12  1  0
 12 13  2  0
 13 14  1  0
 13 15  1  0
 15 16  1  0
 15 17  2  0
  8 18  1  0
 18 19  2  0
 18 20  1  0
 20 21  1  0
 21 22  1  0
 22 23  1  0
 23 24  2  0
 24 25  1  0
 25 26  2  0
 26 27  1  0
 27 28  2  0
 20 29  1  0
 29 30  2  0
  5 31  1  0
 31 32  2  0
 32  2  1  0
 29  7  1  0
 17 10  1  0
 28 23  1  0
M  END
>  <zinc_id>  (1) 
ZINC000001932070

>  <smiles>  (1) 
Cc1ccc(SC2=C(Nc3ccc(C)c(C)c3)C(=O)N(CCc3ccccc3)C2=O)cc1

$$$$
