
     RDKit          3D

 31 34  0  0  0  0  0  0  0  0999 V2000
    7.8981    0.1476   -0.5121 C   0  0  0  0  0  0  0  0  0  0  0  0
    7.5589    1.4003    0.2606 C   0  0  0  0  0  0  0  0  0  0  0  0
    6.2856    1.9173   -0.0783 O   0  0  0  0  0  0  0  0  0  0  0  0
    5.1277    1.1684    0.0990 C   0  0  0  0  0  0  0  0  0  0  0  0
    3.9200    1.7333   -0.2521 C   0  0  0  0  0  0  0  0  0  0  0  0
    2.7374    0.9982   -0.0829 C   0  0  0  0  0  0  0  0  0  0  0  0
    2.7519   -0.2714    0.4243 C   0  0  0  0  0  0  0  0  0  0  0  0
    1.5427   -0.9955    0.5884 N   0  0  0  0  0  0  0  0  0  0  0  0
    0.2764   -0.4403    0.2526 C   0  0  0  0  0  0  0  0  0  0  0  0
    0.2882    0.7054   -0.1897 O   0  0  0  0  0  0  0  0  0  0  0  0
   -0.9534   -1.2561    0.4534 C   0  0  0  0  0  0  0  0  0  0  0  0
   -2.1782   -0.7086    0.2500 C   0  0  0  0  0  0  0  0  0  0  0  0
   -2.8104    0.4962    0.1263 N   0  0  0  0  0  0  0  0  0  0  0  0
   -2.6578    1.8155    0.3267 C   0  0  0  0  0  0  0  0  0  0  0  0
   -1.5981    2.2566    0.8309 O   0  0  0  0  0  0  0  0  0  0  0  0
   -3.7035    2.8258   -0.0240 C   0  0  0  0  0  0  0  0  0  0  0  0
   -3.4924    4.1642    0.2019 C   0  0  0  0  0  0  0  0  0  0  0  0
   -4.5020    5.0693   -0.1436 C   0  0  0  0  0  0  0  0  0  0  0  0
   -5.6913    4.6463   -0.7005 C   0  0  0  0  0  0  0  0  0  0  0  0
   -5.9012    3.2943   -0.9272 C   0  0  0  0  0  0  0  0  0  0  0  0
   -4.8994    2.4352   -0.5804 C   0  0  0  0  0  0  0  0  0  0  0  0
   -3.2091   -2.1423    0.4012 S   0  0  0  0  0  0  0  0  0  0  0  0
   -2.0330   -3.3037    0.7127 C   0  0  0  0  0  0  0  0  0  0  0  0
   -0.8808   -2.5888    0.6942 C   0  0  0  0  0  0  0  0  0  0  0  0
    0.4602   -3.2798    0.9428 C   0  0  0  0  0  0  0  0  0  0  0  0
    0.7468   -4.2317   -0.1832 C   0  0  0  0  0  0  0  0  0  0  0  0
   -0.5485   -4.5905   -0.8753 C   0  0  0  0  0  0  0  0  0  0  0  0
   -1.3744   -5.5459   -0.0434 C   0  0  0  0  0  0  0  0  0  0  0  0
   -2.2571   -4.7890    0.9514 C   0  0  0  0  0  0  0  0  0  0  0  0
    3.9590   -0.8235    0.7703 C   0  0  0  0  0  0  0  0  0  0  0  0
    5.1380   -0.1066    0.6079 C   0  0  0  0  0  0  0  0  0  0  0  0
  1  2  1  0
  2  3  1  0
  3  4  1  0
  4  5  2  0
  5  6  1  0
  6  7  2  0
  7  8  1  0
  8  9  1  0
  9 10  2  0
  9 11  1  0
 11 12  2  0
 12 13  1  0
 13 14  1  0
 14 15  2  0
 14 16  1  0
 16 17  2  0
 17 18  1  0
 18 19  2  0
 19 20  1  0
 20 21  2  0
 12 22  1  0
 22 23  1  0
 23 24  2  0
 24 25  1  0
 25 26  1  0
 26 27  1  0
 27 28  1  0
 28 29  1  0
  7 30  1  0
 30 31  2  0
 31  4  1  0
 24 11  1  0
 21 16  1  0
 29 23  1  0
M  END
>  <zinc_id>  (1) 
ZINC000002904782

>  <smiles>  (1) 
CCOc1ccc(NC(=O)c2c(NC(=O)c3ccccc3)sc3c2CCCCC3)cc1

$$$$
