
     RDKit          3D

 31 34  0  0  0  0  0  0  0  0999 V2000
   -7.9381    1.3071   -3.6047 C   0  0  0  0  0  0  0  0  0  0  0  0
   -6.5735    1.2074   -3.8716 O   0  0  0  0  0  0  0  0  0  0  0  0
   -5.6219    0.9918   -2.8743 C   0  0  0  0  0  0  0  0  0  0  0  0
   -5.9763    0.8625   -1.5487 C   0  0  0  0  0  0  0  0  0  0  0  0
   -5.0359    0.6492   -0.5620 C   0  0  0  0  0  0  0  0  0  0  0  0
   -3.6913    0.5544   -0.8523 C   0  0  0  0  0  0  0  0  0  0  0  0
   -2.7173    0.3338    0.1665 N   0  0  0  0  0  0  0  0  0  0  0  0
   -1.3323    0.2345   -0.1179 C   0  0  0  0  0  0  0  0  0  0  0  0
   -0.9614    0.3437   -1.2923 O   0  0  0  0  0  0  0  0  0  0  0  0
   -0.3100    0.0047    0.9378 C   0  0  0  0  0  0  0  0  0  0  0  0
    1.0174   -0.0839    0.6121 C   0  0  0  0  0  0  0  0  0  0  0  0
    1.6270    0.0191   -0.7009 N   0  0  0  0  0  0  0  0  0  0  0  0
    3.0268   -0.1063   -0.7855 C   0  0  0  0  0  0  0  0  0  0  0  0
    3.6737   -0.3003    0.2759 O   0  0  0  0  0  0  0  0  0  0  0  0
    3.7628   -0.0163   -2.0919 C   0  0  0  0  0  0  0  0  0  0  0  0
    5.2086   -0.1874   -1.8429 C   0  0  0  0  0  0  0  0  0  0  0  0
    6.0043    0.9262   -1.5784 C   0  0  0  0  0  0  0  0  0  0  0  0
    7.3551    0.8346   -1.3386 C   0  0  0  0  0  0  0  0  0  0  0  0
    7.9353   -0.4164   -1.3635 C   0  0  0  0  0  0  0  0  0  0  0  0
    7.1884   -1.5456   -1.6206 C   0  0  0  0  0  0  0  0  0  0  0  0
    5.8363   -1.4120   -1.8562 C   0  0  0  0  0  0  0  0  0  0  0  0
    1.7824   -0.3445    2.1191 S   0  0  0  0  0  0  0  0  0  0  0  0
    0.4154   -0.3358    3.1229 C   0  0  0  0  0  0  0  0  0  0  0  0
   -0.6096   -0.1299    2.2619 C   0  0  0  0  0  0  0  0  0  0  0  0
   -2.0540   -0.0472    2.7282 C   0  0  0  0  0  0  0  0  0  0  0  0
   -2.4201   -1.3613    3.3604 C   0  0  0  0  0  0  0  0  0  0  0  0
   -1.9334   -1.3374    4.7985 C   0  0  0  0  0  0  0  0  0  0  0  0
   -0.4687   -1.7050    4.9037 C   0  0  0  0  0  0  0  0  0  0  0  0
    0.4311   -0.5218    4.6148 C   0  0  0  0  0  0  0  0  0  0  0  0
   -3.3411    0.6845   -2.1812 C   0  0  0  0  0  0  0  0  0  0  0  0
   -4.2797    0.8979   -3.1703 C   0  0  0  0  0  0  0  0  0  0  0  0
  1  2  1  0
  2  3  1  0
  3  4  2  0
  4  5  1  0
  5  6  2  0
  6  7  1  0
  7  8  1  0
  8  9  2  0
  8 10  1  0
 10 11  2  0
 11 12  1  0
 12 13  1  0
 13 14  2  0
 13 15  1  0
 15 16  1  0
 16 17  2  0
 17 18  1  0
 18 19  2  0
 19 20  1  0
 20 21  2  0
 11 22  1  0
 22 23  1  0
 23 24  2  0
 24 25  1  0
 25 26  1  0
 26 27  1  0
 27 28  1  0
 28 29  1  0
  6 30  1  0
 30 31  2  0
 31  3  1  0
 24 10  1  0
 21 16  1  0
 29 23  1  0
M  END
>  <zinc_id>  (1) 
ZINC000001081668

>  <smiles>  (1) 
COc1ccc(NC(=O)c2c(NC(=O)Cc3ccccc3)sc3c2CCCCC3)cc1

$$$$
