
     RDKit          3D

 32 35  0  0  0  0  0  0  0  0999 V2000
    8.0144   -1.1186    0.3979 C   0  0  0  0  0  0  0  0  0  0  0  0
    7.8322    0.0623    1.1383 O   0  0  0  0  0  0  0  0  0  0  0  0
    6.5869    0.2725    1.7347 C   0  0  0  0  0  0  0  0  0  0  0  0
    6.4564    1.4611    2.4593 C   0  0  0  0  0  0  0  0  0  0  0  0
    5.2262    1.6616    3.0446 C   0  0  0  0  0  0  0  0  0  0  0  0
    4.2017    0.7675    2.9297 C   0  0  0  0  0  0  0  0  0  0  0  0
    4.3585   -0.3882    2.2136 C   0  0  0  0  0  0  0  0  0  0  0  0
    3.2587   -1.3594    2.0864 C   0  0  0  0  0  0  0  0  0  0  0  0
    2.3685   -1.0939    0.9954 N   0  0  0  0  0  0  0  0  0  0  0  0
    1.3667   -0.0745    1.0181 C   0  0  0  0  0  0  0  0  0  0  0  0
    1.2384    0.6289    2.0203 O   0  0  0  0  0  0  0  0  0  0  0  0
    0.5369    0.0788   -0.1683 C   0  0  0  0  0  0  0  0  0  0  0  0
   -0.4823    1.0181   -0.2411 C   0  0  0  0  0  0  0  0  0  0  0  0
   -1.2714    1.1664   -1.3607 C   0  0  0  0  0  0  0  0  0  0  0  0
   -2.5924    2.3594   -1.4886 S   0  0  0  0  0  0  0  0  0  0  0  0
   -4.1327    1.6463   -0.9277 C   0  0  0  0  0  0  0  0  0  0  0  0
   -4.5545    1.7208    0.3804 C   0  0  0  0  0  0  0  0  0  0  0  0
   -5.7418    1.1678    0.8119 C   0  0  0  0  0  0  0  0  0  0  0  0
   -6.5740    0.5034   -0.0633 C   0  0  0  0  0  0  0  0  0  0  0  0
   -7.8631   -0.1083    0.3582 C   0  0  0  0  0  0  0  0  0  0  0  0
   -8.9487    0.1519   -0.6791 C   0  0  0  0  0  0  0  0  0  0  0  0
   -8.3137    0.6450    1.6125 C   0  0  0  0  0  0  0  0  0  0  0  0
   -6.1572    0.4254   -1.3743 C   0  0  0  0  0  0  0  0  0  0  0  0
   -4.9754    0.9726   -1.8187 C   0  0  0  0  0  0  0  0  0  0  0  0
   -1.0448    0.3613   -2.4405 N   0  0  0  0  0  0  0  0  0  0  0  0
   -0.0704   -0.5604   -2.4145 C   0  0  0  0  0  0  0  0  0  0  0  0
    0.1684   -1.3779   -3.4952 C   0  0  0  0  0  0  0  0  0  0  0  0
    1.1673   -2.3306   -3.4825 C   0  0  0  0  0  0  0  0  0  0  0  0
    1.9326   -2.4406   -2.3342 C   0  0  0  0  0  0  0  0  0  0  0  0
    1.7285   -1.6426   -1.2282 C   0  0  0  0  0  0  0  0  0  0  0  0
    0.7173   -0.7073   -1.2944 C   0  0  0  0  0  0  0  0  0  0  0  0
    5.5629   -0.6383    1.6101 C   0  0  0  0  0  0  0  0  0  0  0  0
  1  2  1  0
  2  3  1  0
  3  4  2  0
  4  5  1  0
  5  6  2  0
  6  7  1  0
  7  8  1  0
  8  9  1  0
  9 10  1  0
 10 11  2  0
 10 12  1  0
 12 13  2  0
 13 14  1  0
 14 15  1  0
 15 16  1  0
 16 17  2  0
 17 18  1  0
 18 19  2  0
 19 20  1  0
 20 21  1  0
 20 22  1  0
 19 23  1  0
 23 24  2  0
 14 25  2  0
 25 26  1  0
 26 27  2  0
 27 28  1  0
 28 29  2  0
 29 30  1  0
 30 31  2  0
  7 32  2  0
 32  3  1  0
 31 12  1  0
 24 16  1  0
 31 26  1  0
M  END
>  <zinc_id>  (1) 
ZINC000003008019

>  <smiles>  (1) 
COc1cccc(CNC(=O)c2cc(Sc3ccc(C(C)C)cc3)nc3ccccc23)c1

$$$$
