
     RDKit          3D

 31 33  0  0  0  0  0  0  0  0999 V2000
   -4.4817    2.0948   -2.4568 C   0  0  0  0  0  0  0  0  0  0  0  0
   -4.1837    0.6262   -2.2694 C   0  0  0  0  0  0  0  0  0  0  0  0
   -4.8414    0.0673   -1.0733 C   0  0  0  0  0  0  0  0  0  0  0  0
   -5.9566   -0.7100   -1.2190 C   0  0  0  0  0  0  0  0  0  0  0  0
   -6.5956   -1.2456   -0.1187 C   0  0  0  0  0  0  0  0  0  0  0  0
   -6.1135   -1.0003    1.1358 C   0  0  0  0  0  0  0  0  0  0  0  0
   -4.9890   -0.2187    1.3136 C   0  0  0  0  0  0  0  0  0  0  0  0
   -4.4829    0.0392    2.6821 C   0  0  0  0  0  0  0  0  0  0  0  0
   -3.2630   -0.8033    2.9643 C   0  0  0  0  0  0  0  0  0  0  0  0
   -4.3574    0.3131    0.1921 C   0  0  0  0  0  0  0  0  0  0  0  0
   -3.1979    1.1270    0.3105 N   0  0  0  0  0  0  0  0  0  0  0  0
   -1.8739    0.6339    0.2802 C   0  0  0  0  0  0  0  0  0  0  0  0
   -1.7055   -0.6039    0.1393 O   0  0  0  0  0  0  0  0  0  0  0  0
   -0.6605    1.4971    0.4056 C   0  0  0  0  0  0  0  0  0  0  0  0
    0.5216    0.7715    0.3473 O   0  0  0  0  0  0  0  0  0  0  0  0
    0.7972   -0.2100    1.2846 C   0  0  0  0  0  0  0  0  0  0  0  0
   -0.0655   -0.4015    2.1766 O   0  0  0  0  0  0  0  0  0  0  0  0
    2.0670   -0.9978    1.2239 C   0  0  0  0  0  0  0  0  0  0  0  0
    2.8680   -0.5117    0.0685 C   0  0  0  0  0  0  0  0  0  0  0  0
    3.2569    0.8953    0.0994 C   0  0  0  0  0  0  0  0  0  0  0  0
    3.9637    1.4651    1.1478 C   0  0  0  0  0  0  0  0  0  0  0  0
    4.2925    2.7903    1.1099 C   0  0  0  0  0  0  0  0  0  0  0  0
    3.9226    3.5683    0.0276 C   0  0  0  0  0  0  0  0  0  0  0  0
    3.2208    3.0286   -1.0260 C   0  0  0  0  0  0  0  0  0  0  0  0
    2.9035    1.6977   -0.9636 C   0  0  0  0  0  0  0  0  0  0  0  0
    3.8889   -1.4425   -0.4317 C   0  0  0  0  0  0  0  0  0  0  0  0
    3.8962   -1.7516   -1.7770 C   0  0  0  0  0  0  0  0  0  0  0  0
    4.8058   -2.6121   -2.3623 C   0  0  0  0  0  0  0  0  0  0  0  0
    5.7514   -3.1844   -1.5428 C   0  0  0  0  0  0  0  0  0  0  0  0
    5.7674   -2.8923   -0.1912 C   0  0  0  0  0  0  0  0  0  0  0  0
    4.8449   -2.0296    0.3596 C   0  0  0  0  0  0  0  0  0  0  0  0
  1  2  1  0
  2  3  1  0
  3  4  2  0
  4  5  1  0
  5  6  2  0
  6  7  1  0
  7  8  1  0
  8  9  1  0
  7 10  2  0
 10 11  1  0
 11 12  1  0
 12 13  2  0
 12 14  1  0
 14 15  1  0
 15 16  1  0
 16 17  2  0
 16 18  1  0
 18 19  1  0
 19 20  1  0
 20 21  2  0
 21 22  1  0
 22 23  2  0
 23 24  1  0
 24 25  2  0
 19 26  1  0
 26 27  2  0
 27 28  1  0
 28 29  2  0
 29 30  1  0
 30 31  2  0
 10  3  1  0
 25 20  1  0
 31 26  1  0
M  END
>  <zinc_id>  (1) 
ZINC000003216374

>  <smiles>  (1) 
CCc1cccc(CC)c1NC(=O)COC(=O)CC(c1ccccc1)c1ccccc1

$$$$
