
     RDKit          3D

 31 33  0  0  0  0  0  0  0  0999 V2000
    4.7753    2.1813   -3.2081 C   0  0  0  0  0  0  0  0  0  0  0  0
    5.5556    1.2726   -2.4553 O   0  0  0  0  0  0  0  0  0  0  0  0
    4.9754    0.2092   -1.7894 C   0  0  0  0  0  0  0  0  0  0  0  0
    5.7375   -0.6725   -1.0579 C   0  0  0  0  0  0  0  0  0  0  0  0
    5.1162   -1.7340   -0.3996 C   0  0  0  0  0  0  0  0  0  0  0  0
    3.7446   -1.8981   -0.4827 C   0  0  0  0  0  0  0  0  0  0  0  0
    3.0066   -2.9815    0.1685 C   0  0  0  0  0  0  0  0  0  0  0  0
    2.5231   -2.6864    1.5524 C   0  0  0  0  0  0  0  0  0  0  0  0
    1.6234   -1.5394    1.5997 N   0  0  0  0  0  0  0  0  0  0  0  0
    0.4175   -1.4701    0.8961 C   0  0  0  0  0  0  0  0  0  0  0  0
    0.1452   -2.5015    0.1875 O   0  0  0  0  0  0  0  0  0  0  0  0
   -0.5455   -0.3994    0.8682 C   0  0  0  0  0  0  0  0  0  0  0  0
   -0.4004    0.6821    1.5370 C   0  0  0  0  0  0  0  0  0  0  0  0
    0.6980    1.0306    2.4139 C   0  0  0  0  0  0  0  0  0  0  0  0
    1.3419    0.3345    3.3917 C   0  0  0  0  0  0  0  0  0  0  0  0
    2.3347    0.9067    4.0494 C   0  0  0  0  0  0  0  0  0  0  0  0
    2.6728    2.1863    3.7133 C   0  0  0  0  0  0  0  0  0  0  0  0
    1.5699    2.5423    2.4706 S   0  0  0  0  0  0  0  0  0  0  0  0
   -1.7478   -0.5327    0.0440 N   0  0  0  0  0  0  0  0  0  0  0  0
   -2.7185    0.4929    0.0100 C   0  0  0  0  0  0  0  0  0  0  0  0
   -2.5260    1.5191    0.7043 O   0  0  0  0  0  0  0  0  0  0  0  0
   -3.9267    0.4056   -0.7956 C   0  0  0  0  0  0  0  0  0  0  0  0
   -4.0126   -0.6329   -1.7222 C   0  0  0  0  0  0  0  0  0  0  0  0
   -5.1419   -0.7207   -2.4764 C   0  0  0  0  0  0  0  0  0  0  0  0
   -6.1743    0.1757   -2.3431 C   0  0  0  0  0  0  0  0  0  0  0  0
   -7.4129    0.0679   -3.1812 C   0  0  0  0  0  0  0  0  0  0  0  0
   -6.0864    1.2068   -1.4224 C   0  0  0  0  0  0  0  0  0  0  0  0
   -7.2040    2.2020   -1.2553 C   0  0  0  0  0  0  0  0  0  0  0  0
   -4.9596    1.3161   -0.6519 C   0  0  0  0  0  0  0  0  0  0  0  0
    2.9875   -0.9943   -1.2291 C   0  0  0  0  0  0  0  0  0  0  0  0
    3.6311    0.0319   -1.8590 C   0  0  0  0  0  0  0  0  0  0  0  0
  1  2  1  0
  2  3  1  0
  3  4  2  0
  4  5  1  0
  5  6  2  0
  6  7  1  0
  7  8  1  0
  8  9  1  0
  9 10  1  0
 10 11  2  0
 10 12  1  0
 12 13  2  0
 13 14  1  0
 14 15  2  0
 15 16  1  0
 16 17  2  0
 17 18  1  0
 12 19  1  0
 19 20  1  0
 20 21  2  0
 20 22  1  0
 22 23  2  0
 23 24  1  0
 24 25  2  0
 25 26  1  0
 25 27  1  0
 27 28  1  0
 27 29  2  0
  6 30  1  0
 30 31  2  0
 31  3  1  0
 18 14  1  0
 29 22  1  0
M  END
>  <zinc_id>  (1) 
ZINC000002152596

>  <smiles>  (1) 
COc1ccc(CCNC(=O)/C(=C\c2cccs2)NC(=O)c2ccc(C)c(C)c2)cc1

$$$$
