
     RDKit          3D

 31 34  0  0  0  0  0  0  0  0999 V2000
   -7.4067    1.3163    0.8062 C   0  0  0  0  0  0  0  0  0  0  0  0
   -6.7946    1.0106   -0.5486 C   0  0  0  0  0  0  0  0  0  0  0  0
   -5.4239    0.6785   -0.4394 O   0  0  0  0  0  0  0  0  0  0  0  0
   -4.5685    1.6211    0.1016 C   0  0  0  0  0  0  0  0  0  0  0  0
   -5.0243    2.8487    0.5247 C   0  0  0  0  0  0  0  0  0  0  0  0
   -4.1823    3.8104    1.0711 C   0  0  0  0  0  0  0  0  0  0  0  0
   -2.8415    3.5445    1.2023 C   0  0  0  0  0  0  0  0  0  0  0  0
   -2.3869    2.3126    0.7772 C   0  0  0  0  0  0  0  0  0  0  0  0
   -3.2094    1.3514    0.2345 C   0  0  0  0  0  0  0  0  0  0  0  0
   -2.6725    0.1106   -0.1793 N   0  0  0  0  0  0  0  0  0  0  0  0
   -1.2913   -0.1287   -0.0325 C   0  0  0  0  0  0  0  0  0  0  0  0
   -0.6089    0.7667    0.4561 O   0  0  0  0  0  0  0  0  0  0  0  0
   -0.6533   -1.4135   -0.4489 C   0  0  0  0  0  0  0  0  0  0  0  0
    0.6899   -1.5487   -0.4309 C   0  0  0  0  0  0  0  0  0  0  0  0
    1.8451   -0.7771   -0.4451 N   0  0  0  0  0  0  0  0  0  0  0  0
    2.1341    0.4863   -0.8037 C   0  0  0  0  0  0  0  0  0  0  0  0
    1.2916    1.2747   -1.2825 O   0  0  0  0  0  0  0  0  0  0  0  0
    3.5197    1.1023   -0.6680 C   0  0  0  0  0  0  0  0  0  0  0  0
    4.3506    0.0958   -0.1176 O   0  0  0  0  0  0  0  0  0  0  0  0
    5.6854    0.3080    0.1430 C   0  0  0  0  0  0  0  0  0  0  0  0
    6.3029    1.5068   -0.1116 C   0  0  0  0  0  0  0  0  0  0  0  0
    7.6402    1.7270    0.1470 C   0  0  0  0  0  0  0  0  0  0  0  0
    8.4013    0.7203    0.6800 C   0  0  0  0  0  0  0  0  0  0  0  0
    7.8023   -0.4904    0.9433 C   0  0  0  0  0  0  0  0  0  0  0  0
    6.4428   -0.7030    0.6766 C   0  0  0  0  0  0  0  0  0  0  0  0
    0.8557   -3.2896   -0.7121 S   0  0  0  0  0  0  0  0  0  0  0  0
   -0.7658   -3.7089   -0.8398 C   0  0  0  0  0  0  0  0  0  0  0  0
   -1.4195   -2.5348   -0.6660 C   0  0  0  0  0  0  0  0  0  0  0  0
   -2.9212   -2.8301   -0.7794 C   0  0  0  0  0  0  0  0  0  0  0  0
   -3.0620   -4.3046   -0.6178 C   0  0  0  0  0  0  0  0  0  0  0  0
   -1.7289   -4.8634   -1.0645 C   0  0  0  0  0  0  0  0  0  0  0  0
  1  2  1  0
  2  3  1  0
  3  4  1  0
  4  5  2  0
  5  6  1  0
  6  7  2  0
  7  8  1  0
  8  9  2  0
  9 10  1  0
 10 11  1  0
 11 12  2  0
 11 13  1  0
 13 14  2  0
 14 15  1  0
 15 16  1  0
 16 17  2  0
 16 18  1  0
 18 19  1  0
 19 20  1  0
 20 21  2  0
 21 22  1  0
 22 23  2  0
 23 24  1  0
 24 25  2  0
 14 26  1  0
 26 27  1  0
 27 28  2  0
 28 29  1  0
 29 30  1  0
 30 31  1  0
  9  4  1  0
 28 13  1  0
 25 20  1  0
 31 27  1  0
M  END
>  <zinc_id>  (1) 
ZINC000001213119

>  <smiles>  (1) 
CCOc1ccccc1NC(=O)c1c(NC(=O)COc2ccccc2)sc2c1CCC2

$$$$
