
     RDKit          3D

 33 37  0  0  0  0  0  0  0  0999 V2000
    0.8059    0.6216   -0.2272 O   0  0  0  0  0  0  0  0  0  0  0  0
    1.6412    1.5358   -0.0760 C   0  0  0  0  0  0  0  0  0  0  0  0
    1.1814    2.7994    0.2229 N   0  0  0  0  0  0  0  0  0  0  0  0
   -0.0362    3.4289    0.4272 C   0  0  0  0  0  0  0  0  0  0  0  0
   -0.9706    3.3975   -0.6927 C   0  0  0  0  0  0  0  0  0  0  0  0
   -1.4183    2.0267   -1.0243 C   0  0  0  0  0  0  0  0  0  0  0  0
   -2.1893    1.3749    0.1455 C   0  0  0  0  0  0  0  0  0  0  0  0
   -2.5505    0.0837   -0.3174 N   0  0  0  0  0  0  0  0  0  0  0  0
   -3.5243    0.1876   -1.3575 C   0  0  0  0  0  0  0  0  0  0  0  0
   -4.8352    0.4955   -0.6773 C   0  0  0  0  0  0  0  0  0  0  0  0
   -5.0512   -0.5111    0.3303 N   0  0  0  0  0  0  0  0  0  0  0  0
   -6.1862   -1.3124    0.2189 C   0  0  0  0  0  0  0  0  0  0  0  0
   -7.0105   -1.2163   -0.9189 C   0  0  0  0  0  0  0  0  0  0  0  0
   -8.1350   -1.9659   -1.0695 C   0  0  0  0  0  0  0  0  0  0  0  0
   -8.4933   -2.8531   -0.0857 C   0  0  0  0  0  0  0  0  0  0  0  0
   -7.7252   -2.9831    1.0382 C   0  0  0  0  0  0  0  0  0  0  0  0
   -6.6046   -2.2175    1.1580 C   0  0  0  0  0  0  0  0  0  0  0  0
   -5.7285   -2.3414    2.3648 C   0  0  0  0  0  0  0  0  0  0  0  0
   -4.3159   -2.2583    1.7817 C   0  0  0  0  0  0  0  0  0  0  0  0
   -4.0811   -0.6583    1.4939 C   0  0  1  0  0  0  0  0  0  0  0  0
   -2.7286   -0.9572    0.5949 C   0  0  0  0  0  0  0  0  0  0  0  0
    3.0516    1.1574   -0.2353 C   0  0  0  0  0  0  0  0  0  0  0  0
    3.4542   -0.1419   -0.4288 C   0  0  0  0  0  0  0  0  0  0  0  0
    4.7817   -0.4963   -0.5762 C   0  0  0  0  0  0  0  0  0  0  0  0
    5.7991    0.4318   -0.5395 C   0  0  0  0  0  0  0  0  0  0  0  0
    7.2058    0.0685   -0.6912 C   0  0  0  0  0  0  0  0  0  0  0  0
    7.7365   -1.1280   -0.2669 C   0  0  0  0  0  0  0  0  0  0  0  0
    9.0664   -1.4588   -0.4184 C   0  0  0  0  0  0  0  0  0  0  0  0
    9.9119   -0.5533   -1.0227 C   0  0  0  0  0  0  0  0  0  0  0  0
    9.4172    0.6756   -1.4698 C   0  0  0  0  0  0  0  0  0  0  0  0
    8.0775    0.9480   -1.2896 C   0  0  0  0  0  0  0  0  0  0  0  0
    5.3891    1.7328   -0.3457 C   0  0  0  0  0  0  0  0  0  0  0  0
    4.0648    2.0872   -0.1983 C   0  0  0  0  0  0  0  0  0  0  0  0
  1  2  2  0
  2  3  1  0
  3  4  1  0
  4  5  1  0
  5  6  1  0
  6  7  1  0
  7  8  1  0
  8  9  1  0
  9 10  1  0
 10 11  1  0
 11 12  1  0
 12 13  2  0
 13 14  1  0
 14 15  2  0
 15 16  1  0
 16 17  2  0
 17 18  1  0
 18 19  1  0
 20 19  1  1
 20 21  1  0
  2 22  1  0
 22 23  2  0
 23 24  1  0
 24 25  2  0
 25 26  1  0
 26 27  2  0
 27 28  1  0
 28 29  2  0
 29 30  1  0
 30 31  2  0
 25 32  1  0
 32 33  2  0
 21  8  1  0
 33 22  1  0
 20 11  1  0
 31 26  1  0
 17 12  1  0
M  END
>  <zinc_id>  (1) 
ZINC000001554009

>  <smiles>  (1) 
O=C(NCCCCN1CCN2c3ccccc3CC[C@H]2C1)c1ccc(-c2ccccc2)cc1

$$$$
