
     RDKit          3D

 28 30  0  0  0  0  0  0  0  0999 V2000
    8.8681   -0.8780   -3.0805 C   0  0  0  0  0  0  0  0  0  0  0  0
    9.0588    0.0552   -1.8927 C   0  0  0  0  0  0  0  0  0  0  0  0
    7.8703   -0.0589   -1.1020 O   0  0  0  0  0  0  0  0  0  0  0  0
    6.6211    0.2541   -1.6112 C   0  0  0  0  0  0  0  0  0  0  0  0
    6.5350    0.6433   -2.7843 O   0  0  0  0  0  0  0  0  0  0  0  0
    5.4655    0.1052   -0.7251 C   0  0  0  0  0  0  0  0  0  0  0  0
    5.5990   -0.3308    0.5755 C   0  0  0  0  0  0  0  0  0  0  0  0
    4.5319   -0.4803    1.4311 C   0  0  0  0  0  0  0  0  0  0  0  0
    3.2602   -0.1894    0.9986 C   0  0  0  0  0  0  0  0  0  0  0  0
    2.1109   -0.3377    1.8808 C   0  0  0  0  0  0  0  0  0  0  0  0
    0.9092    0.0366    1.1640 N   0  0  0  0  0  0  0  0  0  0  0  0
   -0.2107   -0.1307    2.0942 C   0  0  0  0  0  0  0  0  0  0  0  0
   -1.4445    0.2548    1.3546 C   0  0  0  0  0  0  0  0  0  0  0  0
   -1.8385    1.5750    1.4089 C   0  0  0  0  0  0  0  0  0  0  0  0
   -2.9797    2.0007    0.7414 C   0  0  0  0  0  0  0  0  0  0  0  0
   -3.6819    1.0576    0.0383 C   0  0  0  0  0  0  0  0  0  0  0  0
   -3.3509   -0.2565   -0.0572 C   0  0  0  0  0  0  0  0  0  0  0  0
   -4.0414   -1.2235   -0.7582 O   0  0  0  0  0  0  0  0  0  0  0  0
   -5.2091   -0.8843   -1.4614 C   0  0  0  0  0  0  0  0  0  0  0  0
   -6.2087   -0.3576   -0.5077 C   0  0  0  0  0  0  0  0  0  0  0  0
   -6.9084   -1.2548    0.2712 C   0  0  0  0  0  0  0  0  0  0  0  0
   -7.8667   -0.8920    1.1875 C   0  0  0  0  0  0  0  0  0  0  0  0
   -8.1685    0.4390    1.3612 C   0  0  0  0  0  0  0  0  0  0  0  0
   -7.4860    1.3597    0.5972 C   0  0  0  0  0  0  0  0  0  0  0  0
   -6.5134    0.9731   -0.3311 C   0  0  0  0  0  0  0  0  0  0  0  0
   -2.1919   -0.6424    0.6320 C   0  0  0  0  0  0  0  0  0  0  0  0
    3.0963    0.2471   -0.2922 C   0  0  0  0  0  0  0  0  0  0  0  0
    4.1739    0.3905   -1.1328 C   0  0  0  0  0  0  0  0  0  0  0  0
  1  2  1  0
  2  3  1  0
  3  4  1  0
  4  5  2  0
  4  6  1  0
  6  7  2  0
  7  8  1  0
  8  9  2  0
  9 10  1  0
 10 11  1  0
 11 12  1  0
 12 13  1  0
 13 14  2  0
 14 15  1  0
 15 16  2  0
 16 17  1  0
 17 18  1  0
 18 19  1  0
 19 20  1  0
 20 21  2  0
 21 22  1  0
 22 23  2  0
 23 24  1  0
 24 25  2  0
 17 26  2  0
  9 27  1  0
 27 28  2  0
 28  6  1  0
 26 13  1  0
 25 20  1  0
M  END
>  <zinc_id>  (1) 
ZINC000003026191

>  <smiles>  (1) 
CCOC(=O)c1ccc(CNCc2cccc(OCc3ccccc3)c2)cc1

$$$$
