
     RDKit          3D

 33 36  0  0  0  0  0  0  0  0999 V2000
    5.6422   -2.4598    0.5727 C   0  0  0  0  0  0  0  0  0  0  0  0
    5.7916   -2.5706   -0.9257 C   0  0  0  0  0  0  0  0  0  0  0  0
    5.6432   -1.2928   -1.4872 O   0  0  0  0  0  0  0  0  0  0  0  0
    4.4713   -0.5886   -1.3167 C   0  0  0  0  0  0  0  0  0  0  0  0
    3.4211   -1.1211   -0.5951 C   0  0  0  0  0  0  0  0  0  0  0  0
    2.2386   -0.4369   -0.4075 C   0  0  0  0  0  0  0  0  0  0  0  0
    2.0946    0.8032   -0.9481 C   0  0  0  0  0  0  0  0  0  0  0  0
    0.9084    1.5449   -0.8022 N   0  0  0  0  0  0  0  0  0  0  0  0
   -0.2927    1.0955   -0.2019 C   0  0  0  0  0  0  0  0  0  0  0  0
   -1.1327    1.8101    0.5241 C   0  0  0  0  0  0  0  0  0  0  0  0
   -1.0894    3.5179    1.0040 S   0  0  0  0  0  0  0  0  0  0  0  0
    0.4349    4.3407    0.7882 C   0  0  0  0  0  0  0  0  0  0  0  0
    1.6281    3.8358    0.3677 C   0  0  0  0  0  0  0  0  0  0  0  0
    2.7759    4.5677    0.2313 C   0  0  0  0  0  0  0  0  0  0  0  0
    2.7904    5.9364    0.5279 C   0  0  0  0  0  0  0  0  0  0  0  0
    1.5955    6.4581    0.9523 C   0  0  0  0  0  0  0  0  0  0  0  0
    0.4531    5.7218    1.0869 C   0  0  0  0  0  0  0  0  0  0  0  0
   -2.2413    0.8856    0.8904 C   0  0  0  0  0  0  0  0  0  0  0  0
   -3.2301    1.2221    1.5838 O   0  0  0  0  0  0  0  0  0  0  0  0
   -2.0087   -0.3859    0.3522 N   0  0  0  0  0  0  0  0  0  0  0  0
   -2.7978   -1.5698    0.4592 C   0  0  0  0  0  0  0  0  0  0  0  0
   -3.1518   -2.0765    1.6815 C   0  0  0  0  0  0  0  0  0  0  0  0
   -3.9182   -3.2416    1.8254 C   0  0  0  0  0  0  0  0  0  0  0  0
   -4.3419   -3.9170    0.7001 C   0  0  0  0  0  0  0  0  0  0  0  0
   -5.1120   -5.0920    0.8159 O   0  0  0  0  0  0  0  0  0  0  0  0
   -5.4955   -5.7054   -0.4189 C   0  0  0  0  0  0  0  0  0  0  0  0
   -4.2585   -6.0867   -1.2189 C   0  0  0  0  0  0  0  0  0  0  0  0
   -3.9872   -3.4075   -0.5337 C   0  0  0  0  0  0  0  0  0  0  0  0
   -3.2338   -2.2627   -0.6573 C   0  0  0  0  0  0  0  0  0  0  0  0
   -0.7774   -0.2968   -0.3526 C   0  0  0  0  0  0  0  0  0  0  0  0
   -0.2681   -1.2605   -0.9600 O   0  0  0  0  0  0  0  0  0  0  0  0
    3.1300    1.3492   -1.6694 C   0  0  0  0  0  0  0  0  0  0  0  0
    4.3181    0.6830   -1.8683 C   0  0  0  0  0  0  0  0  0  0  0  0
  1  2  1  0
  2  3  1  0
  3  4  1  0
  4  5  2  0
  5  6  1  0
  6  7  2  0
  7  8  1  0
  8  9  1  0
  9 10  2  0
 10 11  1  0
 11 12  1  0
 12 13  2  0
 13 14  1  0
 14 15  2  0
 15 16  1  0
 16 17  2  0
 10 18  1  0
 18 19  2  0
 18 20  1  0
 20 21  1  0
 21 22  2  0
 22 23  1  0
 23 24  2  0
 24 25  1  0
 25 26  1  0
 26 27  1  0
 24 28  1  0
 28 29  2  0
 20 30  1  0
 30 31  2  0
  7 32  1  0
 32 33  2  0
 33  4  1  0
 30  9  1  0
 17 12  1  0
 29 21  1  0
M  END
>  <zinc_id>  (1) 
ZINC000001928675

>  <smiles>  (1) 
CCOc1ccc(NC2=C(Sc3ccccc3)C(=O)N(c3ccc(OCC)cc3)C2=O)cc1

$$$$
