
     RDKit          3D

 32 35  0  0  0  0  0  0  0  0999 V2000
    3.5457    6.5977    0.2997 C   0  0  0  0  0  0  0  0  0  0  0  0
    2.2828    6.6005   -0.5319 C   0  0  0  0  0  0  0  0  0  0  0  0
    1.5396    5.3062   -0.4985 C   0  0  0  0  0  0  0  0  0  0  0  0
    1.0895    4.8825    0.8649 C   0  0  0  0  0  0  0  0  0  0  0  0
    0.3844    3.6222    0.7529 N   0  0  0  0  0  0  0  0  0  0  0  0
    0.9661    2.4438    0.2462 C   0  0  0  0  0  0  0  0  0  0  0  0
    2.1458    2.4406   -0.1368 O   0  0  0  0  0  0  0  0  0  0  0  0
    0.2263    1.1545    0.1378 C   0  0  0  0  0  0  0  0  0  0  0  0
   -1.0088    1.0575    0.5114 C   0  0  0  0  0  0  0  0  0  0  0  0
   -1.7958   -0.1246    0.4497 C   0  0  0  0  0  0  0  0  0  0  0  0
   -1.5162   -1.3334    1.0395 C   0  0  0  0  0  0  0  0  0  0  0  0
   -0.4123   -1.4924    1.8428 C   0  0  0  0  0  0  0  0  0  0  0  0
   -0.1068   -2.6769    2.4655 C   0  0  0  0  0  0  0  0  0  0  0  0
   -0.9199   -3.7850    2.3044 C   0  0  0  0  0  0  0  0  0  0  0  0
   -2.0345   -3.6250    1.4935 C   0  0  0  0  0  0  0  0  0  0  0  0
   -2.3454   -2.4377    0.8664 C   0  0  0  0  0  0  0  0  0  0  0  0
   -3.4787   -2.3062    0.0794 C   0  0  0  0  0  0  0  0  0  0  0  0
   -3.8006   -1.1132   -0.5309 C   0  0  0  0  0  0  0  0  0  0  0  0
   -4.9432   -1.0011   -1.3172 C   0  0  0  0  0  0  0  0  0  0  0  0
   -5.2659    0.1943   -1.9297 C   0  0  0  0  0  0  0  0  0  0  0  0
   -4.4411    1.2611   -1.7470 C   0  0  0  0  0  0  0  0  0  0  0  0
   -3.2929    1.1559   -0.9592 C   0  0  0  0  0  0  0  0  0  0  0  0
   -2.9590   -0.0426   -0.3386 C   0  0  0  0  0  0  0  0  0  0  0  0
    0.8858    0.0279   -0.4013 N   0  0  0  0  0  0  0  0  0  0  0  0
    2.1056   -0.4431    0.1058 C   0  0  0  0  0  0  0  0  0  0  0  0
    2.6390    0.1502    1.0710 O   0  0  0  0  0  0  0  0  0  0  0  0
    2.7924   -1.6240   -0.4601 C   0  0  0  0  0  0  0  0  0  0  0  0
    2.1797   -2.3741   -1.4354 C   0  0  0  0  0  0  0  0  0  0  0  0
    2.7850   -3.4818   -1.9938 C   0  0  0  0  0  0  0  0  0  0  0  0
    4.0396   -3.8770   -1.5865 C   0  0  0  0  0  0  0  0  0  0  0  0
    4.6663   -3.1372   -0.6113 C   0  0  0  0  0  0  0  0  0  0  0  0
    4.0475   -2.0196   -0.0529 C   0  0  0  0  0  0  0  0  0  0  0  0
  1  2  1  0
  2  3  1  0
  3  4  1  0
  4  5  1  0
  5  6  1  0
  6  7  2  0
  6  8  1  0
  8  9  2  0
  9 10  1  0
 10 11  1  0
 11 12  2  0
 12 13  1  0
 13 14  2  0
 14 15  1  0
 15 16  2  0
 16 17  1  0
 17 18  2  0
 18 19  1  0
 19 20  2  0
 20 21  1  0
 21 22  2  0
 22 23  1  0
  8 24  1  0
 24 25  1  0
 25 26  2  0
 25 27  1  0
 27 28  2  0
 28 29  1  0
 29 30  2  0
 30 31  1  0
 31 32  2  0
 23 10  2  0
 32 27  1  0
 16 11  1  0
 23 18  1  0
M  END
>  <zinc_id>  (1) 
ZINC000003009860

>  <smiles>  (1) 
CCCCNC(=O)/C(=C/c1c2ccccc2cc2ccccc12)NC(=O)c1ccccc1

$$$$
