
     RDKit          3D

 29 31  0  0  0  0  0  0  0  0999 V2000
   -7.3654   -0.7671   -2.7660 C   0  0  0  0  0  0  0  0  0  0  0  0
   -6.3155   -0.5159   -1.7288 C   0  0  0  0  0  0  0  0  0  0  0  0
   -5.9855    0.7620   -1.3267 C   0  0  0  0  0  0  0  0  0  0  0  0
   -5.0064    0.9398   -0.3633 C   0  0  0  0  0  0  0  0  0  0  0  0
   -4.6476    2.3211    0.0729 C   0  0  0  0  0  0  0  0  0  0  0  0
   -4.3369   -0.1153    0.2205 C   0  0  0  0  0  0  0  0  0  0  0  0
   -3.3162    0.1240    1.2265 C   0  0  0  0  0  0  0  0  0  0  0  0
   -3.6598    0.1722    2.4257 O   0  0  0  0  0  0  0  0  0  0  0  0
   -1.8963    0.3089    0.8538 C   0  0  0  0  0  0  0  0  0  0  0  0
   -1.7915    0.1963   -0.5484 O   0  0  0  0  0  0  0  0  0  0  0  0
   -0.5256    0.3389   -1.1361 C   0  0  0  0  0  0  0  0  0  0  0  0
   -0.3801    0.2341   -2.5083 C   0  0  0  0  0  0  0  0  0  0  0  0
    0.8844    0.3817   -3.0381 C   0  0  0  0  0  0  0  0  0  0  0  0
    1.9958    0.6288   -2.2416 C   0  0  0  0  0  0  0  0  0  0  0  0
    1.8433    0.7330   -0.8656 C   0  0  0  0  0  0  0  0  0  0  0  0
    3.0201    0.9948   -0.0490 C   0  0  0  0  0  0  0  0  0  0  0  0
    2.8837    1.0714    1.1982 O   0  0  0  0  0  0  0  0  0  0  0  0
    4.3133    1.1680   -0.5930 N   0  0  0  0  0  0  0  0  0  0  0  0
    5.4537    1.4260    0.2321 C   0  0  0  0  0  0  0  0  0  0  0  0
    5.9459    0.2231    0.9377 C   0  0  0  0  0  0  0  0  0  0  0  0
    5.3515   -1.0177    0.7117 C   0  0  0  0  0  0  0  0  0  0  0  0
    5.8508   -2.1114    1.4008 C   0  0  0  0  0  0  0  0  0  0  0  0
    6.8973   -2.0350    2.2917 C   0  0  0  0  0  0  0  0  0  0  0  0
    7.4742   -0.7973    2.5034 C   0  0  0  0  0  0  0  0  0  0  0  0
    6.9925    0.2898    1.8310 C   0  0  0  0  0  0  0  0  0  0  0  0
    0.5882    0.5843   -0.3601 C   0  0  0  0  0  0  0  0  0  0  0  0
   -4.6598   -1.4027   -0.1754 C   0  0  0  0  0  0  0  0  0  0  0  0
   -3.9634   -2.5712    0.4283 C   0  0  0  0  0  0  0  0  0  0  0  0
   -5.6449   -1.5648   -1.1434 C   0  0  0  0  0  0  0  0  0  0  0  0
  1  2  1  0
  2  3  2  0
  3  4  1  0
  4  5  1  0
  4  6  2  0
  6  7  1  0
  7  8  2  0
  7  9  1  0
  9 10  1  0
 10 11  1  0
 11 12  2  0
 12 13  1  0
 13 14  2  0
 14 15  1  0
 15 16  1  0
 16 17  2  0
 16 18  1  0
 18 19  1  0
 19 20  1  0
 20 21  2  0
 21 22  1  0
 22 23  2  0
 23 24  1  0
 24 25  2  0
 15 26  2  0
  6 27  1  0
 27 28  1  0
 27 29  2  0
 29  2  1  0
 26 11  1  0
 25 20  1  0
M  END
>  <zinc_id>  (1) 
ZINC000002623427

>  <smiles>  (1) 
Cc1cc(C)c(C(=O)COc2cccc(C(=O)NCc3ccccc3)c2)c(C)c1

$$$$
