
     RDKit          3D

 31 34  0  0  0  0  0  0  0  0999 V2000
   -8.1803    1.3676    0.8959 C   0  0  0  0  0  0  0  0  0  0  0  0
   -6.9397    2.0071    0.9746 O   0  0  0  0  0  0  0  0  0  0  0  0
   -5.7630    1.3155    0.7846 C   0  0  0  0  0  0  0  0  0  0  0  0
   -5.8200   -0.0344    0.5118 C   0  0  0  0  0  0  0  0  0  0  0  0
   -4.6227   -0.7312    0.3198 C   0  0  0  0  0  0  0  0  0  0  0  0
   -3.4280   -0.0885    0.4010 C   0  0  0  0  0  0  0  0  0  0  0  0
   -2.1786   -0.8335    0.1971 C   0  0  0  0  0  0  0  0  0  0  0  0
   -0.9450   -0.2229    0.2701 C   0  0  0  0  0  0  0  0  0  0  0  0
    0.2274   -0.9085    0.0814 C   0  0  0  0  0  0  0  0  0  0  0  0
    1.5387   -0.2550    0.1599 C   0  0  0  0  0  0  0  0  0  0  0  0
    1.5779    0.9768    0.4096 O   0  0  0  0  0  0  0  0  0  0  0  0
    2.7333   -0.9887   -0.0396 N   0  0  0  0  0  0  0  0  0  0  0  0
    4.0487   -0.3713    0.0314 C   0  0  0  0  0  0  0  0  0  0  0  0
    4.1885    0.7287   -1.0019 C   0  0  0  0  0  0  0  0  0  0  0  0
    5.5536    1.2933   -0.8517 C   0  0  0  0  0  0  0  0  0  0  0  0
    6.6444    0.8012   -1.5469 C   0  0  0  0  0  0  0  0  0  0  0  0
    7.8618    1.4080   -1.3236 C   0  0  0  0  0  0  0  0  0  0  0  0
    8.0133    2.4634   -0.4489 C   0  0  0  0  0  0  0  0  0  0  0  0
    6.9290    2.9423    0.2333 C   0  0  0  0  0  0  0  0  0  0  0  0
    5.7133    2.3422    0.0155 C   0  0  0  0  0  0  0  0  0  0  0  0
    0.1782   -2.2589   -0.1919 C   0  0  0  0  0  0  0  0  0  0  0  0
    1.3480   -2.9877   -0.3893 C   0  0  0  0  0  0  0  0  0  0  0  0
    1.2897   -4.3326   -0.6610 C   0  0  0  0  0  0  0  0  0  0  0  0
    0.0529   -4.9293   -0.7311 C   0  0  0  0  0  0  0  0  0  0  0  0
   -1.1225   -4.2345   -0.5404 C   0  0  0  0  0  0  0  0  0  0  0  0
   -1.0560   -2.8624   -0.2634 C   0  0  0  0  0  0  0  0  0  0  0  0
   -2.1724   -2.1461   -0.0708 N   0  0  0  0  0  0  0  0  0  0  0  0
   -3.4106    1.2482    0.6728 C   0  0  0  0  0  0  0  0  0  0  0  0
   -4.5682    1.9797    0.8701 C   0  0  0  0  0  0  0  0  0  0  0  0
   -4.4729    3.3327    1.1420 O   0  0  0  0  0  0  0  0  0  0  0  0
   -3.2191    3.9787    1.2214 C   0  0  0  0  0  0  0  0  0  0  0  0
  1  2  1  0
  2  3  1  0
  3  4  2  0
  4  5  1  0
  5  6  2  0
  6  7  1  0
  7  8  2  0
  8  9  1  0
  9 10  1  0
 10 11  2  0
 10 12  1  0
 12 13  1  0
 13 14  1  0
 14 15  1  0
 15 16  2  0
 16 17  1  0
 17 18  2  0
 18 19  1  0
 19 20  2  0
  9 21  2  0
 21 22  1  0
 22 23  2  0
 23 24  1  0
 24 25  2  0
 25 26  1  0
 26 27  2  0
  6 28  1  0
 28 29  2  0
 29 30  1  0
 30 31  1  0
 29  3  1  0
 27  7  1  0
 20 15  1  0
 26 21  1  0
M  END
>  <zinc_id>  (1) 
ZINC000000997310

>  <smiles>  (1) 
COc1ccc(-c2cc(C(=O)NCCc3ccccc3)c3ccccc3n2)cc1OC

$$$$
