
     RDKit          3D

 31 33  0  0  0  0  0  0  0  0999 V2000
   -0.7710   -0.5259    2.4552 C   0  0  0  0  0  0  0  0  0  0  0  0
   -1.9928    0.2803    2.5483 C   0  0  0  0  0  0  0  0  0  0  0  0
   -2.3602    1.1107    1.5550 O   0  0  0  0  0  0  0  0  0  0  0  0
   -2.6148    0.6555    0.3126 C   0  0  0  0  0  0  0  0  0  0  0  0
   -1.4665    0.1101   -0.4032 C   0  0  0  0  0  0  0  0  0  0  0  0
   -1.7123   -0.4182   -1.5419 O   0  0  0  0  0  0  0  0  0  0  0  0
   -0.1477    0.1015    0.0043 O   0  0  0  0  0  0  0  0  0  0  0  0
    0.8244   -0.4678   -0.8245 C   0  0  0  0  0  0  0  0  0  0  0  0
    2.1779   -0.3867   -0.2115 C   0  0  0  0  0  0  0  0  0  0  0  0
    2.2750    0.1583    0.9164 O   0  0  0  0  0  0  0  0  0  0  0  0
    3.3394   -0.8839   -0.8245 N   0  0  0  0  0  0  0  0  0  0  0  0
    4.6338   -0.8070   -0.2374 C   0  0  0  0  0  0  0  0  0  0  0  0
    4.8882   -0.2346    0.9907 C   0  0  0  0  0  0  0  0  0  0  0  0
    6.1774   -0.1894    1.5175 C   0  0  0  0  0  0  0  0  0  0  0  0
    7.2520   -0.7154    0.8324 C   0  0  0  0  0  0  0  0  0  0  0  0
    8.6381   -0.6702    1.3942 C   0  0  0  0  0  0  0  0  0  0  0  0
    6.9971   -1.2879   -0.3961 C   0  0  0  0  0  0  0  0  0  0  0  0
    8.1613   -1.8544   -1.1315 C   0  0  0  0  0  0  0  0  0  0  0  0
    5.7090   -1.3334   -0.9234 C   0  0  0  0  0  0  0  0  0  0  0  0
   -3.6563   -0.4546    0.3358 C   0  0  0  0  0  0  0  0  0  0  0  0
   -3.9553   -1.1397   -0.8223 C   0  0  0  0  0  0  0  0  0  0  0  0
   -4.8908   -2.1500   -0.8467 C   0  0  0  0  0  0  0  0  0  0  0  0
   -5.5499   -2.4870    0.3260 C   0  0  0  0  0  0  0  0  0  0  0  0
   -5.2576   -1.8014    1.5085 C   0  0  0  0  0  0  0  0  0  0  0  0
   -4.3146   -0.7984    1.4840 C   0  0  0  0  0  0  0  0  0  0  0  0
   -3.2042    1.7369   -0.5667 C   0  0  0  0  0  0  0  0  0  0  0  0
   -3.4205    1.4546   -1.8798 C   0  0  0  0  0  0  0  0  0  0  0  0
   -3.9635    2.4353   -2.7072 C   0  0  0  0  0  0  0  0  0  0  0  0
   -4.2576    3.6574   -2.1453 C   0  0  0  0  0  0  0  0  0  0  0  0
   -4.0415    3.9511   -0.8162 C   0  0  0  0  0  0  0  0  0  0  0  0
   -3.4964    2.9544   -0.0032 C   0  0  0  0  0  0  0  0  0  0  0  0
  1  2  1  0
  2  3  1  0
  3  4  1  0
  4  5  1  0
  5  6  2  0
  5  7  1  0
  7  8  1  0
  8  9  1  0
  9 10  2  0
  9 11  1  0
 11 12  1  0
 12 13  2  0
 13 14  1  0
 14 15  2  0
 15 16  1  0
 15 17  1  0
 17 18  1  0
 17 19  2  0
  4 20  1  0
 20 21  2  0
 21 22  1  0
 22 23  2  0
 23 24  1  0
 24 25  2  0
  4 26  1  0
 26 27  2  0
 27 28  1  0
 28 29  2  0
 29 30  1  0
 30 31  2  0
 19 12  1  0
 25 20  1  0
 31 26  1  0
M  END
>  <zinc_id>  (1) 
ZINC000003399073

>  <smiles>  (1) 
CCOC(C(=O)OCC(=O)Nc1ccc(C)c(C)c1)(c1ccccc1)c1ccccc1

$$$$
