
     RDKit          3D

 29 31  0  0  0  0  0  0  0  0999 V2000
   -3.8078    3.0346    1.9082 C   0  0  0  0  0  0  0  0  0  0  0  0
   -2.7335    2.3531    1.0908 C   0  0  0  0  0  0  0  0  0  0  0  0
   -1.7771    3.3972    0.5306 C   0  0  0  0  0  0  0  0  0  0  0  0
   -3.3458    1.5965   -0.0863 C   0  0  0  0  0  0  0  0  0  0  0  0
   -2.0456    1.4413    1.9226 O   0  0  0  0  0  0  0  0  0  0  0  0
   -0.9934    0.6782    1.4006 C   0  0  0  0  0  0  0  0  0  0  0  0
   -0.7373    0.8697    0.2029 O   0  0  0  0  0  0  0  0  0  0  0  0
   -0.2772   -0.2355    2.1622 N   0  0  0  0  0  0  0  0  0  0  0  0
    0.8508   -1.0645    1.6604 C   0  0  1  0  0  0  0  0  0  0  0  0
    0.2679   -2.2953    0.9169 C   0  0  0  0  0  0  0  0  0  0  0  0
   -0.5990   -2.1484   -0.1863 C   0  0  0  0  0  0  0  0  0  0  0  0
   -0.3858   -2.0742   -1.5712 C   0  0  0  0  0  0  0  0  0  0  0  0
   -1.5555   -1.9043   -2.1965 N   0  0  0  0  0  0  0  0  0  0  0  0
   -2.5656   -1.8585   -1.3118 C   0  0  0  0  0  0  0  0  0  0  0  0
   -3.9425   -1.7112   -1.4836 C   0  0  0  0  0  0  0  0  0  0  0  0
   -4.7433   -1.7184   -0.3641 C   0  0  0  0  0  0  0  0  0  0  0  0
   -4.1846   -1.8683    0.8891 C   0  0  0  0  0  0  0  0  0  0  0  0
   -2.8423   -2.0078    1.0112 C   0  0  0  0  0  0  0  0  0  0  0  0
   -1.9930   -2.0060   -0.0889 C   0  0  0  0  0  0  0  0  0  0  0  0
    1.5052   -0.2268    0.5561 C   0  0  0  0  0  0  0  0  0  0  0  0
    1.6215    0.9732    0.7916 O   0  0  0  0  0  0  0  0  0  0  0  0
    1.9378   -0.7572   -0.6178 O   0  0  0  0  0  0  0  0  0  0  0  0
    2.5416    0.0061   -1.6371 C   0  0  0  0  0  0  0  0  0  0  0  0
    3.7870    0.6755   -1.1635 C   0  0  0  0  0  0  0  0  0  0  0  0
    3.7754    1.9510   -0.6407 C   0  0  0  0  0  0  0  0  0  0  0  0
    4.9543    2.5324   -0.2129 C   0  0  0  0  0  0  0  0  0  0  0  0
    6.1548    1.8330   -0.3086 C   0  0  0  0  0  0  0  0  0  0  0  0
    6.1619    0.5565   -0.8326 C   0  0  0  0  0  0  0  0  0  0  0  0
    4.9710   -0.0217   -1.2609 C   0  0  0  0  0  0  0  0  0  0  0  0
  1  2  1  0
  2  3  1  0
  2  4  1  0
  2  5  1  0
  5  6  1  0
  6  7  2  0
  6  8  1  0
  8  9  1  0
  9 10  1  6
 10 11  1  0
 11 12  2  0
 12 13  1  0
 13 14  1  0
 14 15  2  0
 15 16  1  0
 16 17  2  0
 17 18  1  0
 18 19  2  0
  9 20  1  0
 20 21  2  0
 20 22  1  0
 22 23  1  0
 23 24  1  0
 24 25  2  0
 25 26  1  0
 26 27  2  0
 27 28  1  0
 28 29  2  0
 19 11  1  0
 29 24  1  0
 19 14  1  0
M  END
>  <zinc_id>  (1) 
ZINC000002556565

>  <smiles>  (1) 
CC(C)(C)OC(=O)N[C@@H](Cc1c[nH]c2ccccc12)C(=O)OCc1ccccc1

$$$$
