
     RDKit          3D

 30 33  0  0  0  0  0  0  0  0999 V2000
    4.4115    5.1521   -1.2668 C   0  0  0  0  0  0  0  0  0  0  0  0
    4.9806    4.0262   -0.6454 O   0  0  0  0  0  0  0  0  0  0  0  0
    4.2645    2.8653   -0.4120 C   0  0  0  0  0  0  0  0  0  0  0  0
    2.9385    2.6980   -0.7608 C   0  0  0  0  0  0  0  0  0  0  0  0
    2.2475    1.5364   -0.5193 C   0  0  0  0  0  0  0  0  0  0  0  0
    2.8771    0.4775    0.0947 C   0  0  0  0  0  0  0  0  0  0  0  0
    2.1686   -0.7533    0.3598 N   0  0  0  0  0  0  0  0  0  0  0  0
    0.7953   -0.8838   -0.0011 C   0  0  0  0  0  0  0  0  0  0  0  0
    0.2862    0.0983   -0.5354 O   0  0  0  0  0  0  0  0  0  0  0  0
    0.0232   -2.1378    0.2571 C   0  0  0  0  0  0  0  0  0  0  0  0
   -1.3154   -2.2338    0.0200 C   0  0  0  0  0  0  0  0  0  0  0  0
   -2.3934   -1.3984   -0.2009 N   0  0  0  0  0  0  0  0  0  0  0  0
   -2.8440   -0.1438   -0.1343 C   0  0  0  0  0  0  0  0  0  0  0  0
   -2.1244    0.7670    0.3065 O   0  0  0  0  0  0  0  0  0  0  0  0
   -4.2312    0.2979   -0.5713 C   0  0  0  0  0  0  0  0  0  0  0  0
   -4.4126    1.7390   -0.3692 C   0  0  0  0  0  0  0  0  0  0  0  0
   -4.9203    2.1228    0.8679 C   0  0  0  0  0  0  0  0  0  0  0  0
   -5.1300    3.4474    1.1642 C   0  0  0  0  0  0  0  0  0  0  0  0
   -4.8382    4.4212    0.2332 C   0  0  0  0  0  0  0  0  0  0  0  0
   -4.3370    4.0283   -0.9856 C   0  0  0  0  0  0  0  0  0  0  0  0
   -4.1254    2.7022   -1.2866 C   0  0  0  0  0  0  0  0  0  0  0  0
   -1.5667   -3.9743    0.2946 S   0  0  0  0  0  0  0  0  0  0  0  0
   -0.0046   -4.4258    0.6836 C   0  0  0  0  0  0  0  0  0  0  0  0
    0.6926   -3.2612    0.6001 C   0  0  0  0  0  0  0  0  0  0  0  0
    2.1801   -3.4687    0.9336 C   0  0  0  0  0  0  0  0  0  0  0  0
    2.6244   -4.5351   -0.0756 C   0  0  0  0  0  0  0  0  0  0  0  0
    1.9697   -5.8609    0.2292 C   0  0  0  0  0  0  0  0  0  0  0  0
    0.7232   -5.7019    1.0654 C   0  0  0  0  0  0  0  0  0  0  0  0
    4.1950    0.6129    0.4534 C   0  0  0  0  0  0  0  0  0  0  0  0
    4.8654    1.7864    0.2009 C   0  0  0  0  0  0  0  0  0  0  0  0
  1  2  1  0
  2  3  1  0
  3  4  2  0
  4  5  1  0
  5  6  2  0
  6  7  1  0
  7  8  1  0
  8  9  2  0
  8 10  1  0
 10 11  2  0
 11 12  1  0
 12 13  1  0
 13 14  2  0
 13 15  1  0
 15 16  1  0
 16 17  2  0
 17 18  1  0
 18 19  2  0
 19 20  1  0
 20 21  2  0
 11 22  1  0
 22 23  1  0
 23 24  2  0
 24 25  1  0
 25 26  1  0
 26 27  1  0
 27 28  1  0
  6 29  1  0
 29 30  2  0
 30  3  1  0
 24 10  1  0
 21 16  1  0
 28 23  1  0
M  END
>  <zinc_id>  (1) 
ZINC000000722306

>  <smiles>  (1) 
COc1ccc(NC(=O)c2c(NC(=O)Cc3ccccc3)sc3c2CCCC3)cc1

$$$$
