
     RDKit          3D

 32 35  0  0  0  0  0  0  0  0999 V2000
   -5.9584   -3.7071   -1.6114 C   0  0  0  0  0  0  0  0  0  0  0  0
   -5.8284   -2.2050   -1.7019 C   0  0  0  0  0  0  0  0  0  0  0  0
   -4.5677   -1.7988   -1.2685 O   0  0  0  0  0  0  0  0  0  0  0  0
   -4.0448   -2.0140   -0.0166 C   0  0  0  0  0  0  0  0  0  0  0  0
   -4.7735   -2.6791    0.9335 C   0  0  0  0  0  0  0  0  0  0  0  0
   -4.2197   -2.8782    2.1790 C   0  0  0  0  0  0  0  0  0  0  0  0
   -2.9572   -2.4257    2.4869 C   0  0  0  0  0  0  0  0  0  0  0  0
   -2.2516   -1.7612    1.5097 C   0  0  0  0  0  0  0  0  0  0  0  0
   -2.7765   -1.5465    0.2567 C   0  0  0  0  0  0  0  0  0  0  0  0
   -2.0584   -0.8620   -0.7628 N   0  0  0  0  0  0  0  0  0  0  0  0
   -0.7487   -0.3430   -0.5643 C   0  0  0  0  0  0  0  0  0  0  0  0
   -0.4037    0.9402   -0.3828 C   0  0  0  0  0  0  0  0  0  0  0  0
   -1.5855    2.2305   -0.3639 S   0  0  0  0  0  0  0  0  0  0  0  0
   -0.9435    3.8579   -0.1276 C   0  0  0  0  0  0  0  0  0  0  0  0
    0.3697    4.2053    0.0398 C   0  0  0  0  0  0  0  0  0  0  0  0
    0.8054    5.5007    0.2188 C   0  0  0  0  0  0  0  0  0  0  0  0
   -0.0846    6.5551    0.2403 C   0  0  0  0  0  0  0  0  0  0  0  0
   -1.4134    6.2264    0.0733 C   0  0  0  0  0  0  0  0  0  0  0  0
   -1.8391    4.9373   -0.1040 C   0  0  0  0  0  0  0  0  0  0  0  0
    1.0342    0.9894   -0.2247 C   0  0  0  0  0  0  0  0  0  0  0  0
    1.7766    1.9894   -0.0330 O   0  0  0  0  0  0  0  0  0  0  0  0
    1.5713   -0.3538   -0.3197 N   0  0  0  0  0  0  0  0  0  0  0  0
    2.9329   -0.7423   -0.2195 C   0  0  0  0  0  0  0  0  0  0  0  0
    3.3754   -1.9311   -0.7557 C   0  0  0  0  0  0  0  0  0  0  0  0
    4.6952   -2.3126   -0.6628 C   0  0  0  0  0  0  0  0  0  0  0  0
    5.6064   -1.4997   -0.0233 C   0  0  0  0  0  0  0  0  0  0  0  0
    7.0551   -1.8753    0.1024 C   0  0  0  0  0  0  0  0  0  0  0  0
    7.3002   -2.6619    1.3701 C   0  0  0  0  0  0  0  0  0  0  0  0
    5.1661   -0.3065    0.5158 C   0  0  0  0  0  0  0  0  0  0  0  0
    3.8448    0.0650    0.4172 C   0  0  0  0  0  0  0  0  0  0  0  0
    0.4379   -1.1726   -0.5324 C   0  0  0  0  0  0  0  0  0  0  0  0
    0.4834   -2.4206   -0.6688 O   0  0  0  0  0  0  0  0  0  0  0  0
  1  2  1  0
  2  3  1  0
  3  4  1  0
  4  5  2  0
  5  6  1  0
  6  7  2  0
  7  8  1  0
  8  9  2  0
  9 10  1  0
 10 11  1  0
 11 12  2  0
 12 13  1  0
 13 14  1  0
 14 15  2  0
 15 16  1  0
 16 17  2  0
 17 18  1  0
 18 19  2  0
 12 20  1  0
 20 21  2  0
 20 22  1  0
 22 23  1  0
 23 24  2  0
 24 25  1  0
 25 26  2  0
 26 27  1  0
 27 28  1  0
 26 29  1  0
 29 30  2  0
 22 31  1  0
 31 32  2  0
  9  4  1  0
 31 11  1  0
 19 14  1  0
 30 23  1  0
M  END
>  <zinc_id>  (1) 
ZINC000001928891

>  <smiles>  (1) 
CCOc1ccccc1NC1=C(Sc2ccccc2)C(=O)N(c2ccc(CC)cc2)C1=O

$$$$
