
     RDKit          3D

 31 34  0  0  0  0  0  0  0  0999 V2000
    2.1213    4.6665   -1.3905 C   0  0  0  0  0  0  0  0  0  0  0  0
    0.7586    4.0222   -1.6398 C   0  0  0  0  0  0  0  0  0  0  0  0
   -0.2387    5.1437   -1.7272 C   0  0  0  0  0  0  0  0  0  0  0  0
    0.8227    3.1211   -2.7683 C   0  0  0  0  0  0  0  0  0  0  0  0
    0.4219    3.2167   -0.2467 C   0  0  1  0  0  0  0  0  0  0  0  0
   -1.0366    2.6232   -0.7533 C   0  0  0  0  0  0  0  0  0  0  0  0
   -1.3681    1.6242    0.2020 O   0  0  0  0  0  0  0  0  0  0  0  0
   -0.5057    0.5605    0.3697 C   0  0  0  0  0  0  0  0  0  0  0  0
   -0.8596   -0.6434    0.9532 C   0  0  0  0  0  0  0  0  0  0  0  0
   -2.1999   -0.7593    1.3940 N   0  0  0  0  0  0  0  0  0  0  0  0
   -2.7046   -1.9821    2.0344 C   0  0  0  0  0  0  0  0  0  0  0  0
   -4.1764   -1.6592    2.3301 C   0  0  0  0  0  0  0  0  0  0  0  0
   -4.7889   -1.3783    1.0138 C   0  0  0  0  0  0  0  0  0  0  0  0
   -4.7884   -0.0946    0.5347 C   0  0  0  0  0  0  0  0  0  0  0  0
   -5.3638    0.1712   -0.7042 C   0  0  0  0  0  0  0  0  0  0  0  0
   -5.9161   -0.8478   -1.4169 C   0  0  0  0  0  0  0  0  0  0  0  0
   -5.9065   -2.1223   -0.9210 C   0  0  0  0  0  0  0  0  0  0  0  0
   -5.3482   -2.3930    0.2860 C   0  0  0  0  0  0  0  0  0  0  0  0
    0.0503   -1.6817    1.0973 C   0  0  0  0  0  0  0  0  0  0  0  0
    1.3300   -1.5066    0.6497 C   0  0  0  0  0  0  0  0  0  0  0  0
    1.6785   -0.2996    0.0665 C   0  0  0  0  0  0  0  0  0  0  0  0
    3.0416   -0.1165   -0.4106 C   0  0  0  0  0  0  0  0  0  0  0  0
    3.3746    0.9507   -0.9364 O   0  0  0  0  0  0  0  0  0  0  0  0
    4.0308   -1.1809   -0.2779 C   0  0  0  0  0  0  0  0  0  0  0  0
    5.1231   -1.2902   -1.1117 C   0  0  0  0  0  0  0  0  0  0  0  0
    6.0220   -2.3380   -0.9157 C   0  0  0  0  0  0  0  0  0  0  0  0
    5.8377   -3.2417    0.0740 C   0  0  0  0  0  0  0  0  0  0  0  0
    4.7423   -3.1178    0.8972 C   0  0  0  0  0  0  0  0  0  0  0  0
    3.8493   -2.0973    0.7212 C   0  0  0  0  0  0  0  0  0  0  0  0
    0.7801    0.7299   -0.0776 C   0  0  0  0  0  0  0  0  0  0  0  0
    1.2170    1.9202   -0.6794 N   0  0  0  0  0  0  0  0  0  0  0  0
  1  2  1  0
  2  3  1  0
  2  4  1  0
  5  2  1  6
  5  6  1  0
  6  7  1  0
  7  8  1  0
  8  9  2  0
  9 10  1  0
 10 11  1  0
 11 12  1  0
 12 13  1  0
 13 14  2  0
 14 15  1  0
 15 16  2  0
 16 17  1  0
 17 18  2  0
  9 19  1  0
 19 20  2  0
 20 21  1  0
 21 22  1  0
 22 23  2  0
 22 24  1  0
 24 25  2  0
 25 26  1  0
 26 27  2  0
 27 28  1  0
 28 29  2  0
 21 30  2  0
 30 31  1  0
 31  5  1  0
 30  8  1  0
 18 13  1  0
 29 24  1  0
M  END
>  <zinc_id>  (1) 
ZINC000001908345

>  <smiles>  (1) 
CC(C)(C)[C@H]1COc2c(NCCc3ccccc3)ccc(C(=O)c3ccccc3)c2N1

$$$$
