
     RDKit          3D

 33 38  0  0  0  0  0  0  0  0999 V2000
   -5.6920    5.1862    0.7408 O   0  0  0  0  0  0  0  0  0  0  0  0
   -5.1912    3.8764    0.6364 C   0  0  0  0  0  0  0  0  0  0  0  0
   -6.0729    2.8487    0.4668 C   0  0  0  0  0  0  0  0  0  0  0  0
   -5.6181    1.5451    0.3613 C   0  0  0  0  0  0  0  0  0  0  0  0
   -4.2566    1.2723    0.4264 C   0  0  0  0  0  0  0  0  0  0  0  0
   -3.3907    2.3285    0.5980 C   0  0  0  0  0  0  0  0  0  0  0  0
   -3.8295    3.6312    0.7056 C   0  0  0  0  0  0  0  0  0  0  0  0
   -2.0081    1.8003    0.6460 C   0  0  0  0  0  0  0  0  0  0  0  0
   -2.1560    0.3432    0.4629 C   0  0  0  0  0  0  0  0  0  0  0  0
   -3.5062    0.0175    0.3382 C   0  0  0  0  0  0  0  0  0  0  0  0
   -3.9251   -1.2807    0.1524 C   0  0  0  0  0  0  0  0  0  0  0  0
   -2.9586   -2.2568    0.0917 C   0  0  0  0  0  0  0  0  0  0  0  0
   -3.3685   -3.5625   -0.0878 C   0  0  0  0  0  0  0  0  0  0  0  0
   -2.4251   -4.5804   -0.1479 C   0  0  0  0  0  0  0  0  0  0  0  0
   -1.0922   -4.2295   -0.0218 C   0  0  0  0  0  0  0  0  0  0  0  0
   -0.1436   -5.2638   -0.0820 O   0  0  0  0  0  0  0  0  0  0  0  0
   -0.6895   -2.9326    0.1562 C   0  0  0  0  0  0  0  0  0  0  0  0
   -1.6481   -1.9293    0.2128 C   0  0  0  0  0  0  0  0  0  0  0  0
   -1.1896   -0.6342    0.4024 C   0  0  0  0  0  0  0  0  0  0  0  0
    0.2373   -0.3938    0.5527 C   0  0  0  0  0  0  0  0  0  0  0  0
    0.8207   -0.8738    1.7250 C   0  0  0  0  0  0  0  0  0  0  0  0
    2.1573   -0.7059    1.9775 C   0  0  0  0  0  0  0  0  0  0  0  0
    2.9348   -0.0426    1.0373 C   0  0  0  0  0  0  0  0  0  0  0  0
    2.3645    0.4403   -0.1298 C   0  0  0  0  0  0  0  0  0  0  0  0
    3.1960    1.1057   -1.0484 O   0  0  0  0  0  0  0  0  0  0  0  0
    4.5756    1.2388   -0.7265 C   0  0  0  0  0  0  0  0  0  0  0  0
    5.1085   -0.1767   -0.5961 C   0  0  0  0  0  0  0  0  0  0  0  0
    6.4895   -0.2585   -0.2534 N   0  0  0  0  0  0  0  0  0  0  0  0
    7.4088    0.1900   -1.2527 C   0  0  0  0  0  0  0  0  0  0  0  0
    8.0365    1.4667   -0.7155 C   0  0  0  0  0  0  0  0  0  0  0  0
    7.9635    1.2731    0.7810 C   0  0  0  0  0  0  0  0  0  0  0  0
    6.8446    0.2989    1.0073 C   0  0  0  0  0  0  0  0  0  0  0  0
    1.0240    0.2580   -0.3573 C   0  0  0  0  0  0  0  0  0  0  0  0
  1  2  1  0
  2  3  2  0
  3  4  1  0
  4  5  2  0
  5  6  1  0
  6  7  2  0
  6  8  1  0
  8  9  1  0
  9 10  2  0
 10 11  1  0
 11 12  2  0
 12 13  1  0
 13 14  2  0
 14 15  1  0
 15 16  1  0
 15 17  2  0
 17 18  1  0
 18 19  2  0
 19 20  1  0
 20 21  2  0
 21 22  1  0
 22 23  2  0
 23 24  1  0
 24 25  1  0
 25 26  1  0
 26 27  1  0
 27 28  1  0
 28 29  1  0
 29 30  1  0
 30 31  1  0
 31 32  1  0
 24 33  2  0
  7  2  1  0
 19  9  1  0
 33 20  1  0
 10  5  1  0
 18 12  1  0
 32 28  1  0
M  END
>  <zinc_id>  (1) 
ZINC000001910604

>  <smiles>  (1) 
Oc1ccc2c(c1)Cc1c-2cc2ccc(O)cc2c1-c1cccc(OCCN2CCCC2)c1

$$$$
