
     RDKit          3D

 34 38  0  0  0  0  0  0  0  0999 V2000
    9.2815    2.0075    0.4661 C   0  0  0  0  0  0  0  0  0  0  0  0
    8.1524    2.5655    1.0938 O   0  0  0  0  0  0  0  0  0  0  0  0
    6.9201    1.9301    1.0409 C   0  0  0  0  0  0  0  0  0  0  0  0
    5.7968    2.4492    1.6461 C   0  0  0  0  0  0  0  0  0  0  0  0
    4.5643    1.7915    1.5795 C   0  0  0  0  0  0  0  0  0  0  0  0
    4.4370    0.6058    0.9064 C   0  0  0  0  0  0  0  0  0  0  0  0
    3.1809   -0.1788    0.7716 C   0  0  0  0  0  0  0  0  0  0  0  0
    2.4267    0.2257   -0.4862 C   0  0  0  0  0  0  0  0  0  0  0  0
    1.2118   -0.5467   -0.6329 N   0  0  0  0  0  0  0  0  0  0  0  0
    0.0209   -0.1771   -0.1539 C   0  0  0  0  0  0  0  0  0  0  0  0
   -0.3278    1.0761    0.6069 C   0  0  0  0  0  0  0  0  0  0  0  0
   -0.9122   -1.1437   -0.4588 C   0  0  0  0  0  0  0  0  0  0  0  0
   -2.3350   -1.2187   -0.1851 C   0  0  0  0  0  0  0  0  0  0  0  0
   -2.9693   -2.2464   -0.5303 O   0  0  0  0  0  0  0  0  0  0  0  0
   -2.9380   -0.1157    0.4624 N   0  0  0  0  0  0  0  0  0  0  0  0
   -4.4986   -0.3041    0.7045 C   0  0  1  0  0  0  0  0  0  0  0  0
   -4.3472   -0.0312    2.3365 C   0  0  0  0  0  0  0  0  0  0  0  0
   -5.6891    0.2561    2.8514 C   0  0  0  0  0  0  0  0  0  0  0  0
   -6.7087    0.6669    1.8413 C   0  0  0  0  0  0  0  0  0  0  0  0
   -6.0088    1.6291    0.9204 C   0  0  0  0  0  0  0  0  0  0  0  0
   -6.4764    2.9043    0.6811 C   0  0  0  0  0  0  0  0  0  0  0  0
   -5.7743    3.7208   -0.1848 C   0  0  0  0  0  0  0  0  0  0  0  0
   -4.6268    3.2213   -0.7770 C   0  0  0  0  0  0  0  0  0  0  0  0
   -4.1724    1.9264   -0.5190 C   0  0  0  0  0  0  0  0  0  0  0  0
   -4.8903    1.1796    0.3269 C   0  0  0  0  0  0  0  0  0  0  0  0
   -0.1889   -2.1157   -1.1539 C   0  0  0  0  0  0  0  0  0  0  0  0
   -0.5552   -3.3275   -1.7232 C   0  0  0  0  0  0  0  0  0  0  0  0
    0.3325   -4.1494   -2.3760 C   0  0  0  0  0  0  0  0  0  0  0  0
   -0.0944   -5.3681   -2.9350 O   0  0  0  0  0  0  0  0  0  0  0  0
    1.6645   -3.7654   -2.4815 C   0  0  0  0  0  0  0  0  0  0  0  0
    2.0185   -2.5625   -1.9136 C   0  0  0  0  0  0  0  0  0  0  0  0
    1.1246   -1.7351   -1.2560 C   0  0  0  0  0  0  0  0  0  0  0  0
    5.5837    0.0948    0.3000 C   0  0  0  0  0  0  0  0  0  0  0  0
    6.7971    0.7357    0.3620 C   0  0  0  0  0  0  0  0  0  0  0  0
  1  2  1  0
  2  3  1  0
  3  4  2  0
  4  5  1  0
  5  6  2  0
  6  7  1  0
  7  8  1  0
  8  9  1  0
  9 10  1  0
 10 11  1  0
 10 12  2  0
 12 13  1  0
 13 14  2  0
 13 15  1  0
 16 15  1  6
 16 17  1  0
 17 18  1  0
 18 19  1  0
 19 20  1  0
 20 21  2  0
 21 22  1  0
 22 23  2  0
 23 24  1  0
 24 25  2  0
 12 26  1  0
 26 27  2  0
 27 28  1  0
 28 29  1  0
 28 30  2  0
 30 31  1  0
 31 32  2  0
  6 33  1  0
 33 34  2  0
 34  3  1  0
 32  9  1  0
 25 16  1  0
 32 26  1  0
 25 20  1  0
M  END
>  <zinc_id>  (1) 
ZINC000000763489

>  <smiles>  (1) 
COc1ccc(CCn2c(C)c(C(=O)N[C@H]3CCCc4ccccc43)c3cc(O)ccc32)cc1

$$$$
