
     RDKit          3D

 31 35  0  0  0  0  0  0  0  0999 V2000
   -5.3506   -4.1022    0.2811 C   0  0  0  0  0  0  0  0  0  0  0  0
   -4.5199   -3.0327    0.6896 O   0  0  0  0  0  0  0  0  0  0  0  0
   -4.5859   -1.8146    0.0473 C   0  0  0  0  0  0  0  0  0  0  0  0
   -5.4760   -1.6442   -1.0063 C   0  0  0  0  0  0  0  0  0  0  0  0
   -5.5431   -0.4238   -1.6510 C   0  0  0  0  0  0  0  0  0  0  0  0
   -4.7312    0.6122   -1.2482 C   0  0  0  0  0  0  0  0  0  0  0  0
   -3.8494    0.3734   -0.1723 C   0  0  0  0  0  0  0  0  0  0  0  0
   -2.9744    1.6589    0.1395 C   0  0  1  0  0  0  0  0  0  0  0  0
   -2.7734    1.4628    1.6607 N   0  0  0  0  0  0  0  0  0  0  0  0
   -2.1050    2.7158    2.0301 C   0  0  0  0  0  0  0  0  0  0  0  0
   -1.0903    3.1419    0.9767 C   0  0  0  0  0  0  0  0  0  0  0  0
   -0.6520    1.9232    0.2003 C   0  0  0  0  0  0  0  0  0  0  0  0
   -1.5802    1.0557   -0.2974 C   0  0  0  0  0  0  0  0  0  0  0  0
   -1.0084    0.1064   -0.9124 N   0  0  0  0  0  0  0  0  0  0  0  0
    0.3284    0.2623   -0.8748 C   0  0  0  0  0  0  0  0  0  0  0  0
    1.4440   -0.4012   -1.3360 C   0  0  0  0  0  0  0  0  0  0  0  0
    2.7080    0.0962   -1.0827 C   0  0  0  0  0  0  0  0  0  0  0  0
    2.9266    1.2555   -0.3723 C   0  0  0  0  0  0  0  0  0  0  0  0
    4.1556    1.7897   -0.0944 O   0  0  0  0  0  0  0  0  0  0  0  0
    5.4062    1.3750   -0.4067 C   0  0  0  0  0  0  0  0  0  0  0  0
    5.8192    0.0550    0.0880 C   0  0  0  0  0  0  0  0  0  0  0  0
    7.0576   -0.4637   -0.1611 C   0  0  0  0  0  0  0  0  0  0  0  0
    7.3883   -1.7020    0.3261 C   0  0  0  0  0  0  0  0  0  0  0  0
    6.4794   -2.4287    1.0665 C   0  0  0  0  0  0  0  0  0  0  0  0
    5.2300   -1.9101    1.3201 C   0  0  0  0  0  0  0  0  0  0  0  0
    4.9254   -0.6717    0.8221 C   0  0  0  0  0  0  0  0  0  0  0  0
    1.8177    1.9224    0.0907 C   0  0  0  0  0  0  0  0  0  0  0  0
    0.5695    1.4194   -0.1667 C   0  0  0  0  0  0  0  0  0  0  0  0
   -3.7674   -0.7735    0.4554 C   0  0  0  0  0  0  0  0  0  0  0  0
   -2.9182   -1.0113    1.4932 O   0  0  0  0  0  0  0  0  0  0  0  0
   -3.3303   -0.8461    2.8601 C   0  0  0  0  0  0  0  0  0  0  0  0
  1  2  1  0
  2  3  1  0
  3  4  2  0
  4  5  1  0
  5  6  2  0
  6  7  1  0
  8  7  1  6
  8  9  1  0
  9 10  1  0
 10 11  1  0
 11 12  1  0
 12 13  2  0
 13 14  1  0
 14 15  1  0
 15 16  2  0
 16 17  1  0
 17 18  2  0
 18 19  1  0
 19 20  1  0
 20 21  1  0
 21 22  2  0
 22 23  1  0
 23 24  2  0
 24 25  1  0
 25 26  2  0
 18 27  1  0
 27 28  2  0
  7 29  2  0
 29 30  1  0
 30 31  1  0
 29  3  1  0
 13  8  1  0
 28 15  1  0
 28 12  1  0
 26 21  1  0
M  END
>  <zinc_id>  (1) 
ZINC000003738958

>  <smiles>  (1) 
COc1cccc([C@H]2NCCc3c2[nH]c2ccc(OCc4ccccc4)cc32)c1OC

$$$$
