
     RDKit          3D

 30 32  0  0  0  0  0  0  0  0999 V2000
   -5.8944    2.2591   -1.7142 C   0  0  0  0  0  0  0  0  0  0  0  0
   -4.7289    2.7769   -2.0727 C   0  0  0  0  0  0  0  0  0  0  0  0
   -3.8931    2.2136   -3.1688 C   0  0  0  0  0  0  0  0  0  0  0  0
   -2.6094    1.8310   -2.5822 N   0  0  0  0  0  0  0  0  0  0  0  0
   -2.5293    0.8775   -1.5479 C   0  0  0  0  0  0  0  0  0  0  0  0
   -3.6296    0.3717   -1.1568 O   0  0  0  0  0  0  0  0  0  0  0  0
   -1.2874    0.4507   -0.9194 C   0  0  0  0  0  0  0  0  0  0  0  0
   -0.1600    0.9691   -1.3211 C   0  0  0  0  0  0  0  0  0  0  0  0
    1.1461    0.6286   -0.7764 C   0  0  0  0  0  0  0  0  0  0  0  0
    1.3286    0.3643    0.5652 C   0  0  0  0  0  0  0  0  0  0  0  0
    2.5762    0.0429    1.0717 C   0  0  0  0  0  0  0  0  0  0  0  0
    3.6224    0.0001    0.1737 C   0  0  0  0  0  0  0  0  0  0  0  0
    4.9223   -0.3117    0.5661 O   0  0  0  0  0  0  0  0  0  0  0  0
    5.2037   -0.5936    1.9074 C   0  0  0  0  0  0  0  0  0  0  0  0
    4.4046   -1.7902    2.3753 C   0  0  0  0  0  0  0  0  0  0  0  0
    3.4495    0.2646   -1.1810 C   0  0  0  0  0  0  0  0  0  0  0  0
    4.5232    0.2129   -2.0567 C   0  0  0  0  0  0  0  0  0  0  0  0
    4.3097    0.4804   -3.3824 C   0  0  0  0  0  0  0  0  0  0  0  0
    3.0563    0.8003   -3.8760 C   0  0  0  0  0  0  0  0  0  0  0  0
    2.0153    0.8421   -2.9778 C   0  0  0  0  0  0  0  0  0  0  0  0
    2.2163    0.5777   -1.6548 C   0  0  0  0  0  0  0  0  0  0  0  0
   -1.2893   -0.5071    0.1091 N   0  0  0  0  0  0  0  0  0  0  0  0
   -1.9792   -0.3114    1.3352 C   0  0  0  0  0  0  0  0  0  0  0  0
   -2.6006    0.7750    1.4644 O   0  0  0  0  0  0  0  0  0  0  0  0
   -1.9873   -1.2977    2.4095 C   0  0  0  0  0  0  0  0  0  0  0  0
   -1.3365   -2.5052    2.2998 C   0  0  0  0  0  0  0  0  0  0  0  0
   -1.3922   -3.3863    3.3638 C   0  0  0  0  0  0  0  0  0  0  0  0
   -2.0703   -3.1130    4.5334 C   0  0  0  0  0  0  0  0  0  0  0  0
   -2.7174   -1.9037    4.6325 C   0  0  0  0  0  0  0  0  0  0  0  0
   -2.6694   -1.0190    3.5808 C   0  0  0  0  0  0  0  0  0  0  0  0
  1  2  2  0
  2  3  1  0
  3  4  1  0
  4  5  1  0
  5  6  2  0
  5  7  1  0
  7  8  2  0
  8  9  1  0
  9 10  2  0
 10 11  1  0
 11 12  2  0
 12 13  1  0
 13 14  1  0
 14 15  1  0
 12 16  1  0
 16 17  2  0
 17 18  1  0
 18 19  2  0
 19 20  1  0
 20 21  2  0
  7 22  1  0
 22 23  1  0
 23 24  2  0
 23 25  1  0
 25 26  2  0
 26 27  1  0
 27 28  2  0
 28 29  1  0
 29 30  2  0
 21  9  1  0
 30 25  1  0
 21 16  1  0
M  END
>  <zinc_id>  (1) 
ZINC000003009731

>  <smiles>  (1) 
C=CCNC(=O)/C(=C/c1ccc(OCC)c2ccccc12)NC(=O)c1ccccc1

$$$$
