
     RDKit          3D

 28 30  0  0  0  0  0  0  0  0999 V2000
   -7.5415    3.0589   -1.8238 C   0  0  0  0  0  0  0  0  0  0  0  0
   -6.4547    2.2802   -1.1715 C   0  0  0  0  0  0  0  0  0  0  0  0
   -5.2910    2.8729   -0.6921 C   0  0  0  0  0  0  0  0  0  0  0  0
   -4.3144    2.0698   -0.0917 C   0  0  0  0  0  0  0  0  0  0  0  0
   -4.4746    0.7086    0.0373 C   0  0  0  0  0  0  0  0  0  0  0  0
   -3.4770   -0.1526    0.6560 C   0  0  0  0  0  0  0  0  0  0  0  0
   -2.2877    0.3174    1.1680 C   0  0  0  0  0  0  0  0  0  0  0  0
   -1.3675   -0.5579    1.7490 C   0  0  0  0  0  0  0  0  0  0  0  0
   -1.6460   -1.9056    1.8135 C   0  0  0  0  0  0  0  0  0  0  0  0
   -0.5060   -3.0933    2.5481 S   0  0  0  0  0  0  0  0  0  0  0  0
    0.6317   -3.7353    1.2919 C   0  0  0  0  0  0  0  0  0  0  0  0
    1.5090   -2.6054    0.8432 C   0  0  0  0  0  0  0  0  0  0  0  0
    1.2160   -1.7722   -0.1900 C   0  0  0  0  0  0  0  0  0  0  0  0
    2.0549   -0.7470   -0.5638 C   0  0  0  0  0  0  0  0  0  0  0  0
    3.2286   -0.5591    0.1307 C   0  0  0  0  0  0  0  0  0  0  0  0
    4.1714    0.5292   -0.2287 C   0  0  0  0  0  0  0  0  0  0  0  0
    3.8474    1.3165   -1.1415 O   0  0  0  0  0  0  0  0  0  0  0  0
    5.4004    0.6674    0.4459 N   0  0  0  0  0  0  0  0  0  0  0  0
    6.4042    1.6354    0.2237 C   0  0  0  0  0  0  0  0  0  0  0  0
    7.0581    1.6670   -1.1114 C   0  0  0  0  0  0  0  0  0  0  0  0
    6.1799    1.9253   -2.2795 C   0  0  0  0  0  0  0  0  0  0  0  0
    8.2358    2.5886   -1.1341 C   0  0  0  0  0  0  0  0  0  0  0  0
    3.5258   -1.4091    1.1829 C   0  0  0  0  0  0  0  0  0  0  0  0
    2.6925   -2.4209    1.5482 C   0  0  0  0  0  0  0  0  0  0  0  0
   -2.8245   -2.3125    1.2975 N   0  0  0  0  0  0  0  0  0  0  0  0
   -3.6949   -1.4760    0.7469 N   0  0  0  0  0  0  0  0  0  0  0  0
   -5.6503    0.1832   -0.4582 C   0  0  0  0  0  0  0  0  0  0  0  0
   -6.6257    0.9267   -1.0490 C   0  0  0  0  0  0  0  0  0  0  0  0
  1  2  1  0
  2  3  2  0
  3  4  1  0
  4  5  2  0
  5  6  1  0
  6  7  2  0
  7  8  1  0
  8  9  2  0
  9 10  1  0
 10 11  1  0
 11 12  1  0
 12 13  2  0
 13 14  1  0
 14 15  2  0
 15 16  1  0
 16 17  2  0
 16 18  1  0
 18 19  1  0
 19 20  1  0
 20 21  1  0
 20 22  1  0
 15 23  1  0
 23 24  2  0
  9 25  1  0
 25 26  2  0
  5 27  1  0
 27 28  2  0
 28  2  1  0
 26  6  1  0
 24 12  1  0
M  END
>  <zinc_id>  (1) 
ZINC000000737783

>  <smiles>  (1) 
Cc1ccc(-c2ccc(SCc3ccc(C(=O)NCC(C)C)cc3)nn2)cc1

$$$$
