
     RDKit          3D

 32 35  0  0  0  0  0  0  0  0999 V2000
   -6.0619    4.0882   -0.3294 C   0  0  0  0  0  0  0  0  0  0  0  0
   -5.6350    2.6668   -0.3469 C   0  0  0  0  0  0  0  0  0  0  0  0
   -6.4002    1.7270   -1.0051 C   0  0  0  0  0  0  0  0  0  0  0  0
   -5.9901    0.4253   -1.0091 C   0  0  0  0  0  0  0  0  0  0  0  0
   -4.8290    0.0858   -0.3592 C   0  0  0  0  0  0  0  0  0  0  0  0
   -4.0715    1.0130    0.2918 C   0  0  0  0  0  0  0  0  0  0  0  0
   -2.8428    0.5801    0.9653 C   0  0  0  0  0  0  0  0  0  0  0  0
   -2.0380    1.4256    1.6783 N   0  0  0  0  0  0  0  0  0  0  0  0
   -1.0246    0.7370    2.1700 N   0  0  0  0  0  0  0  0  0  0  0  0
   -1.1285   -0.5512    1.8043 C   0  0  0  0  0  0  0  0  0  0  0  0
    0.0031   -1.8575    2.2387 S   0  0  0  0  0  0  0  0  0  0  0  0
    1.3503   -2.0537    1.0700 C   0  0  0  0  0  0  0  0  0  0  0  0
    2.2418   -0.8655    1.0828 C   0  0  0  0  0  0  0  0  0  0  0  0
    1.9696    0.0827    1.8530 O   0  0  0  0  0  0  0  0  0  0  0  0
    3.3832   -0.8008    0.2392 N   0  0  0  0  0  0  0  0  0  0  0  0
    4.2194    0.3468    0.2710 C   0  0  0  0  0  0  0  0  0  0  0  0
    4.0173    1.4292    1.0615 C   0  0  0  0  0  0  0  0  0  0  0  0
    4.8738    2.5047    1.0346 C   0  0  0  0  0  0  0  0  0  0  0  0
    5.9867    2.5441    0.2027 C   0  0  0  0  0  0  0  0  0  0  0  0
    6.1726    1.4333   -0.5921 C   0  0  0  0  0  0  0  0  0  0  0  0
    5.3270    0.3426   -0.5825 C   0  0  0  0  0  0  0  0  0  0  0  0
    5.5838   -0.8108   -1.4562 C   0  0  0  0  0  0  0  0  0  0  0  0
    6.8284   -0.5511   -2.2596 C   0  0  0  0  0  0  0  0  0  0  0  0
    5.6958   -2.0548   -0.6029 C   0  0  0  0  0  0  0  0  0  0  0  0
   -2.2692   -0.6152    1.0555 N   0  0  0  0  0  0  0  0  0  0  0  0
   -2.7396   -1.8391    0.4791 C   0  0  0  0  0  0  0  0  0  0  0  0
   -2.1392   -2.0841   -0.8444 C   0  0  0  0  0  0  0  0  0  0  0  0
   -2.6074   -1.6987   -2.0782 C   0  0  0  0  0  0  0  0  0  0  0  0
   -1.7082   -2.1569   -2.9995 C   0  0  0  0  0  0  0  0  0  0  0  0
   -0.6965   -2.8214   -2.2989 C   0  0  0  0  0  0  0  0  0  0  0  0
   -1.0021   -2.7465   -1.0417 O   0  0  0  0  0  0  0  0  0  0  0  0
   -4.4689    2.3351    0.3077 C   0  0  0  0  0  0  0  0  0  0  0  0
  1  2  1  0
  2  3  2  0
  3  4  1  0
  4  5  2  0
  5  6  1  0
  6  7  1  0
  7  8  2  0
  8  9  1  0
  9 10  2  0
 10 11  1  0
 11 12  1  0
 12 13  1  0
 13 14  2  0
 13 15  1  0
 15 16  1  0
 16 17  2  0
 17 18  1  0
 18 19  2  0
 19 20  1  0
 20 21  2  0
 21 22  1  0
 22 23  1  0
 22 24  1  0
 10 25  1  0
 25 26  1  0
 26 27  1  0
 27 28  2  0
 28 29  1  0
 29 30  2  0
 30 31  1  0
  6 32  2  0
 32  2  1  0
 25  7  1  0
 31 27  1  0
 21 16  1  0
M  END
>  <zinc_id>  (1) 
ZINC000002447268

>  <smiles>  (1) 
Cc1cccc(-c2nnc(SCC(=O)Nc3ccccc3C(C)C)n2Cc2ccco2)c1

$$$$
