
     RDKit          3D

 32 35  0  0  0  0  0  0  0  0999 V2000
   -5.3067   -2.0470   -1.7097 C   0  0  0  0  0  0  0  0  0  0  0  0
   -4.5591   -3.3255   -1.3799 C   0  0  0  0  0  0  0  0  0  0  0  0
   -3.9984   -3.1772   -0.0021 C   0  0  0  0  0  0  0  0  0  0  0  0
   -4.5598   -3.8005    1.0773 C   0  0  0  0  0  0  0  0  0  0  0  0
   -4.0601   -3.6773    2.3527 C   0  0  0  0  0  0  0  0  0  0  0  0
   -2.9401   -2.8776    2.4989 C   0  0  0  0  0  0  0  0  0  0  0  0
   -2.3523   -2.2367    1.4299 C   0  0  0  0  0  0  0  0  0  0  0  0
   -2.8852   -2.3834    0.1492 C   0  0  0  0  0  0  0  0  0  0  0  0
   -2.2865   -1.7271   -0.9509 N   0  0  0  0  0  0  0  0  0  0  0  0
   -1.1243   -0.9080   -0.7049 C   0  0  0  0  0  0  0  0  0  0  0  0
   -1.0946    0.4088   -0.6198 C   0  0  0  0  0  0  0  0  0  0  0  0
   -2.4894    1.5226   -0.7872 S   0  0  0  0  0  0  0  0  0  0  0  0
   -1.9963    3.2214   -0.5837 C   0  0  0  0  0  0  0  0  0  0  0  0
   -1.5971    4.0420   -1.6191 C   0  0  0  0  0  0  0  0  0  0  0  0
   -1.2265    5.3449   -1.3885 C   0  0  0  0  0  0  0  0  0  0  0  0
   -1.2487    5.8564   -0.1054 C   0  0  0  0  0  0  0  0  0  0  0  0
   -1.6453    5.0439    0.9284 C   0  0  0  0  0  0  0  0  0  0  0  0
   -2.0124    3.7533    0.6983 C   0  0  0  0  0  0  0  0  0  0  0  0
    0.2675    0.8716   -0.3570 C   0  0  0  0  0  0  0  0  0  0  0  0
    0.6237    2.0950   -0.2204 O   0  0  0  0  0  0  0  0  0  0  0  0
    1.1131   -0.2636   -0.2809 N   0  0  0  0  0  0  0  0  0  0  0  0
    2.5059   -0.2834   -0.0383 C   0  0  0  0  0  0  0  0  0  0  0  0
    3.1009    0.7387    0.6588 C   0  0  0  0  0  0  0  0  0  0  0  0
    4.4621    0.7197    0.8996 C   0  0  0  0  0  0  0  0  0  0  0  0
    5.2272   -0.3121    0.4484 C   0  0  0  0  0  0  0  0  0  0  0  0
    6.6891   -0.3387    0.7066 C   0  0  0  0  0  0  0  0  0  0  0  0
    7.1563    1.0088    1.2042 C   0  0  0  0  0  0  0  0  0  0  0  0
    7.4385   -0.6485   -0.5537 C   0  0  0  0  0  0  0  0  0  0  0  0
    4.6462   -1.3409   -0.2501 C   0  0  0  0  0  0  0  0  0  0  0  0
    3.2699   -1.3287   -0.4975 C   0  0  0  0  0  0  0  0  0  0  0  0
    0.2384   -1.3834   -0.5000 C   0  0  0  0  0  0  0  0  0  0  0  0
    0.6439   -2.5675   -0.5031 O   0  0  0  0  0  0  0  0  0  0  0  0
  1  2  1  0
  2  3  1  0
  3  4  2  0
  4  5  1  0
  5  6  2  0
  6  7  1  0
  7  8  2  0
  8  9  1  0
  9 10  1  0
 10 11  2  0
 11 12  1  0
 12 13  1  0
 13 14  2  0
 14 15  1  0
 15 16  2  0
 16 17  1  0
 17 18  2  0
 11 19  1  0
 19 20  2  0
 19 21  1  0
 21 22  1  0
 22 23  2  0
 23 24  1  0
 24 25  2  0
 25 26  1  0
 26 27  1  0
 26 28  1  0
 25 29  1  0
 29 30  2  0
 21 31  1  0
 31 32  2  0
  8  3  1  0
 31 10  1  0
 18 13  1  0
 30 22  1  0
M  END
>  <zinc_id>  (1) 
ZINC000001955046

>  <smiles>  (1) 
CCc1ccccc1NC1=C(Sc2ccccc2)C(=O)N(c2ccc(C(C)C)cc2)C1=O

$$$$
