
     RDKit          3D

 30 32  0  0  0  0  0  0  0  0999 V2000
    6.6628   -3.8094    1.1409 C   0  0  0  0  0  0  0  0  0  0  0  0
    5.4870   -4.2188    0.2701 C   0  0  0  0  0  0  0  0  0  0  0  0
    4.4316   -3.1604    0.4022 C   0  0  0  0  0  0  0  0  0  0  0  0
    3.1982   -3.4878   -0.4464 C   0  0  0  0  0  0  0  0  0  0  0  0
    2.2828   -2.3632   -0.1889 N   0  0  0  0  0  0  0  0  0  0  0  0
    2.6763   -1.0194   -0.5166 C   0  0  0  0  0  0  0  0  0  0  0  0
    3.8158   -0.8898   -1.0307 O   0  0  0  0  0  0  0  0  0  0  0  0
    1.8606    0.1374   -0.2931 C   0  0  0  0  0  0  0  0  0  0  0  0
    2.3377    1.3396   -0.6465 C   0  0  0  0  0  0  0  0  0  0  0  0
    1.5087    2.5212   -0.4163 C   0  0  0  0  0  0  0  0  0  0  0  0
    0.8490    2.7340    0.7839 C   0  0  0  0  0  0  0  0  0  0  0  0
    0.0584    3.8440    0.9381 C   0  0  0  0  0  0  0  0  0  0  0  0
   -0.1264    4.7941   -0.0658 C   0  0  0  0  0  0  0  0  0  0  0  0
   -0.9096    5.9124    0.0552 O   0  0  0  0  0  0  0  0  0  0  0  0
   -1.6237    6.1986    1.2568 C   0  0  0  0  0  0  0  0  0  0  0  0
    0.5539    4.5385   -1.2460 C   0  0  0  0  0  0  0  0  0  0  0  0
    1.3544    3.4310   -1.4260 C   0  0  0  0  0  0  0  0  0  0  0  0
    0.5560    0.1405    0.2833 N   0  0  0  0  0  0  0  0  0  0  0  0
   -0.5211   -0.5208   -0.4013 C   0  0  0  0  0  0  0  0  0  0  0  0
   -0.2300   -1.0718   -1.4939 O   0  0  0  0  0  0  0  0  0  0  0  0
   -1.8689   -0.5331    0.1627 C   0  0  0  0  0  0  0  0  0  0  0  0
   -2.2510    0.4747    1.0235 C   0  0  0  0  0  0  0  0  0  0  0  0
   -3.5036    0.5112    1.5897 C   0  0  0  0  0  0  0  0  0  0  0  0
   -4.4007   -0.4722    1.2993 C   0  0  0  0  0  0  0  0  0  0  0  0
   -4.0488   -1.4889    0.4458 C   0  0  0  0  0  0  0  0  0  0  0  0
   -4.9600   -2.4851    0.1407 C   0  0  0  0  0  0  0  0  0  0  0  0
   -4.6070   -3.4819   -0.7117 C   0  0  0  0  0  0  0  0  0  0  0  0
   -3.3578   -3.5210   -1.2807 C   0  0  0  0  0  0  0  0  0  0  0  0
   -2.4479   -2.5308   -0.9793 C   0  0  0  0  0  0  0  0  0  0  0  0
   -2.7765   -1.5230   -0.1289 C   0  0  0  0  0  0  0  0  0  0  0  0
  1  2  1  0
  2  3  1  0
  3  4  1  0
  4  5  1  0
  5  6  1  0
  6  7  2  0
  6  8  1  0
  8  9  2  0
  9 10  1  0
 10 11  2  0
 11 12  1  0
 12 13  2  0
 13 14  1  0
 14 15  1  0
 13 16  1  0
 16 17  2  0
  8 18  1  0
 18 19  1  0
 19 20  2  0
 19 21  1  0
 21 22  2  0
 22 23  1  0
 23 24  2  0
 24 25  1  0
 25 26  2  0
 26 27  1  0
 27 28  2  0
 28 29  1  0
 29 30  2  0
 17 10  1  0
 30 21  1  0
 30 25  1  0
M  END
>  <zinc_id>  (1) 
ZINC000002819524

>  <smiles>  (1) 
CCCCNC(=O)/C(=C/c1ccc(OC)cc1)NC(=O)c1cccc2ccccc12

$$$$
