
     RDKit          3D

 31 34  0  0  0  0  0  0  0  0999 V2000
    5.7668    4.4503    0.7161 C   0  0  0  0  0  0  0  0  0  0  0  0
    5.8699    4.4551   -0.7918 C   0  0  0  0  0  0  0  0  0  0  0  0
    5.6902    3.0573   -1.2885 C   0  0  0  0  0  0  0  0  0  0  0  0
    4.3606    2.4982   -0.9005 C   0  0  0  0  0  0  0  0  0  0  0  0
    4.1764    2.4593    0.6102 C   0  0  0  0  0  0  0  0  0  0  0  0
    2.8806    1.9112    0.8630 O   0  0  0  0  0  0  0  0  0  0  0  0
    2.5391    0.6452    0.4363 C   0  0  0  0  0  0  0  0  0  0  0  0
    3.4187   -0.0022   -0.1837 O   0  0  0  0  0  0  0  0  0  0  0  0
    1.2300    0.0497    0.6734 C   0  0  0  0  0  0  0  0  0  0  0  0
    0.1475    0.5898    1.3236 C   0  0  0  0  0  0  0  0  0  0  0  0
    0.1422    1.8983    1.9012 N   0  0  0  0  0  0  0  0  0  0  0  0
   -0.8800   -0.2603    1.3412 N   0  0  0  0  0  0  0  0  0  0  0  0
   -2.2059   -0.1156    1.9103 C   0  0  0  0  0  0  0  0  0  0  0  0
   -3.1256    0.4589    0.9199 C   0  0  0  0  0  0  0  0  0  0  0  0
   -3.8835   -0.2632    0.0353 C   0  0  0  0  0  0  0  0  0  0  0  0
   -4.7323    0.3606   -0.8733 C   0  0  0  0  0  0  0  0  0  0  0  0
   -4.8068    1.7384   -0.8772 C   0  0  0  0  0  0  0  0  0  0  0  0
   -5.6374    2.4049   -1.7631 O   0  0  0  0  0  0  0  0  0  0  0  0
   -5.7321    3.7956   -1.7886 C   0  0  0  0  0  0  0  0  0  0  0  0
   -4.0593    2.4905   -0.0024 C   0  0  0  0  0  0  0  0  0  0  0  0
   -3.2370    1.8378    0.8750 C   0  0  0  0  0  0  0  0  0  0  0  0
   -0.4510   -1.3754    0.6872 C   0  0  0  0  0  0  0  0  0  0  0  0
   -1.0944   -2.5272    0.4258 N   0  0  0  0  0  0  0  0  0  0  0  0
   -0.4398   -3.5089   -0.2555 C   0  0  0  0  0  0  0  0  0  0  0  0
   -1.1018   -4.7085   -0.5308 C   0  0  0  0  0  0  0  0  0  0  0  0
   -0.4357   -5.6919   -1.2173 C   0  0  0  0  0  0  0  0  0  0  0  0
    0.8627   -5.5285   -1.6404 C   0  0  0  0  0  0  0  0  0  0  0  0
    1.5326   -4.3588   -1.3811 C   0  0  0  0  0  0  0  0  0  0  0  0
    0.8580   -3.3476   -0.6792 C   0  0  0  0  0  0  0  0  0  0  0  0
    1.5061   -2.1831   -0.4140 N   0  0  0  0  0  0  0  0  0  0  0  0
    0.8414   -1.2300    0.2586 C   0  0  0  0  0  0  0  0  0  0  0  0
  1  2  1  0
  2  3  1  0
  3  4  1  0
  4  5  1  0
  5  6  1  0
  6  7  1  0
  7  8  2  0
  7  9  1  0
  9 10  2  0
 10 11  1  0
 10 12  1  0
 12 13  1  0
 13 14  1  0
 14 15  2  0
 15 16  1  0
 16 17  2  0
 17 18  1  0
 18 19  1  0
 17 20  1  0
 20 21  2  0
 12 22  1  0
 22 23  2  0
 23 24  1  0
 24 25  2  0
 25 26  1  0
 26 27  2  0
 27 28  1  0
 28 29  2  0
 29 30  1  0
 30 31  2  0
 31  9  1  0
 21 14  1  0
 31 22  1  0
 29 24  1  0
M  END
>  <zinc_id>  (1) 
ZINC000002210999

>  <smiles>  (1) 
CCCCCOC(=O)c1c(N)n(Cc2ccc(OC)cc2)c2nc3ccccc3nc12

$$$$
