
     RDKit          3D

 31 34  0  0  0  0  0  0  0  0999 V2000
    8.2436   -0.8085   -1.6393 C   0  0  0  0  0  0  0  0  0  0  0  0
    7.4708   -1.9950   -1.0869 C   0  0  0  0  0  0  0  0  0  0  0  0
    6.5662   -1.5403    0.0607 C   0  0  0  0  0  0  0  0  0  0  0  0
    5.8221   -2.7462    0.5754 C   0  0  0  0  0  0  0  0  0  0  0  0
    4.9109   -2.3548    1.7131 C   0  0  0  0  0  0  0  0  0  0  0  0
    3.9042   -1.3566    1.3277 C   0  0  0  0  0  0  0  0  0  0  0  0
    2.6651   -1.6593    0.8407 C   0  0  0  0  0  0  0  0  0  0  0  0
    1.7831   -0.6697    0.5048 C   0  0  0  0  0  0  0  0  0  0  0  0
    2.0865    0.6675    0.6354 C   0  0  0  0  0  0  0  0  0  0  0  0
    1.1829    1.7489    0.2955 C   0  0  0  0  0  0  0  0  0  0  0  0
    1.6775    2.9257    0.5721 O   0  0  0  0  0  0  0  0  0  0  0  0
   -0.0550    1.7183   -0.2426 N   0  0  0  0  0  0  0  0  0  0  0  0
   -0.7858    0.6740   -0.8526 C   0  0  0  0  0  0  0  0  0  0  0  0
   -0.0313   -0.3260   -1.4149 C   0  0  0  0  0  0  0  0  0  0  0  0
   -0.5715   -1.4135   -2.0544 C   0  0  0  0  0  0  0  0  0  0  0  0
   -1.9662   -1.4721   -2.1171 C   0  0  0  0  0  0  0  0  0  0  0  0
   -2.7084   -0.4676   -1.5527 C   0  0  0  0  0  0  0  0  0  0  0  0
   -2.1271    0.5772   -0.9377 C   0  0  0  0  0  0  0  0  0  0  0  0
   -3.0603    1.7320   -0.3353 C   0  0  1  0  0  0  0  0  0  0  0  0
   -3.9048    0.7700    0.5810 N   0  0  0  0  0  0  0  0  0  0  0  0
   -4.9105    0.0532   -0.1133 C   0  0  0  0  0  0  0  0  0  0  0  0
   -5.3174    0.4203   -1.3752 C   0  0  0  0  0  0  0  0  0  0  0  0
   -6.2886   -0.2580   -2.0716 C   0  0  0  0  0  0  0  0  0  0  0  0
   -6.8794   -1.3467   -1.4878 C   0  0  0  0  0  0  0  0  0  0  0  0
   -6.4875   -1.7305   -0.2275 C   0  0  0  0  0  0  0  0  0  0  0  0
   -5.5208   -1.0614    0.4746 C   0  0  0  0  0  0  0  0  0  0  0  0
   -2.0315    2.1895    0.8780 C   0  0  0  0  0  0  0  0  0  0  0  0
   -1.0011    2.9813   -0.2107 C   0  0  1  0  0  0  0  0  0  0  0  0
   -0.2648    3.8064    1.0191 C   0  0  0  0  0  0  0  0  0  0  0  0
    3.3659    0.9714    1.1380 C   0  0  0  0  0  0  0  0  0  0  0  0
    4.2334   -0.0292    1.4681 C   0  0  0  0  0  0  0  0  0  0  0  0
  1  2  1  0
  2  3  1  0
  3  4  1  0
  4  5  1  0
  5  6  1  0
  6  7  2  0
  7  8  1  0
  8  9  2  0
  9 10  1  0
 10 11  2  0
 10 12  1  0
 12 13  1  0
 13 14  2  0
 14 15  1  0
 15 16  2  0
 16 17  1  0
 17 18  2  0
 18 19  1  0
 19 20  1  1
 20 21  1  0
 21 22  2  0
 22 23  1  0
 23 24  2  0
 24 25  1  0
 25 26  2  0
 19 27  1  0
 27 28  1  0
 28 29  1  1
  9 30  1  0
 30 31  2  0
 31  6  1  0
 28 12  1  0
 18 13  1  0
 26 21  1  0
M  END
>  <zinc_id>  (1) 
ZINC000001804415

>  <smiles>  (1) 
CCCCCc1ccc(C(=O)N2c3ccccc3[C@@H](Nc3ccccc3)C[C@H]2C)cc1

$$$$
