
     RDKit          3D

 32 36  0  0  0  0  0  0  0  0999 V2000
   -1.3320   -1.9093    0.0717 N   0  0  0  0  0  0  0  0  0  0  0  0
   -0.9547   -0.4997    0.1109 C   0  0  0  0  0  0  0  0  0  0  0  0
   -1.8834    0.3897    0.5809 C   0  0  0  0  0  0  0  0  0  0  0  0
   -3.2579    0.1191    1.0704 C   0  0  0  0  0  0  0  0  0  0  0  0
   -3.7057   -1.0530    1.0900 O   0  0  0  0  0  0  0  0  0  0  0  0
   -4.0423    1.2140    1.5107 N   0  0  0  0  0  0  0  0  0  0  0  0
   -5.3914    0.9027    1.9844 C   0  0  0  0  0  0  0  0  0  0  0  0
   -6.3190    0.6203    0.8653 C   0  0  0  0  0  0  0  0  0  0  0  0
   -7.0672    1.5965    0.2252 C   0  0  0  0  0  0  0  0  0  0  0  0
   -7.9075    1.2486   -0.8089 C   0  0  0  0  0  0  0  0  0  0  0  0
   -8.0429   -0.0634   -1.2497 C   0  0  0  0  0  0  0  0  0  0  0  0
   -7.3023   -1.0237   -0.6150 C   0  0  0  0  0  0  0  0  0  0  0  0
   -6.4597   -0.6829    0.4204 C   0  0  0  0  0  0  0  0  0  0  0  0
   -1.0624    1.8808    0.4604 S   0  0  0  0  0  0  0  0  0  0  0  0
    0.4261    1.3338   -0.1792 C   0  0  0  0  0  0  0  0  0  0  0  0
    1.5711    1.9700   -0.5337 N   0  0  0  0  0  0  0  0  0  0  0  0
    2.6434    1.2940   -1.0305 C   0  0  0  0  0  0  0  0  0  0  0  0
    3.8970    1.9432   -1.3916 C   0  0  0  0  0  0  0  0  0  0  0  0
    4.9820    2.0220   -0.4435 C   0  0  0  0  0  0  0  0  0  0  0  0
    5.5106    0.7694    0.0611 C   0  0  0  0  0  0  0  0  0  0  0  0
    4.9516    0.2462    1.2102 C   0  0  0  0  0  0  0  0  0  0  0  0
    5.4273   -0.9318    1.7656 C   0  0  0  0  0  0  0  0  0  0  0  0
    6.4692   -1.5654    1.1436 C   0  0  0  0  0  0  0  0  0  0  0  0
    7.0317   -1.0550    0.0019 C   0  0  0  0  0  0  0  0  0  0  0  0
    6.5650    0.1013   -0.5437 C   0  0  0  0  0  0  0  0  0  0  0  0
    2.4748   -0.0595   -1.1429 C   0  0  0  0  0  0  0  0  0  0  0  0
    1.3335   -0.7263   -0.7937 C   0  0  0  0  0  0  0  0  0  0  0  0
    0.2324   -0.0178   -0.2804 C   0  0  0  0  0  0  0  0  0  0  0  0
    1.2764   -2.1905   -0.9813 C   0  0  0  0  0  0  0  0  0  0  0  0
    2.5557   -2.9097   -0.7656 C   0  0  0  0  0  0  0  0  0  0  0  0
    3.7936   -2.1058   -0.9227 C   0  0  0  0  0  0  0  0  0  0  0  0
    3.5868   -0.8575   -1.7185 C   0  0  0  0  0  0  0  0  0  0  0  0
  1  2  1  0
  2  3  2  0
  3  4  1  0
  4  5  2  0
  4  6  1  0
  6  7  1  0
  7  8  1  0
  8  9  2  0
  9 10  1  0
 10 11  2  0
 11 12  1  0
 12 13  2  0
  3 14  1  0
 14 15  1  0
 15 16  2  0
 16 17  1  0
 17 18  1  0
 18 19  1  0
 19 20  1  0
 20 21  2  0
 21 22  1  0
 22 23  2  0
 23 24  1  0
 24 25  2  0
 17 26  2  0
 26 27  1  0
 27 28  2  0
 27 29  1  0
 29 30  1  0
 30 31  1  0
 31 32  1  0
 28  2  1  0
 13  8  1  0
 28 15  1  0
 25 20  1  0
 32 26  1  0
M  END
>  <zinc_id>  (1) 
ZINC000001472104

>  <smiles>  (1) 
Nc1c(C(=O)NCc2ccccc2)sc2nc(CCc3ccccc3)c3c(c12)CCCC3

$$$$
