
     RDKit          3D

 31 33  0  0  0  0  0  0  0  0999 V2000
    7.6312    2.4953    1.1019 C   0  0  0  0  0  0  0  0  0  0  0  0
    6.6219    1.9350    1.9060 O   0  0  0  0  0  0  0  0  0  0  0  0
    5.5327    1.2685    1.3385 C   0  0  0  0  0  0  0  0  0  0  0  0
    5.4699    1.1715   -0.0528 C   0  0  0  0  0  0  0  0  0  0  0  0
    4.3792    0.5050   -0.5998 C   0  0  0  0  0  0  0  0  0  0  0  0
    3.3899   -0.0448    0.1730 C   0  0  0  0  0  0  0  0  0  0  0  0
    2.2550   -0.7414   -0.4481 C   0  0  0  0  0  0  0  0  0  0  0  0
    1.3543   -1.2298    0.2746 O   0  0  0  0  0  0  0  0  0  0  0  0
    2.1347   -0.8860   -1.8448 N   0  0  0  0  0  0  0  0  0  0  0  0
    1.1023   -1.5244   -2.5492 C   0  0  0  0  0  0  0  0  0  0  0  0
   -0.2647   -0.9978   -2.3996 C   0  0  0  0  0  0  0  0  0  0  0  0
   -1.1598   -1.5924   -3.0718 O   0  0  0  0  0  0  0  0  0  0  0  0
   -0.6679    0.0899   -1.5936 N   0  0  0  0  0  0  0  0  0  0  0  0
   -1.9416    0.5740   -1.4775 N   0  0  0  0  0  0  0  0  0  0  0  0
   -2.9381    0.1630   -0.8417 C   0  0  0  0  0  0  0  0  0  0  0  0
   -4.1879    0.9317   -0.9305 C   0  0  0  0  0  0  0  0  0  0  0  0
   -4.2173    2.0563   -1.6978 C   0  0  0  0  0  0  0  0  0  0  0  0
   -5.4035    2.7860   -1.7821 C   0  0  0  0  0  0  0  0  0  0  0  0
   -6.5083    2.3602   -1.0961 C   0  0  0  0  0  0  0  0  0  0  0  0
   -6.4484    1.2260   -0.3330 C   0  0  0  0  0  0  0  0  0  0  0  0
   -5.2936    0.5193   -0.2534 C   0  0  0  0  0  0  0  0  0  0  0  0
   -2.9348   -1.0444   -0.0109 C   0  0  0  0  0  0  0  0  0  0  0  0
   -1.7855   -1.7681    0.0793 C   0  0  0  0  0  0  0  0  0  0  0  0
   -1.7201   -2.9070    0.8411 C   0  0  0  0  0  0  0  0  0  0  0  0
   -2.8181   -3.3255    1.5199 C   0  0  0  0  0  0  0  0  0  0  0  0
   -3.9980   -2.6244    1.4562 C   0  0  0  0  0  0  0  0  0  0  0  0
   -4.0500   -1.4646    0.6752 C   0  0  0  0  0  0  0  0  0  0  0  0
    3.4870    0.0716    1.5439 C   0  0  0  0  0  0  0  0  0  0  0  0
    4.5627    0.7313    2.1398 C   0  0  0  0  0  0  0  0  0  0  0  0
    4.6823    0.8611    3.5145 O   0  0  0  0  0  0  0  0  0  0  0  0
    3.7342    0.3411    4.4187 C   0  0  0  0  0  0  0  0  0  0  0  0
  1  2  1  0
  2  3  1  0
  3  4  2  0
  4  5  1  0
  5  6  2  0
  6  7  1  0
  7  8  2  0
  7  9  1  0
  9 10  1  0
 10 11  1  0
 11 12  2  0
 11 13  1  0
 13 14  1  0
 14 15  2  3
 15 16  1  0
 16 17  2  0
 17 18  1  0
 18 19  2  0
 19 20  1  0
 20 21  2  0
 15 22  1  0
 22 23  2  0
 23 24  1  0
 24 25  2  0
 25 26  1  0
 26 27  2  0
  6 28  1  0
 28 29  2  0
 29 30  1  0
 30 31  1  0
 29  3  1  0
 21 16  1  0
 27 22  1  0
M  END
>  <zinc_id>  (1) 
ZINC000003080486

>  <smiles>  (1) 
COc1ccc(C(=O)NCC(=O)NN=C(c2ccccc2)c2ccccc2)cc1OC

$$$$
