
     RDKit          3D

 30 33  0  0  0  0  0  0  0  0999 V2000
    6.6976    1.0674   -1.2671 C   0  0  0  0  0  0  0  0  0  0  0  0
    5.4520    0.7634   -0.2064 C   0  0  2  0  0  0  0  0  0  0  0  0
    5.6256   -0.8542   -0.3515 C   0  0  0  0  0  0  0  0  0  0  0  0
    4.6666   -1.4507   -1.2514 C   0  0  0  0  0  0  0  0  0  0  0  0
    3.2920   -1.0419   -0.8101 C   0  0  0  0  0  0  0  0  0  0  0  0
    1.8159   -1.6511   -0.2377 S   0  0  0  0  0  0  0  0  0  0  0  0
    0.9595   -0.1767   -0.0788 C   0  0  0  0  0  0  0  0  0  0  0  0
   -0.3976    0.0086    0.3769 N   0  0  0  0  0  0  0  0  0  0  0  0
   -1.1413   -1.1428    0.7453 C   0  0  0  0  0  0  0  0  0  0  0  0
   -0.5771   -2.2607    0.6545 O   0  0  0  0  0  0  0  0  0  0  0  0
   -2.5283   -1.0643    1.2214 C   0  0  0  0  0  0  0  0  0  0  0  0
   -3.3699   -0.4432    0.1513 C   0  0  0  0  0  0  0  0  0  0  0  0
   -3.2877   -1.2884   -1.0518 C   0  0  0  0  0  0  0  0  0  0  0  0
   -4.1988   -2.3014   -1.2154 C   0  0  0  0  0  0  0  0  0  0  0  0
   -4.1179   -3.0858   -2.3379 C   0  0  0  0  0  0  0  0  0  0  0  0
   -3.1320   -2.8352   -3.2604 C   0  0  0  0  0  0  0  0  0  0  0  0
   -2.2180   -1.8160   -3.0924 C   0  0  0  0  0  0  0  0  0  0  0  0
   -2.2915   -1.0222   -1.9669 C   0  0  0  0  0  0  0  0  0  0  0  0
   -2.6959   -0.4415    2.5597 C   0  0  0  0  0  0  0  0  0  0  0  0
   -2.1851    0.9390    2.5424 C   0  0  0  0  0  0  0  0  0  0  0  0
   -0.8723    1.2539    2.8450 C   0  0  0  0  0  0  0  0  0  0  0  0
   -0.4335    2.5436    2.8189 C   0  0  0  0  0  0  0  0  0  0  0  0
   -1.2835    3.5517    2.4928 C   0  0  0  0  0  0  0  0  0  0  0  0
   -2.6067    3.2331    2.1878 C   0  0  0  0  0  0  0  0  0  0  0  0
   -3.0810    1.9436    2.2048 C   0  0  0  0  0  0  0  0  0  0  0  0
    1.8723    0.7649   -0.4862 C   0  0  0  0  0  0  0  0  0  0  0  0
    1.4655    2.1861   -0.4790 C   0  0  0  0  0  0  0  0  0  0  0  0
    1.1679    3.3056   -0.4813 N   0  0  0  0  0  0  0  0  0  0  0  0
    3.0892    0.2950   -0.8660 C   0  0  0  0  0  0  0  0  0  0  0  0
    4.3141    1.0203   -1.3606 C   0  0  0  0  0  0  0  0  0  0  0  0
  2  1  1  6
  2  3  1  0
  3  4  1  0
  4  5  1  0
  5  6  1  0
  6  7  1  0
  7  8  1  0
  8  9  1  0
  9 10  2  0
  9 11  1  0
 11 12  1  0
 12 13  1  0
 13 14  2  0
 14 15  1  0
 15 16  2  0
 16 17  1  0
 17 18  2  0
 11 19  1  0
 19 20  1  0
 20 21  2  0
 21 22  1  0
 22 23  2  0
 23 24  1  0
 24 25  2  0
  7 26  2  0
 26 27  1  0
 27 28  3  0
 26 29  1  0
 29 30  1  0
 30  2  1  0
 29  5  2  0
 18 13  1  0
 25 20  1  0
M  END
>  <zinc_id>  (1) 
ZINC000002769041

>  <smiles>  (1) 
C[C@@H]1CCc2sc(NC(=O)C(Cc3ccccc3)Cc3ccccc3)c(C#N)c2C1

$$$$
