
     RDKit          3D

 29 31  0  0  0  0  0  0  0  0999 V2000
    4.4054   -1.9542   -0.8178 C   0  0  0  0  0  0  0  0  0  0  0  0
    5.2177   -0.6818   -0.8064 C   0  0  0  0  0  0  0  0  0  0  0  0
    5.9392   -0.4086   -1.9562 C   0  0  0  0  0  0  0  0  0  0  0  0
    6.7262    0.7115   -2.0248 C   0  0  0  0  0  0  0  0  0  0  0  0
    6.8268    1.6020   -0.9559 C   0  0  0  0  0  0  0  0  0  0  0  0
    6.1018    1.2949    0.1508 C   0  0  0  0  0  0  0  0  0  0  0  0
    5.2842    0.1631    0.2672 C   0  0  0  0  0  0  0  0  0  0  0  0
    4.3958   -0.1874    1.7535 S   0  0  0  0  0  0  0  0  0  0  0  0
    3.2651   -1.5689    1.5112 C   0  0  0  0  0  0  0  0  0  0  0  0
    2.1344   -1.1687    0.6351 C   0  0  0  0  0  0  0  0  0  0  0  0
    2.0795    0.0072    0.2184 O   0  0  0  0  0  0  0  0  0  0  0  0
    1.2058   -2.1619    0.3437 O   0  0  0  0  0  0  0  0  0  0  0  0
    0.1083   -1.5671   -0.5721 C   0  0  1  0  0  0  0  0  0  0  0  0
   -0.7381   -3.0042   -0.6614 C   0  0  0  0  0  0  0  0  0  0  0  0
   -0.8052   -0.9764    0.6030 C   0  0  0  0  0  0  0  0  0  0  0  0
   -0.5039   -1.0984    1.7703 O   0  0  0  0  0  0  0  0  0  0  0  0
   -1.9672   -0.3102    0.2590 N   0  0  0  0  0  0  0  0  0  0  0  0
   -2.9181    0.2885    1.1185 C   0  0  0  0  0  0  0  0  0  0  0  0
   -2.8250    0.2970    2.4925 C   0  0  0  0  0  0  0  0  0  0  0  0
   -3.7463    0.8781    3.3404 C   0  0  0  0  0  0  0  0  0  0  0  0
   -4.8497    1.5026    2.7993 C   0  0  0  0  0  0  0  0  0  0  0  0
   -4.9874    1.5206    1.4293 C   0  0  0  0  0  0  0  0  0  0  0  0
   -4.0340    0.9224    0.6196 C   0  0  0  0  0  0  0  0  0  0  0  0
   -4.2017    0.9571   -0.8324 C   0  0  0  0  0  0  0  0  0  0  0  0
   -3.1675    1.2695   -1.6753 C   0  0  0  0  0  0  0  0  0  0  0  0
   -3.3261    1.3021   -3.0503 C   0  0  0  0  0  0  0  0  0  0  0  0
   -4.5842    1.0057   -3.5841 C   0  0  0  0  0  0  0  0  0  0  0  0
   -5.6093    0.6952   -2.7295 C   0  0  0  0  0  0  0  0  0  0  0  0
   -5.4265    0.6701   -1.3803 C   0  0  0  0  0  0  0  0  0  0  0  0
  1  2  1  0
  2  3  2  0
  3  4  1  0
  4  5  2  0
  5  6  1  0
  6  7  2  0
  7  8  1  0
  8  9  1  0
  9 10  1  0
 10 11  2  0
 10 12  1  0
 12 13  1  0
 13 14  1  1
 13 15  1  0
 15 16  2  0
 15 17  1  0
 17 18  1  0
 18 19  2  0
 19 20  1  0
 20 21  2  0
 21 22  1  0
 22 23  2  0
 23 24  1  0
 24 25  2  0
 25 26  1  0
 26 27  2  0
 27 28  1  0
 28 29  2  0
  7  2  1  0
 23 18  1  0
 29 24  1  0
M  END
>  <zinc_id>  (1) 
ZINC000004415504

>  <smiles>  (1) 
Cc1ccccc1SCC(=O)O[C@@H](C)C(=O)Nc1ccccc1-c1ccccc1

$$$$
