
     RDKit          3D

 30 33  0  0  0  0  0  0  0  0999 V2000
   -1.1138    5.6402   -0.0146 C   0  0  0  0  0  0  0  0  0  0  0  0
   -1.7265    4.5973    0.5171 C   0  0  0  0  0  0  0  0  0  0  0  0
   -2.5985    3.7527   -0.3174 C   0  0  0  0  0  0  0  0  0  0  0  0
   -2.1841    2.4235   -0.3828 O   0  0  0  0  0  0  0  0  0  0  0  0
   -0.9622    1.9801   -0.8670 C   0  0  0  0  0  0  0  0  0  0  0  0
   -0.1595    2.8556   -1.2823 O   0  0  0  0  0  0  0  0  0  0  0  0
   -0.5884    0.5829   -0.9105 C   0  0  0  0  0  0  0  0  0  0  0  0
    0.5910    0.0588   -1.3710 C   0  0  0  0  0  0  0  0  0  0  0  0
    1.6543    0.8262   -1.8976 N   0  0  0  0  0  0  0  0  0  0  0  0
    0.5612   -1.2621   -1.2508 N   0  0  0  0  0  0  0  0  0  0  0  0
    1.6274   -2.1660   -1.6213 C   0  0  0  0  0  0  0  0  0  0  0  0
    2.4988   -2.4103   -0.4330 C   0  0  0  0  0  0  0  0  0  0  0  0
    3.0820   -1.1440    0.0539 C   0  0  0  0  0  0  0  0  0  0  0  0
    2.4419   -0.3918    1.0287 C   0  0  0  0  0  0  0  0  0  0  0  0
    3.0064    0.7972    1.4762 C   0  0  0  0  0  0  0  0  0  0  0  0
    4.2006    1.2750    0.9852 C   0  0  0  0  0  0  0  0  0  0  0  0
    4.7477    2.4740    1.4520 O   0  0  0  0  0  0  0  0  0  0  0  0
    4.0474    3.1968    2.4484 C   0  0  0  0  0  0  0  0  0  0  0  0
    4.8442    0.5343    0.0162 C   0  0  0  0  0  0  0  0  0  0  0  0
    4.2840   -0.6427   -0.4259 C   0  0  0  0  0  0  0  0  0  0  0  0
   -0.6466   -1.5899   -0.7089 C   0  0  0  0  0  0  0  0  0  0  0  0
   -1.1986   -2.7731   -0.3769 N   0  0  0  0  0  0  0  0  0  0  0  0
   -2.4465   -2.8548    0.1626 C   0  0  0  0  0  0  0  0  0  0  0  0
   -3.0082   -4.0666    0.5015 C   0  0  0  0  0  0  0  0  0  0  0  0
   -4.2740   -4.1770    1.0509 C   0  0  0  0  0  0  0  0  0  0  0  0
   -5.0075   -3.0269    1.2702 C   0  0  0  0  0  0  0  0  0  0  0  0
   -4.4624   -1.7874    0.9362 C   0  0  0  0  0  0  0  0  0  0  0  0
   -3.1861   -1.7142    0.3853 C   0  0  0  0  0  0  0  0  0  0  0  0
   -2.6288   -0.5315    0.0511 N   0  0  0  0  0  0  0  0  0  0  0  0
   -1.3950   -0.4564   -0.4818 C   0  0  0  0  0  0  0  0  0  0  0  0
  1  2  2  0
  2  3  1  0
  3  4  1  0
  4  5  1  0
  5  6  2  0
  5  7  1  0
  7  8  2  0
  8  9  1  0
  8 10  1  0
 10 11  1  0
 11 12  1  0
 12 13  1  0
 13 14  2  0
 14 15  1  0
 15 16  2  0
 16 17  1  0
 17 18  1  0
 16 19  1  0
 19 20  2  0
 10 21  1  0
 21 22  2  0
 22 23  1  0
 23 24  2  0
 24 25  1  0
 25 26  2  0
 26 27  1  0
 27 28  2  0
 28 29  1  0
 29 30  2  0
 30  7  1  0
 20 13  1  0
 30 21  1  0
 28 23  1  0
M  END
>  <zinc_id>  (1) 
ZINC000002194023

>  <smiles>  (1) 
C=CCOC(=O)c1c(N)n(CCc2ccc(OC)cc2)c2nc3ccccc3nc12

$$$$
