
     RDKit          3D

 30 33  0  0  0  0  0  0  0  0999 V2000
   -1.3351    2.0156    0.9211 C   0  0  0  0  0  0  0  0  0  0  0  0
   -1.6699    0.6231    0.5176 C   0  0  0  0  0  0  0  0  0  0  0  0
   -0.8020   -0.2757   -0.0310 C   0  0  0  0  0  0  0  0  0  0  0  0
    0.6192   -0.1243   -0.3557 C   0  0  0  0  0  0  0  0  0  0  0  0
    1.2632   -1.0661   -0.8585 O   0  0  0  0  0  0  0  0  0  0  0  0
    1.2397    1.0688   -0.1008 N   0  0  0  0  0  0  0  0  0  0  0  0
    2.7239    1.3723   -0.3887 C   0  0  1  0  0  0  0  0  0  0  0  0
    3.2234    0.9597    1.1461 C   0  0  0  0  0  0  0  0  0  0  0  0
    3.1112   -0.0764   -1.0101 C   0  0  0  0  0  0  0  0  0  0  0  0
    4.5696    0.0374   -1.3715 C   0  0  0  0  0  0  0  0  0  0  0  0
    5.4568    0.3421   -0.2537 C   0  0  0  0  0  0  0  0  0  0  0  0
    6.0111   -0.6617    0.5143 C   0  0  0  0  0  0  0  0  0  0  0  0
    6.8529   -0.3623    1.5601 C   0  0  0  0  0  0  0  0  0  0  0  0
    7.1417    0.9404    1.8398 C   0  0  0  0  0  0  0  0  0  0  0  0
    6.6160    1.9770    1.1058 C   0  0  0  0  0  0  0  0  0  0  0  0
    5.7804    1.6525    0.0694 C   0  0  0  0  0  0  0  0  0  0  0  0
   -1.5202   -1.4458   -0.2540 C   0  0  0  0  0  0  0  0  0  0  0  0
   -1.1620   -2.6704   -0.7826 C   0  0  0  0  0  0  0  0  0  0  0  0
   -2.1056   -3.6686   -0.8851 C   0  0  0  0  0  0  0  0  0  0  0  0
   -1.7498   -4.9052   -1.4174 O   0  0  0  0  0  0  0  0  0  0  0  0
   -3.3932   -3.4291   -0.4582 C   0  0  0  0  0  0  0  0  0  0  0  0
   -3.7161   -2.1972    0.0637 C   0  0  0  0  0  0  0  0  0  0  0  0
   -2.8059   -1.1743    0.1838 C   0  0  0  0  0  0  0  0  0  0  0  0
   -2.8971    0.0861    0.6538 N   0  0  0  0  0  0  0  0  0  0  0  0
   -4.1041    0.7022    1.1918 C   0  0  0  0  0  0  0  0  0  0  0  0
   -4.8600    1.3689    0.0943 C   0  0  0  0  0  0  0  0  0  0  0  0
   -4.6775    2.6510   -0.2788 C   0  0  0  0  0  0  0  0  0  0  0  0
   -5.4102    3.1271   -1.2674 C   0  0  0  0  0  0  0  0  0  0  0  0
   -6.3156    2.2971   -1.8622 C   0  0  0  0  0  0  0  0  0  0  0  0
   -6.0849    0.8358   -0.9713 S   0  0  0  0  0  0  0  0  0  0  0  0
  1  2  1  0
  2  3  2  0
  3  4  1  0
  4  5  2  0
  4  6  1  0
  6  7  1  0
  7  8  1  1
  7  9  1  0
  9 10  1  0
 10 11  1  0
 11 12  2  0
 12 13  1  0
 13 14  2  0
 14 15  1  0
 15 16  2  0
  3 17  1  0
 17 18  2  0
 18 19  1  0
 19 20  1  0
 19 21  2  0
 21 22  1  0
 22 23  2  0
 23 24  1  0
 24 25  1  0
 25 26  1  0
 26 27  2  0
 27 28  1  0
 28 29  2  0
 29 30  1  0
 24  2  1  0
 30 26  1  0
 16 11  1  0
 23 17  1  0
M  END
>  <zinc_id>  (1) 
ZINC000000763392

>  <smiles>  (1) 
Cc1c(C(=O)N[C@@H](C)CCc2ccccc2)c2cc(O)ccc2n1Cc1cccs1

$$$$
