
     RDKit          3D

 32 35  0  0  0  0  0  0  0  0999 V2000
   -5.8721    5.1280   -1.7923 C   0  0  0  0  0  0  0  0  0  0  0  0
   -5.0892    5.2492   -0.5274 C   0  0  0  0  0  0  0  0  0  0  0  0
   -4.4603    3.9529   -0.1063 C   0  0  0  0  0  0  0  0  0  0  0  0
   -3.1920    3.6111   -0.5297 C   0  0  0  0  0  0  0  0  0  0  0  0
   -2.6168    2.4146   -0.1340 C   0  0  0  0  0  0  0  0  0  0  0  0
   -3.2540    1.5192    0.6809 C   0  0  0  0  0  0  0  0  0  0  0  0
   -2.7188    0.2850    1.1320 N   0  0  0  0  0  0  0  0  0  0  0  0
   -1.3826   -0.1122    0.8244 C   0  0  0  0  0  0  0  0  0  0  0  0
   -0.9761   -1.3243    0.5144 C   0  0  0  0  0  0  0  0  0  0  0  0
   -2.0039   -2.7754    0.4019 S   0  0  0  0  0  0  0  0  0  0  0  0
   -1.0579   -4.2257   -0.0079 C   0  0  0  0  0  0  0  0  0  0  0  0
   -0.8523   -4.5316   -1.3214 C   0  0  0  0  0  0  0  0  0  0  0  0
   -0.1311   -5.6488   -1.6797 C   0  0  0  0  0  0  0  0  0  0  0  0
    0.3852   -6.4614   -0.7088 C   0  0  0  0  0  0  0  0  0  0  0  0
    0.1715   -6.1418    0.6079 C   0  0  0  0  0  0  0  0  0  0  0  0
   -0.5527   -5.0200    0.9819 C   0  0  0  0  0  0  0  0  0  0  0  0
    0.4537   -1.3242    0.2698 C   0  0  0  0  0  0  0  0  0  0  0  0
    1.1690   -2.3057   -0.0464 O   0  0  0  0  0  0  0  0  0  0  0  0
    0.9073    0.0045    0.4547 N   0  0  0  0  0  0  0  0  0  0  0  0
    2.2351    0.4374    0.3001 C   0  0  0  0  0  0  0  0  0  0  0  0
    3.2623   -0.4510    0.3839 C   0  0  0  0  0  0  0  0  0  0  0  0
    4.5874   -0.0824    0.2274 C   0  0  0  0  0  0  0  0  0  0  0  0
    4.8691    1.2252   -0.0202 C   0  0  0  0  0  0  0  0  0  0  0  0
    6.2299    1.7897   -0.2203 C   0  0  0  0  0  0  0  0  0  0  0  0
    6.3325    2.4397   -1.5993 C   0  0  0  0  0  0  0  0  0  0  0  0
    7.2806    0.7240   -0.0460 C   0  0  0  0  0  0  0  0  0  0  0  0
    3.8171    2.1392   -0.1060 C   0  0  0  0  0  0  0  0  0  0  0  0
    2.5117    1.7697    0.0494 C   0  0  0  0  0  0  0  0  0  0  0  0
   -0.2439    0.7740    0.8050 C   0  0  0  0  0  0  0  0  0  0  0  0
   -0.1607    2.0186    1.0383 O   0  0  0  0  0  0  0  0  0  0  0  0
   -4.5361    1.8651    1.1081 C   0  0  0  0  0  0  0  0  0  0  0  0
   -5.1119    3.0574    0.7150 C   0  0  0  0  0  0  0  0  0  0  0  0
  1  2  1  0
  2  3  1  0
  3  4  2  0
  4  5  1  0
  5  6  2  0
  6  7  1  0
  7  8  1  0
  8  9  2  0
  9 10  1  0
 10 11  1  0
 11 12  2  0
 12 13  1  0
 13 14  2  0
 14 15  1  0
 15 16  2  0
  9 17  1  0
 17 18  2  0
 17 19  1  0
 19 20  1  0
 20 21  2  0
 21 22  1  0
 22 23  2  0
 23 24  1  0
 24 25  1  0
 24 26  1  0
 23 27  1  0
 27 28  2  0
 19 29  1  0
 29 30  2  0
  6 31  1  0
 31 32  2  0
 32  3  1  0
 29  8  1  0
 16 11  1  0
 28 20  1  0
M  END
>  <zinc_id>  (1) 
ZINC000001954925

>  <smiles>  (1) 
CCc1ccc(NC2=C(Sc3ccccc3)C(=O)N(c3ccc(C(C)C)cc3)C2=O)cc1

$$$$
