
     RDKit          3D

 30 32  0  0  0  0  0  0  0  0999 V2000
   -1.1764   -3.4370   -1.0285 C   0  0  0  0  0  0  0  0  0  0  0  0
   -1.0031   -2.6170    0.2459 C   0  0  0  0  0  0  0  0  0  0  0  0
   -1.8646   -1.3636    0.0296 C   0  0  0  0  0  0  0  0  0  0  0  0
   -1.2420   -0.2129    0.0606 C   0  0  0  0  0  0  0  0  0  0  0  0
   -1.9437    1.0326   -0.1288 C   0  0  0  0  0  0  0  0  0  0  0  0
   -1.6310    2.0362    0.8111 C   0  0  0  0  0  0  0  0  0  0  0  0
   -2.1926    3.2953    0.7571 C   0  0  0  0  0  0  0  0  0  0  0  0
   -3.0830    3.6149   -0.2246 C   0  0  0  0  0  0  0  0  0  0  0  0
   -3.6646    4.8559   -0.3116 O   0  0  0  0  0  0  0  0  0  0  0  0
   -3.3953    2.6354   -1.1530 C   0  0  0  0  0  0  0  0  0  0  0  0
   -2.8282    1.3959   -1.0804 C   0  0  0  0  0  0  0  0  0  0  0  0
    0.2270   -0.2006    0.3007 C   0  0  0  0  0  0  0  0  0  0  0  0
    0.8033    0.8290    0.9658 C   0  0  0  0  0  0  0  0  0  0  0  0
    2.1642    0.8163    1.1816 C   0  0  0  0  0  0  0  0  0  0  0  0
    2.9519   -0.2187    0.7379 C   0  0  0  0  0  0  0  0  0  0  0  0
    4.3220   -0.1686    0.9903 O   0  0  0  0  0  0  0  0  0  0  0  0
    5.2404    0.0887   -0.0176 C   0  0  0  0  0  0  0  0  0  0  0  0
    4.7338    0.2671   -1.1739 O   0  0  0  0  0  0  0  0  0  0  0  0
    6.6964    0.1664    0.1664 C   0  0  0  0  0  0  0  0  0  0  0  0
    7.4182    0.2860   -1.1641 C   0  0  0  0  0  0  0  0  0  0  0  0
    6.9769    1.4321    1.0022 C   0  0  0  0  0  0  0  0  0  0  0  0
    7.2168   -1.0784    0.8593 C   0  0  0  0  0  0  0  0  0  0  0  0
    2.3490   -1.2572    0.0640 C   0  0  0  0  0  0  0  0  0  0  0  0
    0.9601   -1.2485   -0.1595 C   0  0  0  0  0  0  0  0  0  0  0  0
   -3.2736   -1.5249   -0.2001 C   0  0  0  0  0  0  0  0  0  0  0  0
   -3.9461   -2.4100    0.6743 C   0  0  0  0  0  0  0  0  0  0  0  0
   -5.2885   -2.6841    0.5463 C   0  0  0  0  0  0  0  0  0  0  0  0
   -6.0470   -2.1046   -0.4467 C   0  0  0  0  0  0  0  0  0  0  0  0
   -5.4161   -1.2393   -1.3102 C   0  0  0  0  0  0  0  0  0  0  0  0
   -4.0640   -0.9866   -1.1532 C   0  0  0  0  0  0  0  0  0  0  0  0
  1  2  1  0
  2  3  1  0
  3  4  2  0
  4  5  1  0
  5  6  2  0
  6  7  1  0
  7  8  2  0
  8  9  1  0
  8 10  1  0
 10 11  2  0
  4 12  1  0
 12 13  2  0
 13 14  1  0
 14 15  2  0
 15 16  1  0
 16 17  1  0
 17 18  2  0
 17 19  1  0
 19 20  1  0
 19 21  1  0
 19 22  1  0
 15 23  1  0
 23 24  2  0
  3 25  1  0
 25 26  2  0
 26 27  1  0
 27 28  2  0
 28 29  1  0
 29 30  2  0
 11  5  1  0
 24 12  1  0
 30 25  1  0
M  END
>  <zinc_id>  (1) 
ZINC000002528511

>  <smiles>  (1) 
CC/C(=C(/c1ccc(O)cc1)c1ccc(OC(=O)C(C)(C)C)cc1)c1ccccc1

$$$$
