
     RDKit          3D

 32 35  0  0  0  0  0  0  0  0999 V2000
   -4.0836   -0.3789    0.4523 C   0  0  0  0  0  0  0  0  0  0  0  0
   -2.6156   -0.4369    0.5155 C   0  0  0  0  0  0  0  0  0  0  0  0
   -1.7579    0.5650    0.0512 C   0  0  0  0  0  0  0  0  0  0  0  0
   -2.1600    1.8183   -0.5765 C   0  0  0  0  0  0  0  0  0  0  0  0
   -1.2384    2.6071   -0.9097 O   0  0  0  0  0  0  0  0  0  0  0  0
   -3.5167    2.1575   -0.8137 N   0  0  0  0  0  0  0  0  0  0  0  0
   -3.6100    3.5663   -1.5124 C   0  0  1  0  0  0  0  0  0  0  0  0
   -5.2439    3.3608   -1.8537 C   0  0  0  0  0  0  0  0  0  0  0  0
   -3.9449    4.4393   -0.1512 C   0  0  0  0  0  0  0  0  0  0  0  0
   -4.0377    5.8384   -0.7965 C   0  0  0  0  0  0  0  0  0  0  0  0
   -2.7041    4.4968    0.6677 C   0  0  0  0  0  0  0  0  0  0  0  0
   -0.4733    0.1389    0.2861 C   0  0  0  0  0  0  0  0  0  0  0  0
    0.7537    0.6497    0.0527 C   0  0  0  0  0  0  0  0  0  0  0  0
    1.9563    0.0256    0.3650 C   0  0  0  0  0  0  0  0  0  0  0  0
    3.0979    0.5226    0.1377 O   0  0  0  0  0  0  0  0  0  0  0  0
    4.0912    1.2607   -0.1997 C   0  0  0  0  0  0  0  0  0  0  0  0
    5.4073    0.6617    0.0654 C   0  0  0  0  0  0  0  0  0  0  0  0
    6.0008   -0.1293   -0.9116 C   0  0  0  0  0  0  0  0  0  0  0  0
    7.2263   -0.7062   -0.6742 C   0  0  0  0  0  0  0  0  0  0  0  0
    7.8672   -0.5128    0.5023 C   0  0  0  0  0  0  0  0  0  0  0  0
    7.2791    0.2791    1.4888 C   0  0  0  0  0  0  0  0  0  0  0  0
    6.0554    0.8469    1.2356 C   0  0  0  0  0  0  0  0  0  0  0  0
    1.8102   -1.2513    0.9798 C   0  0  0  0  0  0  0  0  0  0  0  0
    0.6006   -1.7865    1.2262 C   0  0  0  0  0  0  0  0  0  0  0  0
   -0.5445   -1.1170    0.8922 C   0  0  0  0  0  0  0  0  0  0  0  0
   -1.8506   -1.4228    1.0103 N   0  0  0  0  0  0  0  0  0  0  0  0
   -2.3054   -2.6572    1.6107 C   0  0  0  0  0  0  0  0  0  0  0  0
   -2.3968   -3.7293    0.5804 C   0  0  0  0  0  0  0  0  0  0  0  0
   -3.4628   -4.0705   -0.2025 C   0  0  0  0  0  0  0  0  0  0  0  0
   -3.0593   -5.1187   -0.9942 C   0  0  0  0  0  0  0  0  0  0  0  0
   -1.7248   -5.3893   -0.6595 C   0  0  0  0  0  0  0  0  0  0  0  0
   -1.4156   -4.5280    0.2733 O   0  0  0  0  0  0  0  0  0  0  0  0
  1  2  1  0
  2  3  2  0
  3  4  1  0
  4  5  2  0
  4  6  1  0
  6  7  1  0
  7  8  1  6
  7  9  1  0
  9 10  1  0
  9 11  1  0
  3 12  1  0
 12 13  2  0
 13 14  1  0
 14 15  1  0
 15 16  1  0
 16 17  1  0
 17 18  2  0
 18 19  1  0
 19 20  2  0
 20 21  1  0
 21 22  2  0
 14 23  2  0
 23 24  1  0
 24 25  2  0
 25 26  1  0
 26 27  1  0
 27 28  1  0
 28 29  2  0
 29 30  1  0
 30 31  2  0
 31 32  1  0
 26  2  1  0
 32 28  1  0
 25 12  1  0
 22 17  1  0
M  END
>  <zinc_id>  (1) 
ZINC000000762006

>  <smiles>  (1) 
Cc1c(C(=O)N[C@@H](C)C(C)C)c2cc(OCc3ccccc3)ccc2n1Cc1ccco1

$$$$
