
     RDKit          3D

 32 35  0  0  0  0  0  0  0  0999 V2000
   -0.8390    3.2525    2.0143 C   0  0  0  0  0  0  0  0  0  0  0  0
   -1.2121    4.3906    1.0564 C   0  0  0  0  0  0  0  0  0  0  0  0
   -2.7617    4.1661    0.7750 C   0  0  1  0  0  0  0  0  0  0  0  0
   -2.8800    5.5403   -0.1744 C   0  0  0  0  0  0  0  0  0  0  0  0
   -2.7030    3.2718   -0.4904 C   0  0  0  0  0  0  0  0  0  0  0  0
   -2.1337    2.1475   -0.6643 O   0  0  0  0  0  0  0  0  0  0  0  0
   -0.8200    1.8538   -0.8459 C   0  0  0  0  0  0  0  0  0  0  0  0
   -0.0997    2.8632   -0.8688 O   0  0  0  0  0  0  0  0  0  0  0  0
   -0.2755    0.4875   -1.0025 C   0  0  0  0  0  0  0  0  0  0  0  0
    1.0333    0.0955   -1.1899 C   0  0  0  0  0  0  0  0  0  0  0  0
    2.1493    0.9835   -1.2697 N   0  0  0  0  0  0  0  0  0  0  0  0
    1.0416   -1.2574   -1.2795 N   0  0  0  0  0  0  0  0  0  0  0  0
    2.2327   -2.0324   -1.4773 C   0  0  0  0  0  0  0  0  0  0  0  0
    2.9143   -2.4560   -0.2263 C   0  0  0  0  0  0  0  0  0  0  0  0
    3.3193   -1.2864    0.5713 C   0  0  0  0  0  0  0  0  0  0  0  0
    2.4245   -0.8024    1.4917 C   0  0  0  0  0  0  0  0  0  0  0  0
    2.7107    0.2906    2.2883 C   0  0  0  0  0  0  0  0  0  0  0  0
    3.9185    0.9076    2.1566 C   0  0  0  0  0  0  0  0  0  0  0  0
    4.2710    2.0175    2.9312 O   0  0  0  0  0  0  0  0  0  0  0  0
    3.3365    2.4975    3.8702 C   0  0  0  0  0  0  0  0  0  0  0  0
    4.8276    0.4385    1.2413 C   0  0  0  0  0  0  0  0  0  0  0  0
    4.5347   -0.6669    0.4375 C   0  0  0  0  0  0  0  0  0  0  0  0
   -0.2059   -1.7520   -1.1577 C   0  0  0  0  0  0  0  0  0  0  0  0
   -0.7378   -2.9924   -1.1732 N   0  0  0  0  0  0  0  0  0  0  0  0
   -2.0614   -3.1960   -1.0230 C   0  0  0  0  0  0  0  0  0  0  0  0
   -2.6104   -4.4787   -1.0390 C   0  0  0  0  0  0  0  0  0  0  0  0
   -3.9679   -4.6688   -0.8837 C   0  0  0  0  0  0  0  0  0  0  0  0
   -4.8232   -3.6031   -0.7083 C   0  0  0  0  0  0  0  0  0  0  0  0
   -4.2604   -2.3437   -0.6954 C   0  0  0  0  0  0  0  0  0  0  0  0
   -2.9043   -2.1283   -0.8489 C   0  0  0  0  0  0  0  0  0  0  0  0
   -2.3663   -0.8920   -0.8345 N   0  0  0  0  0  0  0  0  0  0  0  0
   -1.0516   -0.6475   -0.9809 C   0  0  0  0  0  0  0  0  0  0  0  0
  1  2  1  0
  2  3  1  0
  3  4  1  6
  3  5  1  0
  5  6  1  0
  6  7  1  0
  7  8  2  0
  7  9  1  0
  9 10  2  0
 10 11  1  0
 10 12  1  0
 12 13  1  0
 13 14  1  0
 14 15  1  0
 15 16  2  0
 16 17  1  0
 17 18  2  0
 18 19  1  0
 19 20  1  0
 18 21  1  0
 21 22  2  0
 12 23  1  0
 23 24  2  0
 24 25  1  0
 25 26  2  0
 26 27  1  0
 27 28  2  0
 28 29  1  0
 29 30  2  0
 30 31  1  0
 31 32  2  0
 32  9  1  0
 22 15  1  0
 32 23  1  0
 30 25  1  0
M  END
>  <zinc_id>  (1) 
ZINC000002383490

>  <smiles>  (1) 
CC[C@@H](C)COC(=O)c1c(N)n(CCc2ccc(OC)cc2)c2nc3ccccc3nc12

$$$$
