
     RDKit          3D

 30 33  0  0  0  0  0  0  0  0999 V2000
   -6.4673   -0.9468    1.9123 C   0  0  0  0  0  0  0  0  0  0  0  0
   -5.8342   -0.1063    0.8288 C   0  0  0  0  0  0  0  0  0  0  0  0
   -4.4529   -0.3394    0.7105 O   0  0  0  0  0  0  0  0  0  0  0  0
   -3.9888   -1.6109    0.4038 C   0  0  0  0  0  0  0  0  0  0  0  0
   -4.8686   -2.6756    0.2078 C   0  0  0  0  0  0  0  0  0  0  0  0
   -4.4053   -3.9350   -0.0962 C   0  0  0  0  0  0  0  0  0  0  0  0
   -3.0498   -4.1291   -0.2046 C   0  0  0  0  0  0  0  0  0  0  0  0
   -2.1996   -3.0637   -0.0070 C   0  0  0  0  0  0  0  0  0  0  0  0
   -2.6265   -1.7888    0.2987 C   0  0  0  0  0  0  0  0  0  0  0  0
   -1.7717   -0.6786    0.5061 N   0  0  0  0  0  0  0  0  0  0  0  0
   -0.3721   -0.8601    0.3984 C   0  0  0  0  0  0  0  0  0  0  0  0
    0.0256   -2.0161    0.1207 O   0  0  0  0  0  0  0  0  0  0  0  0
    0.5837    0.2442    0.5996 C   0  0  0  0  0  0  0  0  0  0  0  0
    1.9278    0.0127    0.4834 C   0  0  0  0  0  0  0  0  0  0  0  0
    2.6101   -1.2128    0.1808 N   0  0  0  0  0  0  0  0  0  0  0  0
    4.0364   -1.3134    0.0815 C   0  0  0  0  0  0  0  0  0  0  0  0
    4.4966   -0.4413   -1.0233 C   0  0  0  0  0  0  0  0  0  0  0  0
    5.0090    0.7947   -0.7561 C   0  0  0  0  0  0  0  0  0  0  0  0
    5.4460    1.6257   -1.7909 C   0  0  0  0  0  0  0  0  0  0  0  0
    5.3246    1.1193   -3.0610 C   0  0  0  0  0  0  0  0  0  0  0  0
    4.8186   -0.0960   -3.2942 N   0  0  0  0  0  0  0  0  0  0  0  0
    4.3894   -0.9172   -2.3068 C   0  0  0  0  0  0  0  0  0  0  0  0
    2.6212    1.5605    0.7963 S   0  0  0  0  0  0  0  0  0  0  0  0
    1.1865    2.4352    1.0608 C   0  0  0  0  0  0  0  0  0  0  0  0
    0.2056    1.4975    0.8981 C   0  0  0  0  0  0  0  0  0  0  0  0
   -1.2559    1.8837    1.0546 C   0  0  0  0  0  0  0  0  0  0  0  0
   -1.6109    2.7214   -0.1464 C   0  0  0  0  0  0  0  0  0  0  0  0
   -0.6840    3.9075   -0.2995 C   0  0  0  0  0  0  0  0  0  0  0  0
   -0.2396    4.4427    1.0565 C   0  0  0  0  0  0  0  0  0  0  0  0
    1.1459    3.8862    1.3872 C   0  0  0  0  0  0  0  0  0  0  0  0
  1  2  1  0
  2  3  1  0
  3  4  1  0
  4  5  2  0
  5  6  1  0
  6  7  2  0
  7  8  1  0
  8  9  2  0
  9 10  1  0
 10 11  1  0
 11 12  2  0
 11 13  1  0
 13 14  2  0
 14 15  1  0
 15 16  1  0
 16 17  1  0
 17 18  2  0
 18 19  1  0
 19 20  2  0
 20 21  1  0
 21 22  2  0
 14 23  1  0
 23 24  1  0
 24 25  2  0
 25 26  1  0
 26 27  1  0
 27 28  1  0
 28 29  1  0
 29 30  1  0
  9  4  1  0
 25 13  1  0
 22 17  1  0
 30 24  1  0
M  END
>  <zinc_id>  (1) 
ZINC000000920935

>  <smiles>  (1) 
CCOc1ccccc1NC(=O)c1c(NCc2cccnc2)sc2c1CCCCC2

$$$$
