
     RDKit          3D

 30 33  0  0  0  0  0  0  0  0999 V2000
    5.1728    0.5217    4.2005 C   0  0  0  0  0  0  0  0  0  0  0  0
    4.6183    0.0394    3.0091 O   0  0  0  0  0  0  0  0  0  0  0  0
    5.3811   -0.3601    1.9119 C   0  0  0  0  0  0  0  0  0  0  0  0
    6.7537   -0.3075    1.9237 C   0  0  0  0  0  0  0  0  0  0  0  0
    7.4499   -0.7149    0.8130 C   0  0  0  0  0  0  0  0  0  0  0  0
    6.7994   -1.1769   -0.3172 C   0  0  0  0  0  0  0  0  0  0  0  0
    5.4155   -1.2179   -0.2984 C   0  0  0  0  0  0  0  0  0  0  0  0
    4.6948   -0.8159    0.8010 C   0  0  0  0  0  0  0  0  0  0  0  0
    3.1923   -0.8620    0.8137 C   0  0  0  0  0  0  0  0  0  0  0  0
    2.6661    0.5572    0.6247 C   0  0  0  0  0  0  0  0  0  0  0  0
    1.2344    0.5131    0.6408 N   0  0  0  0  0  0  0  0  0  0  0  0
    0.4668   -0.2381   -0.2846 C   0  0  0  0  0  0  0  0  0  0  0  0
    1.0737   -0.8972   -1.1612 O   0  0  0  0  0  0  0  0  0  0  0  0
   -0.9797   -0.2658   -0.2469 C   0  0  0  0  0  0  0  0  0  0  0  0
   -1.7670    0.4411    0.6746 C   0  0  0  0  0  0  0  0  0  0  0  0
   -1.2268    1.3236    1.7436 C   0  0  0  0  0  0  0  0  0  0  0  0
   -3.0303    0.1424    0.3691 N   0  0  0  0  0  0  0  0  0  0  0  0
   -4.1916    0.6545    1.0631 C   0  0  0  0  0  0  0  0  0  0  0  0
   -4.5587    1.9253    0.3342 C   0  0  0  0  0  0  0  0  0  0  0  0
   -4.1223    3.1880    0.5917 C   0  0  0  0  0  0  0  0  0  0  0  0
   -4.5766    4.1746   -0.1842 C   0  0  0  0  0  0  0  0  0  0  0  0
   -5.4476    3.8434   -1.1812 C   0  0  0  0  0  0  0  0  0  0  0  0
   -5.5996    2.1552   -0.9952 S   0  0  0  0  0  0  0  0  0  0  0  0
   -3.0821   -0.7002   -0.6770 C   0  0  0  0  0  0  0  0  0  0  0  0
   -4.1339   -1.2883   -1.3539 C   0  0  0  0  0  0  0  0  0  0  0  0
   -3.8713   -2.1293   -2.4148 C   0  0  0  0  0  0  0  0  0  0  0  0
   -2.5868   -2.4138   -2.8362 C   0  0  0  0  0  0  0  0  0  0  0  0
   -2.4124   -3.2739   -3.9165 O   0  0  0  0  0  0  0  0  0  0  0  0
   -1.5358   -1.8330   -2.1682 C   0  0  0  0  0  0  0  0  0  0  0  0
   -1.7963   -0.9848   -1.0987 C   0  0  0  0  0  0  0  0  0  0  0  0
  1  2  1  0
  2  3  1  0
  3  4  2  0
  4  5  1  0
  5  6  2  0
  6  7  1  0
  7  8  2  0
  8  9  1  0
  9 10  1  0
 10 11  1  0
 11 12  1  0
 12 13  2  0
 12 14  1  0
 14 15  2  0
 15 16  1  0
 15 17  1  0
 17 18  1  0
 18 19  1  0
 19 20  2  0
 20 21  1  0
 21 22  2  0
 22 23  1  0
 17 24  1  0
 24 25  2  0
 25 26  1  0
 26 27  2  0
 27 28  1  0
 27 29  1  0
 29 30  2  0
  8  3  1  0
 30 14  1  0
 23 19  1  0
 30 24  1  0
M  END
>  <zinc_id>  (1) 
ZINC000000762033

>  <smiles>  (1) 
COc1ccccc1CCNC(=O)c1c(C)n(Cc2cccs2)c2ccc(O)cc12

$$$$
