
     RDKit          3D

 30 33  0  0  0  0  0  0  0  0999 V2000
    7.3728   -1.6580    2.6807 C   0  0  0  0  0  0  0  0  0  0  0  0
    6.3801   -1.1062    1.8031 O   0  0  0  0  0  0  0  0  0  0  0  0
    6.5007   -1.2208    0.4422 C   0  0  0  0  0  0  0  0  0  0  0  0
    7.5268   -1.8356   -0.0087 O   0  0  0  0  0  0  0  0  0  0  0  0
    5.5191   -0.6776   -0.5089 C   0  0  0  0  0  0  0  0  0  0  0  0
    5.7115   -0.8436   -1.8630 C   0  0  0  0  0  0  0  0  0  0  0  0
    4.8341   -0.3527   -2.8084 C   0  0  0  0  0  0  0  0  0  0  0  0
    3.7275    0.3270   -2.3828 C   0  0  0  0  0  0  0  0  0  0  0  0
    2.7415    0.8969   -3.0974 N   0  0  0  0  0  0  0  0  0  0  0  0
    1.8861    1.4464   -2.2091 C   0  0  0  0  0  0  0  0  0  0  0  0
    2.3299    1.2243   -0.9379 C   0  0  0  0  0  0  0  0  0  0  0  0
    1.6629    1.6648    0.2928 C   0  0  0  0  0  0  0  0  0  0  0  0
    0.9119    0.5747    0.9934 C   0  0  0  0  0  0  0  0  0  0  0  0
   -0.1863   -0.0047    0.1161 C   0  0  0  0  0  0  0  0  0  0  0  0
   -1.1843    1.1023   -0.2613 C   0  0  0  0  0  0  0  0  0  0  0  0
   -1.7438    1.6184    0.9683 N   0  0  0  0  0  0  0  0  0  0  0  0
   -2.6584    2.6996    0.6761 C   0  0  0  0  0  0  0  0  0  0  0  0
   -3.7480    2.1665   -0.2254 C   0  0  0  0  0  0  0  0  0  0  0  0
   -4.4840    1.0890    0.5875 C   0  0  0  0  0  0  0  0  0  0  0  0
   -3.3780   -0.1531    0.4500 C   0  0  2  0  0  0  0  0  0  0  0  0
   -4.1645   -1.1130    1.5266 C   0  0  0  0  0  0  0  0  0  0  0  0
   -5.5034   -1.3363    0.9885 C   0  0  0  0  0  0  0  0  0  0  0  0
   -6.4908   -0.4213    1.3764 C   0  0  0  0  0  0  0  0  0  0  0  0
   -7.7988   -0.5141    0.9397 C   0  0  0  0  0  0  0  0  0  0  0  0
   -8.1579   -1.5201    0.1051 C   0  0  0  0  0  0  0  0  0  0  0  0
   -7.2198   -2.4470   -0.3051 C   0  0  0  0  0  0  0  0  0  0  0  0
   -5.8917   -2.3480    0.1418 C   0  0  0  0  0  0  0  0  0  0  0  0
   -2.4137    0.5062    1.6324 C   0  0  0  0  0  0  0  0  0  0  0  0
    3.5118    0.5066   -1.0309 C   0  0  0  0  0  0  0  0  0  0  0  0
    4.4065    0.0054   -0.0819 C   0  0  0  0  0  0  0  0  0  0  0  0
  1  2  1  0
  2  3  1  0
  3  4  2  0
  3  5  1  0
  5  6  2  0
  6  7  1  0
  7  8  2  0
  8  9  1  0
  9 10  1  0
 10 11  2  0
 11 12  1  0
 12 13  1  0
 13 14  1  0
 14 15  1  0
 15 16  1  0
 16 17  1  0
 17 18  1  0
 18 19  1  0
 19 20  1  0
 20 21  1  1
 21 22  1  0
 22 23  2  0
 23 24  1  0
 24 25  2  0
 25 26  1  0
 26 27  2  0
 20 28  1  0
 11 29  1  0
 29 30  2  0
 30  5  1  0
 29  8  1  0
 28 16  1  0
 27 22  1  0
M  END
>  <zinc_id>  (1) 
ZINC000003921526

>  <smiles>  (1) 
COC(=O)c1ccc2[nH]cc(CCCCN3CCC[C@H](Cc4ccccc4)C3)c2c1

$$$$
