
     RDKit          3D

 30 33  0  0  0  0  0  0  0  0999 V2000
   -5.7354   -2.2733    2.4884 C   0  0  0  0  0  0  0  0  0  0  0  0
   -4.6919   -1.3021    1.9893 C   0  0  0  0  0  0  0  0  0  0  0  0
   -4.9263   -1.0955    0.5242 C   0  0  0  0  0  0  0  0  0  0  0  0
   -3.9798   -0.1726   -0.0844 N   0  0  0  0  0  0  0  0  0  0  0  0
   -2.8094   -0.4445   -0.6482 C   0  0  0  0  0  0  0  0  0  0  0  0
   -2.2308   -1.8961   -0.7591 C   0  0  2  0  0  0  0  0  0  0  0  0
   -2.4794   -2.2781    0.6776 O   0  0  0  0  0  0  0  0  0  0  0  0
   -0.6848   -1.5406   -0.5486 C   0  0  0  0  0  0  0  0  0  0  0  0
    0.0887   -2.3836    0.1836 C   0  0  0  0  0  0  0  0  0  0  0  0
    1.4218   -2.0374    0.3289 C   0  0  0  0  0  0  0  0  0  0  0  0
    1.9403   -0.8853   -0.2461 C   0  0  0  0  0  0  0  0  0  0  0  0
    3.2555   -0.5100   -0.1238 O   0  0  0  0  0  0  0  0  0  0  0  0
    4.1769   -1.3179    0.6266 C   0  0  0  0  0  0  0  0  0  0  0  0
    5.5398   -0.6566    0.5842 C   0  0  0  0  0  0  0  0  0  0  0  0
    6.4367   -0.9547   -0.4107 C   0  0  0  0  0  0  0  0  0  0  0  0
    7.6599   -0.3373   -0.4173 C   0  0  0  0  0  0  0  0  0  0  0  0
    8.0561    0.5824    0.5298 C   0  0  0  0  0  0  0  0  0  0  0  0
    7.1310    0.8593    1.5157 C   0  0  0  0  0  0  0  0  0  0  0  0
    5.8994    0.2555    1.5459 C   0  0  0  0  0  0  0  0  0  0  0  0
    1.1144   -0.0572   -0.9833 C   0  0  0  0  0  0  0  0  0  0  0  0
    1.6174    1.1069   -1.5699 O   0  0  0  0  0  0  0  0  0  0  0  0
    0.7717    1.9360   -2.3130 C   0  0  0  0  0  0  0  0  0  0  0  0
   -0.2139   -0.3998   -1.1295 C   0  0  0  0  0  0  0  0  0  0  0  0
   -2.2868    0.6795   -1.0647 N   0  0  0  0  0  0  0  0  0  0  0  0
   -3.1254    1.7195   -0.7728 C   0  0  0  0  0  0  0  0  0  0  0  0
   -3.0812    3.0804   -0.9757 C   0  0  0  0  0  0  0  0  0  0  0  0
   -4.1369    3.8612   -0.5382 C   0  0  0  0  0  0  0  0  0  0  0  0
   -5.2377    3.3289    0.0963 C   0  0  0  0  0  0  0  0  0  0  0  0
   -5.2651    1.9661    0.2908 C   0  0  0  0  0  0  0  0  0  0  0  0
   -4.2245    1.1670   -0.1365 C   0  0  0  0  0  0  0  0  0  0  0  0
  1  2  1  0
  2  3  1  0
  3  4  1  0
  4  5  1  0
  5  6  1  0
  6  7  1  1
  6  8  1  0
  8  9  2  0
  9 10  1  0
 10 11  2  0
 11 12  1  0
 12 13  1  0
 13 14  1  0
 14 15  2  0
 15 16  1  0
 16 17  2  0
 17 18  1  0
 18 19  2  0
 11 20  1  0
 20 21  1  0
 21 22  1  0
 20 23  2  0
  5 24  2  0
 24 25  1  0
 25 26  2  0
 26 27  1  0
 27 28  2  0
 28 29  1  0
 29 30  2  0
 30  4  1  0
 23  8  1  0
 30 25  1  0
 19 14  1  0
M  END
>  <zinc_id>  (1) 
ZINC000000709231

>  <smiles>  (1) 
CCCn1c([C@H](O)c2ccc(OCc3ccccc3)c(OC)c2)nc2ccccc21

$$$$
