
     RDKit          3D

 32 36  0  0  0  0  0  0  0  0999 V2000
    3.6926    2.1487   -0.2216 C   0  0  0  0  0  0  0  0  0  0  0  0
    3.8893    0.9419    0.9117 C   0  0  1  0  0  0  0  0  0  0  0  0
    3.5702   -0.2451   -0.1763 C   0  0  0  0  0  0  0  0  0  0  0  0
    2.2346    0.0447   -0.6365 N   0  0  0  0  0  0  0  0  0  0  0  0
    1.8127   -0.9455   -1.5907 C   0  0  0  0  0  0  0  0  0  0  0  0
    1.4685   -2.2471   -0.8851 C   0  0  0  0  0  0  0  0  0  0  0  0
    0.3594   -1.9629    0.1142 C   0  0  0  0  0  0  0  0  0  0  0  0
   -0.6582   -1.0449   -0.5840 C   0  0  0  0  0  0  0  0  0  0  0  0
   -1.2129   -1.7297   -1.8056 C   0  0  0  0  0  0  0  0  0  0  0  0
   -1.9036   -2.9951   -1.3788 C   0  0  0  0  0  0  0  0  0  0  0  0
   -3.0291   -2.7636   -0.4713 C   0  0  0  0  0  0  0  0  0  0  0  0
   -3.7094   -3.7766    0.2062 C   0  0  0  0  0  0  0  0  0  0  0  0
   -4.6541   -3.1931    0.9182 N   0  0  0  0  0  0  0  0  0  0  0  0
   -4.6438   -1.8534    0.7561 C   0  0  0  0  0  0  0  0  0  0  0  0
   -5.4370   -0.8528    1.2948 C   0  0  0  0  0  0  0  0  0  0  0  0
   -5.1775    0.4537    0.9302 C   0  0  0  0  0  0  0  0  0  0  0  0
   -4.1586    0.7435    0.0564 C   0  0  0  0  0  0  0  0  0  0  0  0
   -3.9344    2.1047   -0.2803 N   0  0  0  0  0  0  0  0  0  0  0  0
   -4.5363    3.1902    0.1810 C   0  0  0  0  0  0  0  0  0  0  0  0
   -4.0007    4.2848   -0.4181 N   0  0  0  0  0  0  0  0  0  0  0  0
   -3.0701    3.8614   -1.2461 N   0  0  0  0  0  0  0  0  0  0  0  0
   -3.0250    2.5178   -1.1651 C   0  0  0  0  0  0  0  0  0  0  0  0
   -3.3904   -0.2664   -0.4610 C   0  0  0  0  0  0  0  0  0  0  0  0
   -3.6180   -1.5766   -0.1217 C   0  0  0  0  0  0  0  0  0  0  0  0
    1.0125   -1.0380    1.1576 C   0  0  0  0  0  0  0  0  0  0  0  0
    1.2898    0.2548    0.4128 C   0  0  0  0  0  0  0  0  0  0  0  0
    5.4481    0.9069    0.7836 C   0  0  0  0  0  0  0  0  0  0  0  0
    6.1410   -0.1227    0.2819 C   0  0  0  0  0  0  0  0  0  0  0  0
    7.5111   -0.0598    0.2173 C   0  0  0  0  0  0  0  0  0  0  0  0
    8.1644    1.0581    0.6669 C   0  0  0  0  0  0  0  0  0  0  0  0
    7.4861    2.1336    1.1878 C   0  0  0  0  0  0  0  0  0  0  0  0
    6.0784    2.0287    1.2365 C   0  0  0  0  0  0  0  0  0  0  0  0
  2  1  1  6
  2  3  1  0
  3  4  1  0
  4  5  1  0
  5  6  1  0
  6  7  1  0
  7  8  1  0
  8  9  1  0
  9 10  1  0
 10 11  1  0
 11 12  2  0
 12 13  1  0
 13 14  1  0
 14 15  2  0
 15 16  1  0
 16 17  2  0
 17 18  1  0
 18 19  1  0
 19 20  2  0
 20 21  1  0
 21 22  2  0
 17 23  1  0
 23 24  2  0
  7 25  1  0
 25 26  1  0
  2 27  1  0
 27 28  2  0
 28 29  1  0
 29 30  2  0
 30 31  1  0
 31 32  2  0
 26  4  1  0
 32 27  1  0
 24 11  1  0
 24 14  1  0
 22 18  1  0
M  END
>  <zinc_id>  (1) 
ZINC000003827594

>  <smiles>  (1) 
C[C@@H](CN1CCC(CCCc2c[nH]c3ccc(-n4cnnc4)cc23)CC1)c1ccccc1

$$$$
