
     RDKit          3D

 31 34  0  0  0  0  0  0  0  0999 V2000
   -6.7345    3.3551   -1.9274 C   0  0  0  0  0  0  0  0  0  0  0  0
   -5.7498    3.0723   -0.8071 C   0  0  0  0  0  0  0  0  0  0  0  0
   -4.9302    4.2927   -0.5740 C   0  0  0  0  0  0  0  0  0  0  0  0
   -3.9262    4.1756    0.4858 C   0  0  0  0  0  0  0  0  0  0  0  0
   -2.9485    3.2244    0.3375 O   0  0  0  0  0  0  0  0  0  0  0  0
   -3.0105    1.8623    0.2708 C   0  0  0  0  0  0  0  0  0  0  0  0
   -4.1402    1.3224    0.3621 O   0  0  0  0  0  0  0  0  0  0  0  0
   -1.8227    1.0200    0.0990 C   0  0  0  0  0  0  0  0  0  0  0  0
   -0.5216    1.4575   -0.0160 C   0  0  0  0  0  0  0  0  0  0  0  0
   -0.0173    2.7851    0.0016 N   0  0  0  0  0  0  0  0  0  0  0  0
    0.2654    0.3611   -0.1588 N   0  0  0  0  0  0  0  0  0  0  0  0
    1.7061    0.3069   -0.3152 C   0  0  0  0  0  0  0  0  0  0  0  0
    2.3991    0.2120    1.0084 C   0  0  0  0  0  0  0  0  0  0  0  0
    3.8588    0.1596    0.7976 C   0  0  0  0  0  0  0  0  0  0  0  0
    4.5528    1.3550    0.7648 C   0  0  0  0  0  0  0  0  0  0  0  0
    5.9149    1.3978    0.5732 C   0  0  0  0  0  0  0  0  0  0  0  0
    6.6210    0.2133    0.4073 C   0  0  0  0  0  0  0  0  0  0  0  0
    7.9994    0.3258    0.2172 O   0  0  0  0  0  0  0  0  0  0  0  0
    8.7369   -0.8655    0.0465 C   0  0  0  0  0  0  0  0  0  0  0  0
    5.9535   -0.9766    0.4367 C   0  0  0  0  0  0  0  0  0  0  0  0
    4.5833   -0.9906    0.6310 C   0  0  0  0  0  0  0  0  0  0  0  0
   -0.5326   -0.7348   -0.1327 C   0  0  0  0  0  0  0  0  0  0  0  0
   -0.2557   -2.0476   -0.2328 N   0  0  0  0  0  0  0  0  0  0  0  0
   -1.2322   -2.9969   -0.1799 C   0  0  0  0  0  0  0  0  0  0  0  0
   -0.9145   -4.3411   -0.2860 C   0  0  0  0  0  0  0  0  0  0  0  0
   -1.8929   -5.3107   -0.2340 C   0  0  0  0  0  0  0  0  0  0  0  0
   -3.1988   -4.8995   -0.0728 C   0  0  0  0  0  0  0  0  0  0  0  0
   -3.5064   -3.5598    0.0320 C   0  0  0  0  0  0  0  0  0  0  0  0
   -2.5301   -2.5616   -0.0182 C   0  0  0  0  0  0  0  0  0  0  0  0
   -2.8634   -1.2629    0.0871 N   0  0  0  0  0  0  0  0  0  0  0  0
   -1.8630   -0.3512    0.0296 C   0  0  0  0  0  0  0  0  0  0  0  0
  1  2  1  0
  2  3  1  0
  3  4  1  0
  4  5  1  0
  5  6  1  0
  6  7  2  0
  6  8  1  0
  8  9  2  0
  9 10  1  0
  9 11  1  0
 11 12  1  0
 12 13  1  0
 13 14  1  0
 14 15  2  0
 15 16  1  0
 16 17  2  0
 17 18  1  0
 18 19  1  0
 17 20  1  0
 20 21  2  0
 11 22  1  0
 22 23  2  0
 23 24  1  0
 24 25  2  0
 25 26  1  0
 26 27  2  0
 27 28  1  0
 28 29  2  0
 29 30  1  0
 30 31  2  0
 31  8  1  0
 21 14  1  0
 31 22  1  0
 29 24  1  0
M  END
>  <zinc_id>  (1) 
ZINC000002284317

>  <smiles>  (1) 
CCCCOC(=O)c1c(N)n(CCc2ccc(OC)cc2)c2nc3ccccc3nc12

$$$$
