
     RDKit          3D

 34 38  0  0  0  0  0  0  0  0999 V2000
    3.1714   -2.0197   -2.6553 C   0  0  0  0  0  0  0  0  0  0  0  0
    3.5065   -1.1179   -1.5009 C   0  0  0  0  0  0  0  0  0  0  0  0
    4.0806    0.0950   -1.5399 N   0  0  0  0  0  0  0  0  0  0  0  0
    4.1890    0.5286   -0.2619 C   0  0  0  0  0  0  0  0  0  0  0  0
    4.6871    1.6783    0.3166 C   0  0  0  0  0  0  0  0  0  0  0  0
    4.6538    1.8272    1.6971 C   0  0  0  0  0  0  0  0  0  0  0  0
    4.1379    0.8655    2.5393 C   0  0  0  0  0  0  0  0  0  0  0  0
    3.6380   -0.2886    1.9560 C   0  0  0  0  0  0  0  0  0  0  0  0
    3.6706   -0.4391    0.5731 C   0  0  0  0  0  0  0  0  0  0  0  0
    3.2595   -1.4392   -0.2264 N   0  0  0  0  0  0  0  0  0  0  0  0
    2.6449   -2.6686    0.2968 C   0  0  0  0  0  0  0  0  0  0  0  0
    1.0270   -2.3078    0.3422 C   0  0  2  0  0  0  0  0  0  0  0  0
    0.6465   -3.6794    0.8891 O   0  0  0  0  0  0  0  0  0  0  0  0
    0.7863   -2.7628   -1.2304 C   0  0  0  0  0  0  0  0  0  0  0  0
   -0.5660   -3.1403   -1.2786 O   0  0  0  0  0  0  0  0  0  0  0  0
   -1.6029   -2.2807   -0.9700 C   0  0  0  0  0  0  0  0  0  0  0  0
   -2.8913   -2.7576   -1.0525 C   0  0  0  0  0  0  0  0  0  0  0  0
   -3.9540   -1.9543   -0.7592 C   0  0  0  0  0  0  0  0  0  0  0  0
   -3.7774   -0.6526   -0.3748 C   0  0  0  0  0  0  0  0  0  0  0  0
   -4.9452    0.1965   -0.0635 C   0  0  0  0  0  0  0  0  0  0  0  0
   -4.8432    0.8171    1.3260 C   0  0  0  0  0  0  0  0  0  0  0  0
   -6.1927   -0.6649   -0.1133 C   0  0  0  0  0  0  0  0  0  0  0  0
   -4.9763    1.3000   -1.0513 C   0  0  0  0  0  0  0  0  0  0  0  0
   -5.2186    0.9615   -2.3759 C   0  0  0  0  0  0  0  0  0  0  0  0
   -5.2628    1.9190   -3.3526 C   0  0  0  0  0  0  0  0  0  0  0  0
   -5.0616    3.2320   -2.9953 C   0  0  0  0  0  0  0  0  0  0  0  0
   -4.8189    3.6017   -1.6905 C   0  0  0  0  0  0  0  0  0  0  0  0
   -4.7767    2.6225   -0.7112 C   0  0  0  0  0  0  0  0  0  0  0  0
   -2.4727   -0.1745   -0.2929 C   0  0  0  0  0  0  0  0  0  0  0  0
   -1.4157   -0.9808   -0.5866 C   0  0  0  0  0  0  0  0  0  0  0  0
    4.1301    1.0675    3.9167 O   0  0  0  0  0  0  0  0  0  0  0  0
    4.2068    2.4037    4.4383 C   0  0  0  0  0  0  0  0  0  0  0  0
    5.1873    3.2342    3.6562 C   0  0  0  0  0  0  0  0  0  0  0  0
    5.1528    2.9786    2.2746 O   0  0  0  0  0  0  0  0  0  0  0  0
  1  2  1  0
  2  3  2  0
  3  4  1  0
  4  5  2  0
  5  6  1  0
  6  7  2  0
  7  8  1  0
  8  9  2  0
  9 10  1  0
 10 11  1  0
 11 12  1  0
 12 13  1  1
 12 14  1  0
 14 15  1  0
 15 16  1  0
 16 17  2  0
 17 18  1  0
 18 19  2  0
 19 20  1  0
 20 21  1  0
 20 22  1  0
 20 23  1  0
 23 24  2  0
 24 25  1  0
 25 26  2  0
 26 27  1  0
 27 28  2  0
 19 29  1  0
 29 30  2  0
  7 31  1  0
 31 32  1  0
 32 33  1  0
 33 34  1  0
 10  2  1  0
 30 16  1  0
  9  4  1  0
 28 23  1  0
 34  6  1  0
M  END
>  <zinc_id>  (1) 
ZINC000002631312

>  <smiles>  (1) 
Cc1nc2cc3c(cc2n1C[C@H](O)COc1ccc(C(C)(C)c2ccccc2)cc1)OCCO3

$$$$
