
     RDKit          3D

 32 36  0  0  0  0  0  0  0  0999 V2000
    4.7972   -1.4600    1.3004 C   0  0  0  0  0  0  0  0  0  0  0  0
    5.8793   -0.6129    0.6513 C   0  0  0  0  0  0  0  0  0  0  0  0
    5.5187   -0.3920   -0.8243 N   0  0  0  0  0  0  0  0  0  0  0  0
    6.7999    0.3392   -1.2285 C   0  0  0  0  0  0  0  0  0  0  0  0
    6.6130    0.8951   -2.6176 C   0  0  0  0  0  0  0  0  0  0  0  0
    4.5640    0.7714   -0.7329 C   0  0  0  0  0  0  0  0  0  0  0  0
    3.3786    0.4362    0.0790 C   0  0  0  0  0  0  0  0  0  0  0  0
    2.3203   -0.3631   -0.1542 C   0  0  0  0  0  0  0  0  0  0  0  0
    1.2128   -0.4118    0.7186 C   0  0  0  0  0  0  0  0  0  0  0  0
    0.0892   -1.1297    0.4220 N   0  0  0  0  0  0  0  0  0  0  0  0
   -1.2097   -1.0581    0.1079 C   0  0  0  0  0  0  0  0  0  0  0  0
   -1.9189   -2.2513   -0.1729 C   0  0  0  0  0  0  0  0  0  0  0  0
   -1.2681   -3.4542   -0.1085 C   0  0  0  0  0  0  0  0  0  0  0  0
   -1.9480   -4.6495   -0.3874 C   0  0  0  0  0  0  0  0  0  0  0  0
   -3.2685   -4.6134   -0.7267 C   0  0  0  0  0  0  0  0  0  0  0  0
   -3.9419   -3.4162   -0.7967 C   0  0  0  0  0  0  0  0  0  0  0  0
   -3.2497   -2.2702   -0.5195 C   0  0  0  0  0  0  0  0  0  0  0  0
   -3.9271   -1.1121   -0.5957 N   0  0  0  0  0  0  0  0  0  0  0  0
   -3.3480    0.0424   -0.3482 C   0  0  0  0  0  0  0  0  0  0  0  0
   -3.8751    1.3206   -0.3612 C   0  0  0  0  0  0  0  0  0  0  0  0
   -5.1036    1.9063   -0.5767 C   0  0  0  0  0  0  0  0  0  0  0  0
   -5.2656    3.2371   -0.4468 C   0  0  0  0  0  0  0  0  0  0  0  0
   -4.2425    4.1090   -0.1074 C   0  0  0  0  0  0  0  0  0  0  0  0
   -3.0280    3.5125    0.1028 C   0  0  0  0  0  0  0  0  0  0  0  0
   -2.8519    2.1408   -0.0221 C   0  0  0  0  0  0  0  0  0  0  0  0
   -1.7632    1.3835    0.1893 N   0  0  0  0  0  0  0  0  0  0  0  0
   -0.4881    2.0088    0.5344 C   0  0  0  0  0  0  0  0  0  0  0  0
   -1.9787    0.1000    0.0094 C   0  0  0  0  0  0  0  0  0  0  0  0
    1.2633    0.3932    1.8255 C   0  0  0  0  0  0  0  0  0  0  0  0
    2.3402    1.2362    2.0941 C   0  0  0  0  0  0  0  0  0  0  0  0
    3.3913    1.2847    1.2661 C   0  0  0  0  0  0  0  0  0  0  0  0
    4.5087    2.0775    1.4265 O   0  0  0  0  0  0  0  0  0  0  0  0
  1  2  1  0
  2  3  1  0
  3  4  1  0
  4  5  1  0
  3  6  1  0
  6  7  1  0
  7  8  2  0
  8  9  1  0
  9 10  1  0
 10 11  1  0
 11 12  1  0
 12 13  2  0
 13 14  1  0
 14 15  2  0
 15 16  1  0
 16 17  2  0
 17 18  1  0
 18 19  2  0
 19 20  1  0
 20 21  2  0
 21 22  1  0
 22 23  2  0
 23 24  1  0
 24 25  2  0
 25 26  1  0
 26 27  1  0
 26 28  1  0
  9 29  2  0
 29 30  1  0
 30 31  2  0
 31 32  1  0
 31  7  1  0
 28 11  2  0
 17 12  1  0
 28 19  1  0
 25 20  1  0
M  END
>  <zinc_id>  (1) 
ZINC000001631690

>  <smiles>  (1) 
CCN(CC)Cc1cc(Nc2c3ccccc3nc3c4ccccc4n(C)c23)ccc1O

$$$$
