
     RDKit          3D

 34 39  0  0  0  0  0  0  0  0999 V2000
   -0.5234    6.1354    0.7559 O   0  0  0  0  0  0  0  0  0  0  0  0
   -0.9507    4.8833    0.2593 C   0  0  0  0  0  0  0  0  0  0  0  0
   -1.0675    4.6805   -1.0975 C   0  0  0  0  0  0  0  0  0  0  0  0
   -1.4942    3.4287   -1.5864 C   0  0  0  0  0  0  0  0  0  0  0  0
   -1.7817    2.4453   -0.6821 C   0  0  0  0  0  0  0  0  0  0  0  0
   -1.6817    2.6036    0.6117 C   0  0  0  0  0  0  0  0  0  0  0  0
   -1.2532    3.8591    1.1160 C   0  0  0  0  0  0  0  0  0  0  0  0
   -2.0555    1.3834    1.2563 C   0  0  0  0  0  0  0  0  0  0  0  0
   -2.1210    1.0216    2.6215 C   0  0  0  0  0  0  0  0  0  0  0  0
   -2.5167   -0.2411    3.0124 C   0  0  0  0  0  0  0  0  0  0  0  0
   -2.8622   -1.1889    2.0391 C   0  0  0  0  0  0  0  0  0  0  0  0
   -3.2614   -2.4620    2.4161 C   0  0  0  0  0  0  0  0  0  0  0  0
   -3.5917   -3.3626    1.4235 C   0  0  0  0  0  0  0  0  0  0  0  0
   -3.9999   -4.6611    1.7850 O   0  0  0  0  0  0  0  0  0  0  0  0
   -3.5395   -3.0455    0.0872 C   0  0  0  0  0  0  0  0  0  0  0  0
   -3.1355   -1.7608   -0.2635 C   0  0  0  0  0  0  0  0  0  0  0  0
   -2.8014   -0.8455    0.7085 C   0  0  0  0  0  0  0  0  0  0  0  0
   -2.3936    0.4423    0.4202 C   0  0  0  0  0  0  0  0  0  0  0  0
   -2.2685    1.0121   -1.0911 C   0  0  2  0  0  0  0  0  0  0  0  0
   -0.8388    0.3456   -1.3849 C   0  0  0  0  0  0  0  0  0  0  0  0
   -0.8861   -0.9300   -1.8921 C   0  0  0  0  0  0  0  0  0  0  0  0
    0.2876   -1.5894   -2.1792 C   0  0  0  0  0  0  0  0  0  0  0  0
    1.5110   -0.9488   -1.9495 C   0  0  0  0  0  0  0  0  0  0  0  0
    2.7116   -1.6067   -2.2374 O   0  0  0  0  0  0  0  0  0  0  0  0
    3.9066   -0.8970   -1.9794 C   0  0  0  0  0  0  0  0  0  0  0  0
    4.0087   -0.5374   -0.5168 C   0  0  0  0  0  0  0  0  0  0  0  0
    3.9933   -1.7719    0.2375 N   0  0  0  0  0  0  0  0  0  0  0  0
    5.2314   -2.4964   -0.0363 C   0  0  0  0  0  0  0  0  0  0  0  0
    6.3692   -1.5347    0.3127 C   0  0  0  0  0  0  0  0  0  0  0  0
    6.3423   -1.4004    1.8314 C   0  0  0  0  0  0  0  0  0  0  0  0
    5.0258   -0.7356    2.2157 C   0  0  0  0  0  0  0  0  0  0  0  0
    3.8441   -1.5264    1.6630 C   0  0  0  0  0  0  0  0  0  0  0  0
    1.4881    0.3289   -1.4397 C   0  0  0  0  0  0  0  0  0  0  0  0
    0.3045    0.9723   -1.1589 C   0  0  0  0  0  0  0  0  0  0  0  0
  1  2  1  0
  2  3  2  0
  3  4  1  0
  4  5  2  0
  5  6  1  0
  6  7  2  0
  6  8  1  0
  8  9  2  0
  9 10  1  0
 10 11  2  0
 11 12  1  0
 12 13  2  0
 13 14  1  0
 13 15  1  0
 15 16  2  0
 16 17  1  0
 17 18  2  0
 18 19  1  0
 19 20  1  6
 20 21  2  0
 21 22  1  0
 22 23  2  0
 23 24  1  0
 24 25  1  0
 25 26  1  0
 26 27  1  0
 27 28  1  0
 28 29  1  0
 29 30  1  0
 30 31  1  0
 31 32  1  0
 23 33  1  0
 33 34  2  0
  7  2  1  0
 18  8  1  0
 34 20  1  0
 19  5  1  0
 32 27  1  0
 17 11  1  0
M  END
>  <zinc_id>  (1) 
ZINC000003985801

>  <smiles>  (1) 
Oc1ccc2c(c1)-c1ccc3cc(O)ccc3c1[C@@H]2c1ccc(OCCN2CCCCC2)cc1

$$$$
