
     RDKit          3D

 31 34  0  0  0  0  0  0  0  0999 V2000
    5.8488    1.2928    1.2069 C   0  0  0  0  0  0  0  0  0  0  0  0
    5.9557    0.1900    0.2161 C   0  0  0  0  0  0  0  0  0  0  0  0
    6.7890   -0.8617    0.2451 N   0  0  0  0  0  0  0  0  0  0  0  0
    6.6021   -1.5988   -0.7988 O   0  0  0  0  0  0  0  0  0  0  0  0
    5.6429   -1.1101   -1.5759 C   0  0  0  0  0  0  0  0  0  0  0  0
    5.1948   -1.7424   -2.8366 C   0  0  0  0  0  0  0  0  0  0  0  0
    5.1799    0.0630   -0.9705 C   0  0  0  0  0  0  0  0  0  0  0  0
    4.2828    1.0795   -1.4816 C   0  0  0  0  0  0  0  0  0  0  0  0
    2.5137    0.5973   -1.4482 S   0  0  0  0  0  0  0  0  0  0  0  0
    1.9472    0.9876    0.2372 C   0  0  0  0  0  0  0  0  0  0  0  0
    2.7813    1.6518    1.1018 C   0  0  0  0  0  0  0  0  0  0  0  0
    2.5112    2.0066    2.3781 C   0  0  0  0  0  0  0  0  0  0  0  0
    1.2386    1.6715    2.8698 C   0  0  0  0  0  0  0  0  0  0  0  0
    0.3836    1.0224    2.0390 C   0  0  0  0  0  0  0  0  0  0  0  0
    0.7224    0.6631    0.7091 C   0  0  0  0  0  0  0  0  0  0  0  0
   -0.3053    0.0240   -0.0906 C   0  0  0  0  0  0  0  0  0  0  0  0
   -0.1392   -0.7772   -1.0045 O   0  0  0  0  0  0  0  0  0  0  0  0
   -1.6646    0.3943    0.2652 N   0  0  0  0  0  0  0  0  0  0  0  0
   -2.8054   -0.0794   -0.3766 C   0  0  0  0  0  0  0  0  0  0  0  0
   -3.2715   -1.4335   -0.1105 C   0  0  0  0  0  0  0  0  0  0  0  0
   -2.8846   -2.5525   -0.7837 C   0  0  0  0  0  0  0  0  0  0  0  0
   -3.3641   -3.8294   -0.5032 C   0  0  0  0  0  0  0  0  0  0  0  0
   -4.2829   -3.9689    0.5170 C   0  0  0  0  0  0  0  0  0  0  0  0
   -4.6861   -2.8403    1.1954 C   0  0  0  0  0  0  0  0  0  0  0  0
   -4.2113   -1.6018    0.9105 C   0  0  0  0  0  0  0  0  0  0  0  0
   -3.9103    0.8909   -0.4477 C   0  0  0  0  0  0  0  0  0  0  0  0
   -3.7239    2.2442   -0.5941 C   0  0  0  0  0  0  0  0  0  0  0  0
   -4.7670    3.1409   -0.7216 C   0  0  0  0  0  0  0  0  0  0  0  0
   -6.0619    2.6882   -0.7134 C   0  0  0  0  0  0  0  0  0  0  0  0
   -6.2752    1.3433   -0.5698 C   0  0  0  0  0  0  0  0  0  0  0  0
   -5.2408    0.4445   -0.4345 C   0  0  0  0  0  0  0  0  0  0  0  0
  1  2  1  0
  2  3  2  0
  3  4  1  0
  4  5  1  0
  5  6  1  0
  5  7  2  0
  7  8  1  0
  8  9  1  0
  9 10  1  0
 10 11  2  0
 11 12  1  0
 12 13  2  0
 13 14  1  0
 14 15  2  0
 15 16  1  0
 16 17  2  0
 16 18  1  0
 18 19  1  0
 19 20  1  0
 20 21  2  0
 21 22  1  0
 22 23  2  0
 23 24  1  0
 24 25  2  0
 19 26  1  0
 26 27  2  0
 27 28  1  0
 28 29  2  0
 29 30  1  0
 30 31  2  0
  7  2  1  0
 15 10  1  0
 25 20  1  0
 31 26  1  0
M  END
>  <zinc_id>  (1) 
ZINC000003344582

>  <smiles>  (1) 
Cc1noc(C)c1CSc1ccccc1C(=O)NC(c1ccccc1)c1ccccc1

$$$$
