
     RDKit          3D

 33 36  0  0  0  0  0  0  0  0999 V2000
    7.9561   -1.4948    0.4938 C   0  0  0  0  0  0  0  0  0  0  0  0
    6.8125   -1.4609   -0.3395 O   0  0  0  0  0  0  0  0  0  0  0  0
    5.6136   -1.0367    0.2292 C   0  0  0  0  0  0  0  0  0  0  0  0
    5.5942   -0.7046    1.4451 O   0  0  0  0  0  0  0  0  0  0  0  0
    4.4156   -0.9930   -0.6124 C   0  0  0  0  0  0  0  0  0  0  0  0
    3.9505    0.0630   -1.3794 C   0  0  0  0  0  0  0  0  0  0  0  0
    4.6219    1.4004   -1.4849 C   0  0  0  0  0  0  0  0  0  0  0  0
    2.8097   -0.3193   -2.0007 N   0  0  0  0  0  0  0  0  0  0  0  0
    1.9846    0.4642   -2.8991 C   0  0  0  0  0  0  0  0  0  0  0  0
    0.9625    1.1782   -2.0521 C   0  0  0  0  0  0  0  0  0  0  0  0
    0.1457    0.2499   -1.3264 O   0  0  0  0  0  0  0  0  0  0  0  0
   -0.8352    0.7932   -0.5098 C   0  0  0  0  0  0  0  0  0  0  0  0
   -1.6699   -0.0191    0.2282 C   0  0  0  0  0  0  0  0  0  0  0  0
   -2.6551    0.4860    1.0499 C   0  0  0  0  0  0  0  0  0  0  0  0
   -2.8585    1.8483    1.1773 C   0  0  0  0  0  0  0  0  0  0  0  0
   -3.9263    2.3953    2.0679 C   0  0  0  0  0  0  0  0  0  0  0  0
   -3.8967    3.9202    1.9040 C   0  0  0  0  0  0  0  0  0  0  0  0
   -3.6169    2.0487    3.4982 C   0  0  0  0  0  0  0  0  0  0  0  0
   -5.2643    1.9287    1.6242 C   0  0  0  0  0  0  0  0  0  0  0  0
   -5.6122    0.5923    1.6691 C   0  0  0  0  0  0  0  0  0  0  0  0
   -6.8604    0.1909    1.2498 C   0  0  0  0  0  0  0  0  0  0  0  0
   -7.8057    1.0584    0.7773 C   0  0  0  0  0  0  0  0  0  0  0  0
   -7.4637    2.4092    0.7283 C   0  0  0  0  0  0  0  0  0  0  0  0
   -6.2195    2.8055    1.1469 C   0  0  0  0  0  0  0  0  0  0  0  0
   -2.0287    2.6659    0.4433 C   0  0  0  0  0  0  0  0  0  0  0  0
   -1.0402    2.1531   -0.3810 C   0  0  0  0  0  0  0  0  0  0  0  0
    2.5226   -1.5888   -1.6598 C   0  0  0  0  0  0  0  0  0  0  0  0
    1.4724   -2.4215   -2.0279 C   0  0  0  0  0  0  0  0  0  0  0  0
    1.3792   -3.6936   -1.5527 C   0  0  0  0  0  0  0  0  0  0  0  0
    2.3527   -4.1435   -0.6934 C   0  0  0  0  0  0  0  0  0  0  0  0
    2.2532   -5.4351   -0.2139 O   0  0  0  0  0  0  0  0  0  0  0  0
    3.4018   -3.3150   -0.3243 C   0  0  0  0  0  0  0  0  0  0  0  0
    3.5045   -2.0254   -0.8005 C   0  0  0  0  0  0  0  0  0  0  0  0
  1  2  1  0
  2  3  1  0
  3  4  2  0
  3  5  1  0
  5  6  2  0
  6  7  1  0
  6  8  1  0
  8  9  1  0
  9 10  1  0
 10 11  1  0
 11 12  1  0
 12 13  2  0
 13 14  1  0
 14 15  2  0
 15 16  1  0
 16 17  1  0
 16 18  1  0
 16 19  1  0
 19 20  2  0
 20 21  1  0
 21 22  2  0
 22 23  1  0
 23 24  2  0
 15 25  1  0
 25 26  2  0
  8 27  1  0
 27 28  2  0
 28 29  1  0
 29 30  2  0
 30 31  1  0
 30 32  1  0
 32 33  2  0
 33  5  1  0
 26 12  1  0
 33 27  1  0
 24 19  1  0
M  END
>  <zinc_id>  (1) 
ZINC000000717183

>  <smiles>  (1) 
COC(=O)c1c(C)n(CCOc2ccc(C(C)(C)c3ccccc3)cc2)c2ccc(O)cc12

$$$$
