
     RDKit          3D

 30 32  0  0  0  0  0  0  0  0999 V2000
   -0.6283    0.6158    3.5269 C   0  0  0  0  0  0  0  0  0  0  0  0
   -1.9143    0.8064    2.9664 O   0  0  0  0  0  0  0  0  0  0  0  0
   -2.1483    0.5557    1.6078 C   0  0  0  0  0  0  0  0  0  0  0  0
   -1.1620    0.1172    0.7501 C   0  0  0  0  0  0  0  0  0  0  0  0
   -1.3810   -0.1329   -0.5896 C   0  0  0  0  0  0  0  0  0  0  0  0
   -0.3343   -0.5985   -1.4921 C   0  0  0  0  0  0  0  0  0  0  0  0
    0.8511   -0.7912   -1.0335 N   0  0  0  0  0  0  0  0  0  0  0  0
    1.8925   -1.2424   -1.8771 N   0  0  0  0  0  0  0  0  0  0  0  0
    3.0802   -0.5018   -2.0713 C   0  0  0  0  0  0  0  0  0  0  0  0
    3.2188    0.5885   -1.4780 O   0  0  0  0  0  0  0  0  0  0  0  0
    4.0908   -1.0956   -2.9886 C   0  0  0  0  0  0  0  0  0  0  0  0
    5.5595   -0.0670   -3.1569 S   0  0  0  0  0  0  0  0  0  0  0  0
    6.4188   -0.0201   -1.5976 C   0  0  0  0  0  0  0  0  0  0  0  0
    7.4054   -0.9475   -1.2690 C   0  0  0  0  0  0  0  0  0  0  0  0
    8.0466   -0.8774   -0.0536 C   0  0  0  0  0  0  0  0  0  0  0  0
    7.7281    0.1010    0.8525 C   0  0  0  0  0  0  0  0  0  0  0  0
    8.3893    0.2242    2.1815 C   0  0  0  0  0  0  0  0  0  0  0  0
    6.7546    1.0142    0.5256 C   0  0  0  0  0  0  0  0  0  0  0  0
    6.0891    0.9671   -0.6976 C   0  0  0  0  0  0  0  0  0  0  0  0
   -2.6760    0.0790   -1.0664 C   0  0  0  0  0  0  0  0  0  0  0  0
   -3.6563    0.5165   -0.2069 C   0  0  0  0  0  0  0  0  0  0  0  0
   -3.4291    0.7623    1.1226 C   0  0  0  0  0  0  0  0  0  0  0  0
   -4.4195    1.1972    1.9629 O   0  0  0  0  0  0  0  0  0  0  0  0
   -5.7297    1.4136    1.5040 C   0  0  0  0  0  0  0  0  0  0  0  0
   -6.3761    0.2145    0.9452 C   0  0  0  0  0  0  0  0  0  0  0  0
   -6.9665   -0.7276    1.7955 C   0  0  0  0  0  0  0  0  0  0  0  0
   -7.5743   -1.8487    1.2695 C   0  0  0  0  0  0  0  0  0  0  0  0
   -7.6288   -2.0914   -0.0946 C   0  0  0  0  0  0  0  0  0  0  0  0
   -7.0494   -1.1677   -0.9384 C   0  0  0  0  0  0  0  0  0  0  0  0
   -6.4509   -0.0616   -0.3994 C   0  0  0  0  0  0  0  0  0  0  0  0
  1  2  1  0
  2  3  1  0
  3  4  2  0
  4  5  1  0
  5  6  1  0
  6  7  2  0
  7  8  1  0
  8  9  1  0
  9 10  2  0
  9 11  1  0
 11 12  1  0
 12 13  1  0
 13 14  2  0
 14 15  1  0
 15 16  2  0
 16 17  1  0
 16 18  1  0
 18 19  2  0
  5 20  2  0
 20 21  1  0
 21 22  2  0
 22 23  1  0
 23 24  1  0
 24 25  1  0
 25 26  2  0
 26 27  1  0
 27 28  2  0
 28 29  1  0
 29 30  2  0
 22  3  1  0
 30 25  1  0
 19 13  1  0
M  END
>  <zinc_id>  (1) 
ZINC000000636729

>  <smiles>  (1) 
COc1cc(/C=N/NC(=O)CSc2ccc(C)cc2)ccc1OCc1ccccc1

$$$$
