
     RDKit          3D

 33 36  0  0  0  0  0  0  0  0999 V2000
   -2.4244   -0.0493    3.3358 C   0  0  0  0  0  0  0  0  0  0  0  0
   -1.8121   -1.5012    3.2548 C   0  0  0  0  0  0  0  0  0  0  0  0
   -1.2192   -1.6330    2.1551 O   0  0  0  0  0  0  0  0  0  0  0  0
   -0.5544   -1.8672    0.9792 C   0  0  0  0  0  0  0  0  0  0  0  0
   -0.1026   -2.8861    0.7283 O   0  0  0  0  0  0  0  0  0  0  0  0
   -0.5166   -0.6034    0.1435 C   0  0  0  0  0  0  0  0  0  0  0  0
    0.5058    0.3627    0.3314 C   0  0  0  0  0  0  0  0  0  0  0  0
    1.5135    0.0625    1.3343 C   0  0  0  0  0  0  0  0  0  0  0  0
    3.1772    0.6840    1.1188 S   0  0  0  0  0  0  0  0  0  0  0  0
    4.1474   -0.6761    0.3674 C   0  0  0  0  0  0  0  0  0  0  0  0
    3.4934   -1.9210    0.2172 C   0  0  0  0  0  0  0  0  0  0  0  0
    4.2323   -3.0051   -0.3022 C   0  0  0  0  0  0  0  0  0  0  0  0
    5.5276   -2.8322   -0.6465 C   0  0  0  0  0  0  0  0  0  0  0  0
    6.1665   -1.6560   -0.5084 C   0  0  0  0  0  0  0  0  0  0  0  0
    5.4358   -0.5445    0.0205 C   0  0  0  0  0  0  0  0  0  0  0  0
    0.1612    1.4191   -0.3961 N   0  0  0  0  0  0  0  0  0  0  0  0
    0.6453    2.7320   -0.3301 C   0  0  0  0  0  0  0  0  0  0  0  0
   -0.2773    3.7737   -0.0582 C   0  0  0  0  0  0  0  0  0  0  0  0
   -0.0240    5.0417    0.1649 C   0  0  0  0  0  0  0  0  0  0  0  0
    1.3344    5.4242    0.1195 C   0  0  0  0  0  0  0  0  0  0  0  0
    2.3047    4.4922   -0.1578 C   0  0  0  0  0  0  0  0  0  0  0  0
    1.9541    3.1767   -0.3759 C   0  0  0  0  0  0  0  0  0  0  0  0
   -1.0385    1.1869   -1.0669 C   0  0  0  0  0  0  0  0  0  0  0  0
   -1.7994    1.8476   -1.9680 C   0  0  0  0  0  0  0  0  0  0  0  0
   -2.9154    1.2613   -2.5520 C   0  0  0  0  0  0  0  0  0  0  0  0
   -3.2458   -0.0348   -2.1685 C   0  0  0  0  0  0  0  0  0  0  0  0
   -4.3756   -0.6490   -2.7579 O   0  0  0  0  0  0  0  0  0  0  0  0
   -2.5568   -0.7450   -1.2641 C   0  0  0  0  0  0  0  0  0  0  0  0
   -2.8838   -2.1354   -0.9317 C   0  0  0  0  0  0  0  0  0  0  0  0
   -4.1876   -2.2607   -0.2045 N   0  0  0  0  0  0  0  0  0  0  0  0
   -4.2093   -3.4232    0.6738 C   0  0  0  0  0  0  0  0  0  0  0  0
   -5.0323   -2.9068   -1.3925 C   0  0  0  0  0  0  0  0  0  0  0  0
   -1.4244   -0.1344   -0.6856 C   0  0  0  0  0  0  0  0  0  0  0  0
  1  2  1  0
  2  3  1  0
  3  4  1  0
  4  5  2  0
  4  6  1  0
  6  7  2  0
  7  8  1  0
  8  9  1  0
  9 10  1  0
 10 11  2  0
 11 12  1  0
 12 13  2  0
 13 14  1  0
 14 15  2  0
  7 16  1  0
 16 17  1  0
 17 18  2  0
 18 19  1  0
 19 20  2  0
 20 21  1  0
 21 22  2  0
 16 23  1  0
 23 24  2  0
 24 25  1  0
 25 26  2  0
 26 27  1  0
 26 28  1  0
 28 29  1  0
 29 30  1  0
 30 31  1  0
 30 32  1  0
 28 33  2  0
 33  6  1  0
 15 10  1  0
 22 17  1  0
 33 23  1  0
M  END
>  <zinc_id>  (1) 
ZINC000002266184

>  <smiles>  (1) 
CCOC(=O)c1c(CSc2ccccc2)n(-c2ccccc2)c2ccc(O)c(CN(C)C)c12

$$$$
