
     RDKit          3D

 31 34  0  0  0  0  0  0  0  0999 V2000
   -5.9980    4.1780    1.4536 C   0  0  0  0  0  0  0  0  0  0  0  0
   -6.6365    3.7146    0.1514 C   0  0  0  0  0  0  0  0  0  0  0  0
   -6.6022    2.3322   -0.0382 O   0  0  0  0  0  0  0  0  0  0  0  0
   -5.4599    1.5593   -0.0977 C   0  0  0  0  0  0  0  0  0  0  0  0
   -4.2032    2.0901    0.0272 C   0  0  0  0  0  0  0  0  0  0  0  0
   -3.1039    1.2309   -0.0478 C   0  0  0  0  0  0  0  0  0  0  0  0
   -3.2294   -0.1012   -0.2379 C   0  0  0  0  0  0  0  0  0  0  0  0
   -2.0795   -0.9683   -0.3245 C   0  0  0  0  0  0  0  0  0  0  0  0
   -0.7881   -0.4583   -0.3090 C   0  0  0  0  0  0  0  0  0  0  0  0
    0.3312   -1.2496   -0.3895 C   0  0  0  0  0  0  0  0  0  0  0  0
    1.7076   -0.7269   -0.3278 C   0  0  0  0  0  0  0  0  0  0  0  0
    2.0763   -0.0036   -1.3275 O   0  0  0  0  0  0  0  0  0  0  0  0
    2.6273   -0.9252    0.6856 N   0  0  0  0  0  0  0  0  0  0  0  0
    3.9478   -0.4589    0.8057 C   0  0  0  0  0  0  0  0  0  0  0  0
    4.1364    0.9954    0.6913 C   0  0  0  0  0  0  0  0  0  0  0  0
    3.0925    1.8317    0.4495 C   0  0  0  0  0  0  0  0  0  0  0  0
    3.2197    3.2218    0.2929 C   0  0  0  0  0  0  0  0  0  0  0  0
    4.4920    3.7833    0.3913 C   0  0  0  0  0  0  0  0  0  0  0  0
    5.5463    2.9520    0.6350 C   0  0  0  0  0  0  0  0  0  0  0  0
    5.3923    1.5775    0.7867 C   0  0  0  0  0  0  0  0  0  0  0  0
    6.4706    0.7503    1.0365 O   0  0  0  0  0  0  0  0  0  0  0  0
    7.7681    1.3645    1.1296 C   0  0  0  0  0  0  0  0  0  0  0  0
    0.1287   -2.6264   -0.4888 C   0  0  0  0  0  0  0  0  0  0  0  0
    1.2367   -3.4470   -0.5884 C   0  0  0  0  0  0  0  0  0  0  0  0
    1.0396   -4.8237   -0.7074 C   0  0  0  0  0  0  0  0  0  0  0  0
   -0.2456   -5.3416   -0.7262 C   0  0  0  0  0  0  0  0  0  0  0  0
   -1.3662   -4.5346   -0.6278 C   0  0  0  0  0  0  0  0  0  0  0  0
   -1.1455   -3.1527   -0.5069 C   0  0  0  0  0  0  0  0  0  0  0  0
   -2.2040   -2.3074   -0.4245 N   0  0  0  0  0  0  0  0  0  0  0  0
   -4.5001   -0.6277   -0.3634 C   0  0  0  0  0  0  0  0  0  0  0  0
   -5.6509    0.1714   -0.2981 C   0  0  0  0  0  0  0  0  0  0  0  0
  1  2  1  0
  2  3  1  0
  3  4  1  0
  4  5  2  0
  5  6  1  0
  6  7  2  0
  7  8  1  0
  8  9  2  0
  9 10  1  0
 10 11  1  0
 11 12  2  0
 11 13  1  0
 13 14  1  0
 14 15  1  0
 15 16  2  0
 16 17  1  0
 17 18  2  0
 18 19  1  0
 19 20  2  0
 20 21  1  0
 21 22  1  0
 10 23  2  0
 23 24  1  0
 24 25  2  0
 25 26  1  0
 26 27  2  0
 27 28  1  0
 28 29  2  0
  7 30  1  0
 30 31  2  0
 31  4  1  0
 29  8  1  0
 20 15  1  0
 28 23  1  0
M  END
>  <zinc_id>  (1) 
ZINC000003045016

>  <smiles>  (1) 
CCOc1ccc(-c2cc(C(=O)NCc3ccccc3OC)c3ccccc3n2)cc1

$$$$
