
     RDKit          3D

 31 35  0  0  0  0  0  0  0  0999 V2000
   -2.3059   -0.9755    0.3279 O   0  0  0  0  0  0  0  0  0  0  0  0
   -1.9530   -0.3008   -0.6710 C   0  0  0  0  0  0  0  0  0  0  0  0
   -2.9695    0.1392   -1.6585 C   0  0  0  0  0  0  0  0  0  0  0  0
   -4.2985   -0.3540   -1.2312 C   0  0  0  0  0  0  0  0  0  0  0  0
   -4.8951   -1.4283   -1.8535 C   0  0  0  0  0  0  0  0  0  0  0  0
   -6.1525   -1.8677   -1.4242 C   0  0  0  0  0  0  0  0  0  0  0  0
   -6.7889   -1.2289   -0.3854 C   0  0  0  0  0  0  0  0  0  0  0  0
   -6.1865   -0.1550    0.2327 C   0  0  0  0  0  0  0  0  0  0  0  0
   -6.8170    0.4890    1.2731 C   0  0  0  0  0  0  0  0  0  0  0  0
   -6.2226    1.5637    1.8979 C   0  0  0  0  0  0  0  0  0  0  0  0
   -4.9870    2.0135    1.4933 C   0  0  0  0  0  0  0  0  0  0  0  0
   -4.3635    1.3658    0.4539 C   0  0  0  0  0  0  0  0  0  0  0  0
   -4.9351    0.2868   -0.1903 C   0  0  0  0  0  0  0  0  0  0  0  0
   -0.5753    0.0077   -0.8003 N   0  0  0  0  0  0  0  0  0  0  0  0
    0.3321   -0.4745    0.2273 C   0  0  0  0  0  0  0  0  0  0  0  0
   -0.0409   -1.3886    1.6214 S   0  0  0  0  0  0  0  0  0  0  0  0
    1.5140   -1.5416    2.2773 C   0  0  0  0  0  0  0  0  0  0  0  0
    2.2938   -0.8750    1.3936 C   0  0  0  0  0  0  0  0  0  0  0  0
    1.6914   -0.3078    0.3104 C   0  0  0  0  0  0  0  0  0  0  0  0
    2.3916    0.4626   -0.7624 C   0  0  0  0  0  0  0  0  0  0  0  0
    1.7551    0.9413   -1.6997 O   0  0  0  0  0  0  0  0  0  0  0  0
    3.7966    0.6644   -0.7356 N   0  0  0  0  0  0  0  0  0  0  0  0
    4.4958    1.4107   -1.7700 C   0  0  0  0  0  0  0  0  0  0  0  0
    5.9606    1.4149   -1.4273 C   0  0  0  0  0  0  0  0  0  0  0  0
    6.6789    2.3012   -0.6851 C   0  0  0  0  0  0  0  0  0  0  0  0
    7.9819    1.8887   -0.6506 C   0  0  0  0  0  0  0  0  0  0  0  0
    8.0157    0.7195   -1.4023 C   0  0  0  0  0  0  0  0  0  0  0  0
    6.8059    0.4852   -1.8352 O   0  0  0  0  0  0  0  0  0  0  0  0
    3.7119   -0.9676    1.9246 C   0  0  0  0  0  0  0  0  0  0  0  0
    3.7259   -2.1803    2.7856 C   0  0  0  0  0  0  0  0  0  0  0  0
    2.3398   -2.1086    3.4126 C   0  0  0  0  0  0  0  0  0  0  0  0
  1  2  2  0
  2  3  1  0
  3  4  1  0
  4  5  2  0
  5  6  1  0
  6  7  2  0
  7  8  1  0
  8  9  2  0
  9 10  1  0
 10 11  2  0
 11 12  1  0
 12 13  2  0
  2 14  1  0
 14 15  1  0
 15 16  1  0
 16 17  1  0
 17 18  2  0
 18 19  1  0
 19 20  1  0
 20 21  2  0
 20 22  1  0
 22 23  1  0
 23 24  1  0
 24 25  2  0
 25 26  1  0
 26 27  2  0
 27 28  1  0
 18 29  1  0
 29 30  1  0
 30 31  1  0
 13  4  1  0
 19 15  2  0
 28 24  1  0
 13  8  1  0
 31 17  1  0
M  END
>  <zinc_id>  (1) 
ZINC000001133284

>  <smiles>  (1) 
O=C(Cc1cccc2ccccc12)Nc1sc2c(c1C(=O)NCc1ccco1)CCC2

$$$$
