
     RDKit          3D

 31 34  0  0  0  0  0  0  0  0999 V2000
   -5.1562    1.2975    1.3342 C   0  0  0  0  0  0  0  0  0  0  0  0
   -5.0538    2.4525    2.2352 C   0  0  0  0  0  0  0  0  0  0  0  0
   -3.7730    2.2587    3.2249 C   0  0  1  0  0  0  0  0  0  0  0  0
   -4.3277    0.8701    3.8859 C   0  0  0  0  0  0  0  0  0  0  0  0
   -2.8389    1.5223    2.2254 N   0  0  0  0  0  0  0  0  0  0  0  0
   -2.5107    2.0847    1.0035 C   0  0  0  0  0  0  0  0  0  0  0  0
   -2.9831    3.2065    0.7141 O   0  0  0  0  0  0  0  0  0  0  0  0
   -1.6340    1.3774    0.0829 C   0  0  0  0  0  0  0  0  0  0  0  0
   -1.2171    1.7977   -1.1555 C   0  0  0  0  0  0  0  0  0  0  0  0
   -1.5748    3.0343   -1.7834 N   0  0  0  0  0  0  0  0  0  0  0  0
   -0.4159    0.9029   -1.7328 N   0  0  0  0  0  0  0  0  0  0  0  0
    0.2326    0.9714   -3.0562 C   0  0  0  0  0  0  0  0  0  0  0  0
    1.5694    1.6362   -3.0071 C   0  0  0  0  0  0  0  0  0  0  0  0
    2.4389    0.8668   -2.0824 C   0  0  0  0  0  0  0  0  0  0  0  0
    2.5253    1.1623   -0.7347 C   0  0  0  0  0  0  0  0  0  0  0  0
    3.3461    0.4185    0.0807 C   0  0  0  0  0  0  0  0  0  0  0  0
    4.1118   -0.6366   -0.3793 C   0  0  0  0  0  0  0  0  0  0  0  0
    4.8912   -1.3183    0.4764 O   0  0  0  0  0  0  0  0  0  0  0  0
    5.7427   -2.3729    0.3737 C   0  0  0  0  0  0  0  0  0  0  0  0
    4.0271   -0.9330   -1.7234 C   0  0  0  0  0  0  0  0  0  0  0  0
    3.2002   -0.1849   -2.5478 C   0  0  0  0  0  0  0  0  0  0  0  0
   -0.2907   -0.1288   -0.8795 C   0  0  0  0  0  0  0  0  0  0  0  0
    0.3648   -1.3016   -0.8913 N   0  0  0  0  0  0  0  0  0  0  0  0
    0.3070   -2.1759    0.1396 C   0  0  0  0  0  0  0  0  0  0  0  0
    1.0083   -3.3836    0.0783 C   0  0  0  0  0  0  0  0  0  0  0  0
    0.9381   -4.2629    1.1389 C   0  0  0  0  0  0  0  0  0  0  0  0
    0.1794   -3.9433    2.2461 C   0  0  0  0  0  0  0  0  0  0  0  0
   -0.5206   -2.7639    2.3348 C   0  0  0  0  0  0  0  0  0  0  0  0
   -0.4371   -1.8931    1.2576 C   0  0  0  0  0  0  0  0  0  0  0  0
   -1.1125   -0.7053    1.2908 N   0  0  0  0  0  0  0  0  0  0  0  0
   -1.0369    0.1443    0.2518 C   0  0  0  0  0  0  0  0  0  0  0  0
  1  2  1  0
  2  3  1  0
  3  4  1  1
  3  5  1  0
  5  6  1  0
  6  7  2  0
  6  8  1  0
  8  9  2  0
  9 10  1  0
  9 11  1  0
 11 12  1  0
 12 13  1  0
 13 14  1  0
 14 15  2  0
 15 16  1  0
 16 17  2  0
 17 18  1  0
 18 19  1  0
 17 20  1  0
 20 21  2  0
 11 22  1  0
 22 23  2  0
 23 24  1  0
 24 25  2  0
 25 26  1  0
 26 27  2  0
 27 28  1  0
 28 29  2  0
 29 30  1  0
 30 31  2  0
 31  8  1  0
 21 14  1  0
 31 22  1  0
 29 24  1  0
M  END
>  <zinc_id>  (1) 
ZINC000002233190

>  <smiles>  (1) 
CC[C@@H](C)NC(=O)c1c(N)n(CCc2ccc(OC)cc2)c2nc3ccccc3nc12

$$$$
