
     RDKit          3D

 32 35  0  0  0  0  0  0  0  0999 V2000
   -8.6434   -1.9526    0.8193 C   0  0  0  0  0  0  0  0  0  0  0  0
   -7.4165   -2.5782    0.5309 O   0  0  0  0  0  0  0  0  0  0  0  0
   -6.2279   -1.8558    0.4211 C   0  0  0  0  0  0  0  0  0  0  0  0
   -5.0514   -2.5138    0.1372 C   0  0  0  0  0  0  0  0  0  0  0  0
   -3.8955   -1.7395    0.0395 C   0  0  0  0  0  0  0  0  0  0  0  0
   -3.8992   -0.3843    0.2130 C   0  0  0  0  0  0  0  0  0  0  0  0
   -2.7463    0.4243    0.1202 N   0  0  0  0  0  0  0  0  0  0  0  0
   -1.4515   -0.0613   -0.1617 C   0  0  0  0  0  0  0  0  0  0  0  0
   -1.3154   -1.2809   -0.3403 O   0  0  0  0  0  0  0  0  0  0  0  0
   -0.3197    0.8925   -0.2325 C   0  0  0  0  0  0  0  0  0  0  0  0
    0.9355    0.4254   -0.5053 C   0  0  0  0  0  0  0  0  0  0  0  0
    1.3568   -0.9147   -0.7477 N   0  0  0  0  0  0  0  0  0  0  0  0
    2.7358   -1.1744   -1.0151 C   0  0  0  0  0  0  0  0  0  0  0  0
    3.5092   -0.1972   -1.0219 O   0  0  0  0  0  0  0  0  0  0  0  0
    3.2174   -2.5550   -1.2729 C   0  0  0  0  0  0  0  0  0  0  0  0
    4.5977   -2.5793   -1.4896 O   0  0  0  0  0  0  0  0  0  0  0  0
    5.4500   -2.1403   -0.4861 C   0  0  0  0  0  0  0  0  0  0  0  0
    5.0049   -1.6768    0.7335 C   0  0  0  0  0  0  0  0  0  0  0  0
    5.9179   -1.2638    1.6644 C   0  0  0  0  0  0  0  0  0  0  0  0
    7.2664   -1.3122    1.3822 C   0  0  0  0  0  0  0  0  0  0  0  0
    7.6942   -1.7755    0.1654 C   0  0  0  0  0  0  0  0  0  0  0  0
    6.8077   -2.1976   -0.7915 C   0  0  0  0  0  0  0  0  0  0  0  0
    1.8913    1.8303   -0.4886 S   0  0  0  0  0  0  0  0  0  0  0  0
    0.6817    2.9802   -0.1365 C   0  0  0  0  0  0  0  0  0  0  0  0
   -0.4522    2.2197   -0.0408 C   0  0  0  0  0  0  0  0  0  0  0  0
   -1.7945    2.8788    0.2713 C   0  0  0  0  0  0  0  0  0  0  0  0
   -2.0533    3.8921   -0.8368 C   0  0  0  0  0  0  0  0  0  0  0  0
   -1.3766    5.2053   -0.5563 C   0  0  0  0  0  0  0  0  0  0  0  0
    0.0463    5.1646   -1.0590 C   0  0  0  0  0  0  0  0  0  0  0  0
    0.8747    4.4714    0.0207 C   0  0  0  0  0  0  0  0  0  0  0  0
   -5.0998    0.2650    0.4999 C   0  0  0  0  0  0  0  0  0  0  0  0
   -6.2444   -0.4964    0.5973 C   0  0  0  0  0  0  0  0  0  0  0  0
  1  2  1  0
  2  3  1  0
  3  4  2  0
  4  5  1  0
  5  6  2  0
  6  7  1  0
  7  8  1  0
  8  9  2  0
  8 10  1  0
 10 11  2  0
 11 12  1  0
 12 13  1  0
 13 14  2  0
 13 15  1  0
 15 16  1  0
 16 17  1  0
 17 18  2  0
 18 19  1  0
 19 20  2  0
 20 21  1  0
 21 22  2  0
 11 23  1  0
 23 24  1  0
 24 25  2  0
 25 26  1  0
 26 27  1  0
 27 28  1  0
 28 29  1  0
 29 30  1  0
  6 31  1  0
 31 32  2  0
 32  3  1  0
 25 10  1  0
 22 17  1  0
 30 24  1  0
M  END
>  <zinc_id>  (1) 
ZINC000001218901

>  <smiles>  (1) 
COc1ccc(NC(=O)c2c(NC(=O)COc3ccccc3)sc3c2CCCCC3)cc1

$$$$
