
     RDKit          3D

 33 36  0  0  0  0  0  0  0  0999 V2000
   -8.3071    1.4304   -3.3910 C   0  0  0  0  0  0  0  0  0  0  0  0
   -7.0180    0.8681   -3.3219 O   0  0  0  0  0  0  0  0  0  0  0  0
   -6.2880    0.9681   -2.1619 C   0  0  0  0  0  0  0  0  0  0  0  0
   -6.8357    1.6219   -1.0799 C   0  0  0  0  0  0  0  0  0  0  0  0
   -6.1206    1.7319    0.0885 C   0  0  0  0  0  0  0  0  0  0  0  0
   -4.8400    1.1836    0.1851 C   0  0  0  0  0  0  0  0  0  0  0  0
   -4.2692    0.5244   -0.8833 C   0  0  0  0  0  0  0  0  0  0  0  0
   -2.9359   -0.0453   -0.7801 C   0  0  0  0  0  0  0  0  0  0  0  0
   -2.2206    0.0665    0.3931 C   0  0  0  0  0  0  0  0  0  0  0  0
   -0.9532   -0.4619    0.5260 C   0  0  0  0  0  0  0  0  0  0  0  0
   -0.2531   -0.3064    1.7871 C   0  0  0  0  0  0  0  0  0  0  0  0
   -0.8264    0.2518    2.7614 O   0  0  0  0  0  0  0  0  0  0  0  0
    1.0841   -0.7484    2.0326 N   0  0  0  0  0  0  0  0  0  0  0  0
    1.6992   -0.5484    3.3395 C   0  0  0  0  0  0  0  0  0  0  0  0
    3.0866   -1.0594    3.4142 C   0  0  0  0  0  0  0  0  0  0  0  0
    3.9338   -0.3505    2.4237 C   0  0  0  0  0  0  0  0  0  0  0  0
    4.5238    0.8337    2.8902 C   0  0  0  0  0  0  0  0  0  0  0  0
    5.3320    1.5813    2.0938 C   0  0  0  0  0  0  0  0  0  0  0  0
    5.5696    1.1617    0.8109 C   0  0  0  0  0  0  0  0  0  0  0  0
    6.3794    1.8688   -0.0556 O   0  0  0  0  0  0  0  0  0  0  0  0
    6.9761    3.0627    0.4095 C   0  0  0  0  0  0  0  0  0  0  0  0
    4.9915   -0.0085    0.3379 C   0  0  0  0  0  0  0  0  0  0  0  0
    5.2479   -0.4171   -0.9703 O   0  0  0  0  0  0  0  0  0  0  0  0
    4.6483   -1.6123   -1.4189 C   0  0  0  0  0  0  0  0  0  0  0  0
    4.1739   -0.7582    1.1534 C   0  0  0  0  0  0  0  0  0  0  0  0
   -0.4346   -1.1056   -0.5639 C   0  0  0  0  0  0  0  0  0  0  0  0
    0.8256   -1.6465   -0.4642 C   0  0  0  0  0  0  0  0  0  0  0  0
    1.3374   -2.2952   -1.5673 C   0  0  0  0  0  0  0  0  0  0  0  0
    0.6529   -2.4272   -2.7566 C   0  0  0  0  0  0  0  0  0  0  0  0
   -0.6092   -1.8821   -2.8477 C   0  0  0  0  0  0  0  0  0  0  0  0
   -1.1448   -1.2284   -1.7603 C   0  0  0  0  0  0  0  0  0  0  0  0
   -2.3953   -0.6844   -1.8311 N   0  0  0  0  0  0  0  0  0  0  0  0
   -5.0106    0.4310   -2.0395 C   0  0  0  0  0  0  0  0  0  0  0  0
  1  2  1  0
  2  3  1  0
  3  4  2  0
  4  5  1  0
  5  6  2  0
  6  7  1  0
  7  8  1  0
  8  9  2  0
  9 10  1  0
 10 11  1  0
 11 12  2  0
 11 13  1  0
 13 14  1  0
 14 15  1  0
 15 16  1  0
 16 17  2  0
 17 18  1  0
 18 19  2  0
 19 20  1  0
 20 21  1  0
 19 22  1  0
 22 23  1  0
 23 24  1  0
 22 25  2  0
 10 26  2  0
 26 27  1  0
 27 28  2  0
 28 29  1  0
 29 30  2  0
 30 31  1  0
 31 32  2  0
  7 33  2  0
 33  3  1  0
 32  8  1  0
 25 16  1  0
 31 26  1  0
M  END
>  <zinc_id>  (1) 
ZINC000000995091

>  <smiles>  (1) 
COc1cccc(-c2cc(C(=O)NCCc3ccc(OC)c(OC)c3)c3ccccc3n2)c1

$$$$
