
     RDKit          3D

 31 34  0  0  0  0  0  0  0  0999 V2000
   -3.2408    2.4539   -2.2645 C   0  0  0  0  0  0  0  0  0  0  0  0
   -3.1097    1.4184   -1.3242 O   0  0  0  0  0  0  0  0  0  0  0  0
   -4.2534    0.9054   -0.6898 C   0  0  0  0  0  0  0  0  0  0  0  0
   -5.5116    1.3089   -0.9076 C   0  0  0  0  0  0  0  0  0  0  0  0
   -6.5490    0.7409   -0.2221 C   0  0  0  0  0  0  0  0  0  0  0  0
   -6.3340   -0.2738    0.7288 C   0  0  0  0  0  0  0  0  0  0  0  0
   -7.5309   -0.7883    1.4344 C   0  0  0  0  0  0  0  0  0  0  0  0
   -8.8286   -0.1129    1.2357 C   0  0  0  0  0  0  0  0  0  0  0  0
   -7.4256   -1.7572    2.1903 O   0  0  0  0  0  0  0  0  0  0  0  0
   -5.0565   -0.6910    0.9574 C   0  0  0  0  0  0  0  0  0  0  0  0
   -3.9810   -0.1349    0.2600 C   0  0  0  0  0  0  0  0  0  0  0  0
   -2.6339   -0.5513    0.1650 C   0  0  0  0  0  0  0  0  0  0  0  0
   -1.3401   -0.2291    1.3359 S   0  0  0  0  0  0  0  0  0  0  0  0
    0.1765    0.0161    0.3053 C   0  0  0  0  0  0  0  0  0  0  0  0
    1.3952    0.2044    0.7771 N   0  0  0  0  0  0  0  0  0  0  0  0
    2.4044    0.1697   -0.0827 C   0  0  0  0  0  0  0  0  0  0  0  0
    3.7735    0.3065    0.3114 N   0  0  0  0  0  0  0  0  0  0  0  0
    4.1918    0.5594    1.6419 C   0  0  0  0  0  0  0  0  0  0  0  0
    5.6410    0.2356    1.7905 C   0  0  0  0  0  0  0  0  0  0  0  0
    6.3896    0.9119    2.7615 C   0  0  0  0  0  0  0  0  0  0  0  0
    7.6856    0.5670    2.9371 C   0  0  0  0  0  0  0  0  0  0  0  0
    8.2689   -0.4179    2.1889 C   0  0  0  0  0  0  0  0  0  0  0  0
    7.5547   -1.0872    1.2306 C   0  0  0  0  0  0  0  0  0  0  0  0
    6.2239   -0.7558    1.0317 C   0  0  0  0  0  0  0  0  0  0  0  0
    2.2239   -0.0435   -1.4442 C   0  0  0  0  0  0  0  0  0  0  0  0
    3.2886   -0.1241   -2.3086 C   0  0  0  0  0  0  0  0  0  0  0  0
    3.0938   -0.3947   -3.6754 C   0  0  0  0  0  0  0  0  0  0  0  0
    1.8201   -0.5777   -4.1489 C   0  0  0  0  0  0  0  0  0  0  0  0
    0.7589   -0.4928   -3.2639 C   0  0  0  0  0  0  0  0  0  0  0  0
    0.9495   -0.2242   -1.9090 C   0  0  0  0  0  0  0  0  0  0  0  0
   -0.0449   -0.1915   -1.0426 N   0  0  0  0  0  0  0  0  0  0  0  0
  1  2  1  0
  2  3  1  0
  3  4  2  0
  4  5  1  0
  5  6  2  0
  6  7  1  0
  7  8  1  0
  7  9  2  0
  6 10  1  0
 10 11  2  0
 11 12  1  0
 12 13  1  0
 13 14  1  0
 14 15  2  0
 15 16  1  0
 16 17  1  0
 17 18  1  0
 18 19  1  0
 19 20  2  0
 20 21  1  0
 21 22  2  0
 22 23  1  0
 23 24  2  0
 16 25  2  0
 25 26  1  0
 26 27  2  0
 27 28  1  0
 28 29  2  0
 29 30  1  0
 30 31  2  0
 11  3  1  0
 31 14  1  0
 24 19  1  0
 30 25  1  0
M  END
>  <zinc_id>  (1) 
ZINC000002932987

>  <smiles>  (1) 
COc1ccc(C(C)=O)cc1CSc1nc(NCc2ccccc2)c2ccccc2n1

$$$$
