
     RDKit          3D

 33 37  0  0  0  0  0  0  0  0999 V2000
   -2.5331    3.5781   -4.6254 C   0  0  0  0  0  0  0  0  0  0  0  0
   -1.7945    3.0568   -3.4202 C   0  0  0  0  0  0  0  0  0  0  0  0
   -0.5896    3.6051   -3.0364 C   0  0  0  0  0  0  0  0  0  0  0  0
    0.0888    3.1236   -1.9264 C   0  0  0  0  0  0  0  0  0  0  0  0
   -0.4068    2.0855   -1.1648 C   0  0  0  0  0  0  0  0  0  0  0  0
   -1.6131    1.5432   -1.5568 C   0  0  0  0  0  0  0  0  0  0  0  0
   -2.2975    2.0195   -2.6661 C   0  0  0  0  0  0  0  0  0  0  0  0
   -1.8574    0.5467   -0.6310 C   0  0  0  0  0  0  0  0  0  0  0  0
   -3.0321   -0.3106   -0.6415 C   0  0  0  0  0  0  0  0  0  0  0  0
   -3.9587   -0.3275    0.3782 C   0  0  0  0  0  0  0  0  0  0  0  0
   -5.0562   -1.1669    0.3107 C   0  0  0  0  0  0  0  0  0  0  0  0
   -5.2776   -2.0128   -0.7557 C   0  0  0  0  0  0  0  0  0  0  0  0
   -4.3553   -1.9996   -1.7770 C   0  0  0  0  0  0  0  0  0  0  0  0
   -3.2521   -1.1607   -1.7165 C   0  0  0  0  0  0  0  0  0  0  0  0
   -0.8283    0.4853    0.2976 C   0  0  0  0  0  0  0  0  0  0  0  0
   -0.7904   -0.4566    1.4368 C   0  0  0  0  0  0  0  0  0  0  0  0
   -0.6290    0.0233    2.7137 C   0  0  0  0  0  0  0  0  0  0  0  0
   -0.6092   -0.8379    3.7720 C   0  0  0  0  0  0  0  0  0  0  0  0
   -0.7514   -2.1821    3.5492 C   0  0  0  0  0  0  0  0  0  0  0  0
   -0.9142   -2.7041    2.2979 C   0  0  0  0  0  0  0  0  0  0  0  0
   -0.9307   -1.8139    1.2466 C   0  0  0  0  0  0  0  0  0  0  0  0
    0.0480    1.4348   -0.0480 N   0  0  0  0  0  0  0  0  0  0  0  0
    1.2808    1.7370    0.6267 C   0  0  0  0  0  0  0  0  0  0  0  0
    2.4528    0.8348   -0.1400 C   0  0  2  0  0  0  0  0  0  0  0  0
    1.7727   -0.4969    0.1896 O   0  0  0  0  0  0  0  0  0  0  0  0
    3.4030    0.7590    1.2594 C   0  0  0  0  0  0  0  0  0  0  0  0
    4.1280   -0.4794    1.0317 N   0  0  0  0  0  0  0  0  0  0  0  0
    5.3799   -0.5847    0.3647 C   0  0  0  0  0  0  0  0  0  0  0  0
    6.0687    0.3395   -0.1091 O   0  0  0  0  0  0  0  0  0  0  0  0
    5.7795   -2.0216    0.3044 C   0  0  0  0  0  0  0  0  0  0  0  0
    4.6121   -2.8080    0.8379 C   0  0  0  0  0  0  0  0  0  0  0  0
    3.7174   -1.7755    1.4287 C   0  0  0  0  0  0  0  0  0  0  0  0
    2.7454   -2.0333    2.1690 O   0  0  0  0  0  0  0  0  0  0  0  0
  1  2  1  0
  2  3  2  0
  3  4  1  0
  4  5  2  0
  5  6  1  0
  6  7  2  0
  6  8  1  0
  8  9  1  0
  9 10  2  0
 10 11  1  0
 11 12  2  0
 12 13  1  0
 13 14  2  0
  8 15  2  0
 15 16  1  0
 16 17  2  0
 17 18  1  0
 18 19  2  0
 19 20  1  0
 20 21  2  0
 15 22  1  0
 22 23  1  0
 23 24  1  0
 24 25  1  1
 24 26  1  0
 26 27  1  0
 27 28  1  0
 28 29  2  0
 28 30  1  0
 30 31  1  0
 31 32  1  0
 32 33  2  0
  7  2  1  0
 14  9  1  0
 21 16  1  0
 32 27  1  0
 22  5  1  0
M  END
>  <zinc_id>  (1) 
ZINC000000639578

>  <smiles>  (1) 
Cc1ccc2c(c1)c(-c1ccccc1)c(-c1ccccc1)n2C[C@H](O)CN1C(=O)CCC1=O

$$$$
