
     RDKit          3D

 30 33  0  0  0  0  0  0  0  0999 V2000
   -5.7331    2.5735    1.8015 C   0  0  0  0  0  0  0  0  0  0  0  0
   -5.3017    1.4115    0.9184 C   0  0  0  0  0  0  0  0  0  0  0  0
   -6.4005    0.3452    0.9507 C   0  0  0  0  0  0  0  0  0  0  0  0
   -5.2696    1.9223   -0.5163 C   0  0  0  0  0  0  0  0  0  0  0  0
   -4.8353    0.7395   -1.3756 C   0  0  0  0  0  0  0  0  0  0  0  0
   -3.5284    0.3446   -0.9005 N   0  0  0  0  0  0  0  0  0  0  0  0
   -2.4322    1.2247   -0.9189 C   0  0  0  0  0  0  0  0  0  0  0  0
   -2.5366    2.3993   -1.3502 O   0  0  0  0  0  0  0  0  0  0  0  0
   -1.1417    0.7679   -0.4268 C   0  0  0  0  0  0  0  0  0  0  0  0
    0.0432    1.4822   -0.3650 C   0  0  0  0  0  0  0  0  0  0  0  0
    0.2453    2.8307   -0.7765 N   0  0  0  0  0  0  0  0  0  0  0  0
    0.9909    0.6908    0.1532 N   0  0  0  0  0  0  0  0  0  0  0  0
    2.3691    1.0598    0.3839 C   0  0  0  0  0  0  0  0  0  0  0  0
    3.1913    0.7381   -0.8452 C   0  0  0  0  0  0  0  0  0  0  0  0
    4.6010    1.1318   -0.5683 C   0  0  0  0  0  0  0  0  0  0  0  0
    5.0513    2.3929   -0.8637 C   0  0  0  0  0  0  0  0  0  0  0  0
    6.3560    2.7166   -0.5937 C   0  0  0  0  0  0  0  0  0  0  0  0
    7.2385    1.8143   -0.0320 C   0  0  0  0  0  0  0  0  0  0  0  0
    6.7574    0.5539    0.2542 C   0  0  0  0  0  0  0  0  0  0  0  0
    5.4528    0.2192   -0.0120 C   0  0  0  0  0  0  0  0  0  0  0  0
    0.4521   -0.5081    0.4258 C   0  0  0  0  0  0  0  0  0  0  0  0
    0.9617   -1.6596    0.9542 N   0  0  0  0  0  0  0  0  0  0  0  0
    0.1712   -2.7311    1.1177 C   0  0  0  0  0  0  0  0  0  0  0  0
    0.6705   -3.9155    1.6547 C   0  0  0  0  0  0  0  0  0  0  0  0
   -0.1661   -5.0040    1.8120 C   0  0  0  0  0  0  0  0  0  0  0  0
   -1.4978   -4.9607    1.4514 C   0  0  0  0  0  0  0  0  0  0  0  0
   -1.9895   -3.7908    0.9214 C   0  0  0  0  0  0  0  0  0  0  0  0
   -1.1589   -2.6979    0.7610 C   0  0  0  0  0  0  0  0  0  0  0  0
   -1.6856   -1.5897    0.2431 N   0  0  0  0  0  0  0  0  0  0  0  0
   -0.8753   -0.5015    0.0791 C   0  0  0  0  0  0  0  0  0  0  0  0
  1  2  1  0
  2  3  1  0
  2  4  1  0
  4  5  1  0
  5  6  1  0
  6  7  1  0
  7  8  2  0
  7  9  1  0
  9 10  2  0
 10 11  1  0
 10 12  1  0
 12 13  1  0
 13 14  1  0
 14 15  1  0
 15 16  2  0
 16 17  1  0
 17 18  2  0
 18 19  1  0
 19 20  2  0
 12 21  1  0
 21 22  2  0
 22 23  1  0
 23 24  2  0
 24 25  1  0
 25 26  2  0
 26 27  1  0
 27 28  2  0
 28 29  1  0
 29 30  2  0
 30  9  1  0
 20 15  1  0
 30 21  1  0
 28 23  1  0
M  END
>  <zinc_id>  (1) 
ZINC000002438186

>  <smiles>  (1) 
CC(C)CCNC(=O)c1c(N)n(CCc2ccccc2)c2nc3ccccc3nc12

$$$$
