
     RDKit          3D

 32 35  0  0  0  0  0  0  0  0999 V2000
    4.6775    4.0151    0.4323 C   0  0  0  0  0  0  0  0  0  0  0  0
    4.7803    2.5382    0.5697 C   0  0  0  0  0  0  0  0  0  0  0  0
    6.0466    2.0326    0.8256 C   0  0  0  0  0  0  0  0  0  0  0  0
    6.1644    0.6711    0.9567 C   0  0  0  0  0  0  0  0  0  0  0  0
    5.0672   -0.1669    0.8387 C   0  0  0  0  0  0  0  0  0  0  0  0
    5.2403   -1.6296    0.9876 C   0  0  0  0  0  0  0  0  0  0  0  0
    3.8076    0.3330    0.5842 C   0  0  0  0  0  0  0  0  0  0  0  0
    2.7272   -0.5736    0.4767 N   0  0  0  0  0  0  0  0  0  0  0  0
    1.3853   -0.1933    0.2140 C   0  0  0  0  0  0  0  0  0  0  0  0
    1.1904    1.0207    0.0762 O   0  0  0  0  0  0  0  0  0  0  0  0
    0.2704   -1.2472    0.1135 C   0  0  1  0  0  0  0  0  0  0  0  0
   -1.0245   -0.2645   -0.8791 S   0  0  0  0  0  0  0  0  0  0  0  0
   -1.5605    1.0072    0.2504 C   0  0  0  0  0  0  0  0  0  0  0  0
   -1.1047    2.2400    0.4632 N   0  0  0  0  0  0  0  0  0  0  0  0
   -1.7876    2.8716    1.4031 N   0  0  0  0  0  0  0  0  0  0  0  0
   -2.7200    1.9845    1.7984 C   0  0  0  0  0  0  0  0  0  0  0  0
   -3.7622    2.2179    2.8621 C   0  0  0  0  0  0  0  0  0  0  0  0
   -2.6002    0.8369    1.1068 N   0  0  0  0  0  0  0  0  0  0  0  0
   -3.4064   -0.3512    1.2345 C   0  0  0  0  0  0  0  0  0  0  0  0
   -4.5885   -0.3236    0.3298 C   0  0  0  0  0  0  0  0  0  0  0  0
   -5.7578    0.2255    0.8504 C   0  0  0  0  0  0  0  0  0  0  0  0
   -6.9180    0.3114    0.1190 C   0  0  0  0  0  0  0  0  0  0  0  0
   -6.9289   -0.1688   -1.1966 C   0  0  0  0  0  0  0  0  0  0  0  0
   -5.7606   -0.7154   -1.7116 C   0  0  0  0  0  0  0  0  0  0  0  0
   -4.5975   -0.7921   -0.9524 C   0  0  0  0  0  0  0  0  0  0  0  0
    0.8239   -2.0844   -1.0641 C   0  0  0  0  0  0  0  0  0  0  0  0
    1.5633   -1.5972   -2.0626 C   0  0  0  0  0  0  0  0  0  0  0  0
    2.0112   -2.4293   -3.0704 C   0  0  0  0  0  0  0  0  0  0  0  0
    1.6701   -3.7648   -3.0066 C   0  0  0  0  0  0  0  0  0  0  0  0
    0.9116   -4.2944   -1.9929 C   0  0  0  0  0  0  0  0  0  0  0  0
    0.4907   -3.4101   -1.0093 C   0  0  0  0  0  0  0  0  0  0  0  0
    3.6892    1.7009    0.4529 C   0  0  0  0  0  0  0  0  0  0  0  0
  1  2  1  0
  2  3  2  0
  3  4  1  0
  4  5  2  0
  5  6  1  0
  5  7  1  0
  7  8  1  0
  8  9  1  0
  9 10  2  0
 11  9  1  6
 11 12  1  0
 12 13  1  0
 13 14  2  0
 14 15  1  0
 15 16  2  0
 16 17  1  0
 16 18  1  0
 18 19  1  0
 19 20  1  0
 20 21  2  0
 21 22  1  0
 22 23  2  0
 23 24  1  0
 24 25  2  0
 11 26  1  0
 26 27  2  0
 27 28  1  0
 28 29  2  0
 29 30  1  0
 30 31  2  0
  7 32  2  0
 32  2  1  0
 18 13  1  0
 25 20  1  0
 31 26  1  0
M  END
>  <zinc_id>  (1) 
ZINC000002660743

>  <smiles>  (1) 
Cc1ccc(C)c(NC(=O)[C@@H](Sc2nnc(C)n2Cc2ccccc2)c2ccccc2)c1

$$$$
