
     RDKit          3D

 31 34  0  0  0  0  0  0  0  0999 V2000
   -2.6041   -2.1057   -3.4216 C   0  0  0  0  0  0  0  0  0  0  0  0
   -2.8611   -1.3728   -2.2576 O   0  0  0  0  0  0  0  0  0  0  0  0
   -1.9017   -0.5544   -1.6552 C   0  0  0  0  0  0  0  0  0  0  0  0
   -0.6281   -0.4288   -2.1930 C   0  0  0  0  0  0  0  0  0  0  0  0
    0.3188    0.4043   -1.5631 C   0  0  0  0  0  0  0  0  0  0  0  0
   -0.0984    1.0426   -0.4413 C   0  0  0  0  0  0  0  0  0  0  0  0
   -1.3293    0.9140    0.0686 C   0  0  0  0  0  0  0  0  0  0  0  0
   -2.2793    0.1118   -0.5165 C   0  0  0  0  0  0  0  0  0  0  0  0
   -3.5317   -0.0255   -0.0065 O   0  0  0  0  0  0  0  0  0  0  0  0
   -4.0257    0.6048    1.1473 C   0  0  0  0  0  0  0  0  0  0  0  0
   -5.4264    0.1967    1.3633 C   0  0  0  0  0  0  0  0  0  0  0  0
   -5.7281   -0.9044    2.1173 C   0  0  0  0  0  0  0  0  0  0  0  0
   -7.0584   -1.2966    2.3257 C   0  0  0  0  0  0  0  0  0  0  0  0
   -8.0321   -0.5207    1.7359 C   0  0  0  0  0  0  0  0  0  0  0  0
   -7.7790    0.5923    0.9712 C   0  0  0  0  0  0  0  0  0  0  0  0
   -6.4367    0.9285    0.8026 C   0  0  0  0  0  0  0  0  0  0  0  0
    1.0196    1.9436    0.1774 C   0  0  1  0  0  0  0  0  0  0  0  0
    2.2134    0.9667    0.2138 C   0  0  0  0  0  0  0  0  0  0  0  0
    1.9243   -0.3269    0.5595 C   0  0  0  0  0  0  0  0  0  0  0  0
    2.9155   -1.3028    0.6337 C   0  0  0  0  0  0  0  0  0  0  0  0
    4.2402   -0.9814    0.3545 C   0  0  0  0  0  0  0  0  0  0  0  0
    5.2349   -1.9381    0.4228 O   0  0  0  0  0  0  0  0  0  0  0  0
    6.5726   -1.8842    0.2073 C   0  0  0  0  0  0  0  0  0  0  0  0
    7.4371   -1.0146    1.0164 C   0  0  0  0  0  0  0  0  0  0  0  0
    7.4426   -1.2719    2.4800 C   0  0  0  0  0  0  0  0  0  0  0  0
    7.2260    0.4395    0.7467 C   0  0  0  0  0  0  0  0  0  0  0  0
    4.4946    0.3219    0.0119 C   0  0  0  0  0  0  0  0  0  0  0  0
    3.4892    1.2665   -0.0528 C   0  0  0  0  0  0  0  0  0  0  0  0
    1.3407    2.7267   -1.1227 N   0  0  0  0  0  0  0  0  0  0  0  0
    2.1624    1.9329   -1.9665 C   0  0  0  0  0  0  0  0  0  0  0  0
    1.6882    0.5204   -2.1589 C   0  0  0  0  0  0  0  0  0  0  0  0
  1  2  1  0
  2  3  1  0
  3  4  2  0
  4  5  1  0
  5  6  2  0
  6  7  1  0
  7  8  2  0
  8  9  1  0
  9 10  1  0
 10 11  1  0
 11 12  2  0
 12 13  1  0
 13 14  2  0
 14 15  1  0
 15 16  2  0
  6 17  1  0
 17 18  1  1
 18 19  2  0
 19 20  1  0
 20 21  2  0
 21 22  1  0
 22 23  1  0
 23 24  1  0
 24 25  1  0
 24 26  1  0
 21 27  1  0
 27 28  2  0
 17 29  1  0
 29 30  1  0
 30 31  1  0
  8  3  1  0
 16 11  1  0
 28 18  1  0
 31  5  1  0
M  END
>  <zinc_id>  (1) 
ZINC000003702266

>  <smiles>  (1) 
COc1cc2c(cc1OCc1ccccc1)[C@H](c1ccc(OCC(C)C)cc1)NCC2

$$$$
