
     RDKit          3D

 31 34  0  0  0  0  0  0  0  0999 V2000
   -5.5859   -2.4646    1.4611 C   0  0  0  0  0  0  0  0  0  0  0  0
   -5.4766   -1.4322    0.4141 C   0  0  0  0  0  0  0  0  0  0  0  0
   -6.8365   -1.3811   -0.3238 C   0  0  0  0  0  0  0  0  0  0  0  0
   -4.4585   -1.3309   -0.4990 C   0  0  0  0  0  0  0  0  0  0  0  0
   -3.0854   -1.1552   -0.3095 N   0  0  0  0  0  0  0  0  0  0  0  0
   -2.0505   -2.0105   -0.1702 C   0  0  0  0  0  0  0  0  0  0  0  0
   -2.2447   -3.4201   -0.1887 N   0  0  0  0  0  0  0  0  0  0  0  0
   -0.8516   -1.3104   -0.0142 C   0  0  0  0  0  0  0  0  0  0  0  0
    0.4442   -1.9471    0.1516 C   0  0  0  0  0  0  0  0  0  0  0  0
    0.4586   -3.2505    0.1653 O   0  0  0  0  0  0  0  0  0  0  0  0
    1.6327   -1.3143    0.2926 N   0  0  0  0  0  0  0  0  0  0  0  0
    2.9984   -2.0045    0.4612 C   0  0  1  0  0  0  0  0  0  0  0  0
    2.4678   -3.5267    0.5851 C   0  0  0  0  0  0  0  0  0  0  0  0
    3.3197   -2.1130   -1.1352 C   0  0  0  0  0  0  0  0  0  0  0  0
    3.3763   -0.7068   -1.6726 C   0  0  0  0  0  0  0  0  0  0  0  0
    4.4580    0.0916   -1.0604 C   0  0  0  0  0  0  0  0  0  0  0  0
    4.1748    0.7923    0.0917 C   0  0  0  0  0  0  0  0  0  0  0  0
    5.1197    1.5648    0.7510 C   0  0  0  0  0  0  0  0  0  0  0  0
    6.4076    1.6526    0.2524 C   0  0  0  0  0  0  0  0  0  0  0  0
    6.7055    0.9593   -0.8942 C   0  0  0  0  0  0  0  0  0  0  0  0
    5.7505    0.1845   -1.5539 C   0  0  0  0  0  0  0  0  0  0  0  0
   -1.1781    0.0110   -0.0612 C   0  0  0  0  0  0  0  0  0  0  0  0
   -0.3976    1.1118    0.0428 N   0  0  0  0  0  0  0  0  0  0  0  0
   -0.9832    2.3181   -0.0330 C   0  0  0  0  0  0  0  0  0  0  0  0
   -0.2468    3.4958    0.0674 C   0  0  0  0  0  0  0  0  0  0  0  0
   -0.8368    4.7430   -0.0079 C   0  0  0  0  0  0  0  0  0  0  0  0
   -2.2005    4.8688   -0.1887 C   0  0  0  0  0  0  0  0  0  0  0  0
   -2.9277    3.7096   -0.2874 C   0  0  0  0  0  0  0  0  0  0  0  0
   -2.3389    2.4594   -0.2121 C   0  0  0  0  0  0  0  0  0  0  0  0
   -3.0851    1.3282   -0.3125 N   0  0  0  0  0  0  0  0  0  0  0  0
   -2.5293    0.0769   -0.2394 C   0  0  0  0  0  0  0  0  0  0  0  0
  1  2  1  0
  2  3  1  0
  2  4  1  0
  4  5  1  0
  5  6  1  0
  6  7  1  0
  6  8  2  0
  8  9  1  0
  9 10  2  0
  9 11  1  0
 11 12  1  0
 12 13  1  6
 12 14  1  0
 14 15  1  0
 15 16  1  0
 16 17  2  0
 17 18  1  0
 18 19  2  0
 19 20  1  0
 20 21  2  0
  8 22  1  0
 22 23  2  0
 23 24  1  0
 24 25  2  0
 25 26  1  0
 26 27  2  0
 27 28  1  0
 28 29  2  0
 29 30  1  0
 30 31  2  0
 31  5  1  0
 21 16  1  0
 31 22  1  0
 29 24  1  0
M  END
>  <zinc_id>  (1) 
ZINC000002377861

>  <smiles>  (1) 
CC(C)Cn1c(N)c(C(=O)N[C@@H](C)CCc2ccccc2)c2nc3ccccc3nc21

$$$$
