
     RDKit          3D

 30 32  0  0  0  0  0  0  0  0999 V2000
   -7.5689    0.1764   -0.5524 C   0  0  0  0  0  0  0  0  0  0  0  0
   -6.9647    0.2203    0.8124 C   0  0  0  0  0  0  0  0  0  0  0  0
   -5.7030    1.0454    0.8840 C   0  0  0  0  0  0  0  0  0  0  0  0
   -6.7978   -1.1714    1.3302 C   0  0  0  0  0  0  0  0  0  0  0  0
   -5.9124   -2.0235    0.4768 C   0  0  0  0  0  0  0  0  0  0  0  0
   -4.5900   -1.4337    0.3972 N   0  0  0  0  0  0  0  0  0  0  0  0
   -3.5199   -1.9797   -0.3237 C   0  0  0  0  0  0  0  0  0  0  0  0
   -3.6985   -3.0550   -0.9517 O   0  0  0  0  0  0  0  0  0  0  0  0
   -2.2188   -1.3208   -0.3515 C   0  0  0  0  0  0  0  0  0  0  0  0
   -1.9071   -0.1413    0.2973 C   0  0  0  0  0  0  0  0  0  0  0  0
   -0.5893    0.1044   -0.0015 C   0  0  0  0  0  0  0  0  0  0  0  0
   -0.1516   -0.9211   -0.8111 C   0  0  0  0  0  0  0  0  0  0  0  0
    1.2113   -1.1098   -1.4043 C   0  0  0  0  0  0  0  0  0  0  0  0
    2.0993   -0.0313   -1.0213 N   0  0  0  0  0  0  0  0  0  0  0  0
    2.2191    0.0000    0.4167 C   0  0  0  0  0  0  0  0  0  0  0  0
    2.7606   -1.2538    0.9420 C   0  0  0  0  0  0  0  0  0  0  0  0
    2.9270   -1.3571    2.3155 C   0  0  0  0  0  0  0  0  0  0  0  0
    3.4275   -2.4905    2.9107 C   0  0  0  0  0  0  0  0  0  0  0  0
    3.7830   -3.5717    2.1471 C   0  0  0  0  0  0  0  0  0  0  0  0
    3.6237   -3.4871    0.7708 C   0  0  0  0  0  0  0  0  0  0  0  0
    3.1177   -2.3404    0.1725 C   0  0  0  0  0  0  0  0  0  0  0  0
    1.5978    1.1789   -1.5771 C   0  0  0  0  0  0  0  0  0  0  0  0
    2.4294    2.3679   -1.2515 C   0  0  0  0  0  0  0  0  0  0  0  0
    2.1797    3.1151   -0.1179 C   0  0  0  0  0  0  0  0  0  0  0  0
    2.9436    4.2265    0.2028 C   0  0  0  0  0  0  0  0  0  0  0  0
    3.9841    4.6269   -0.6023 C   0  0  0  0  0  0  0  0  0  0  0  0
    4.7525    5.7098   -0.3188 F   0  0  0  0  0  0  0  0  0  0  0  0
    4.2478    3.8905   -1.7408 C   0  0  0  0  0  0  0  0  0  0  0  0
    3.4734    2.7705   -2.0582 C   0  0  0  0  0  0  0  0  0  0  0  0
   -1.1555   -1.7444   -0.9916 O   0  0  0  0  0  0  0  0  0  0  0  0
  1  2  1  0
  2  3  1  0
  2  4  1  0
  4  5  1  0
  5  6  1  0
  6  7  1  0
  7  8  2  0
  7  9  1  0
  9 10  2  0
 10 11  1  0
 11 12  2  0
 12 13  1  0
 13 14  1  0
 14 15  1  0
 15 16  1  0
 16 17  2  0
 17 18  1  0
 18 19  2  0
 19 20  1  0
 20 21  2  0
 14 22  1  0
 22 23  1  0
 23 24  2  0
 24 25  1  0
 25 26  2  0
 26 27  1  0
 26 28  1  0
 28 29  2  0
 12 30  1  0
 30  9  1  0
 21 16  1  0
 29 23  1  0
M  END
>  <zinc_id>  (1) 
ZINC000004518559

>  <smiles>  (1) 
CC(C)CCNC(=O)c1ccc(CN(Cc2ccccc2)Cc2ccc(F)cc2)o1

$$$$
