
     RDKit          3D

 31 34  0  0  0  0  0  0  0  0999 V2000
   -4.0865    6.3936   -0.5944 C   0  0  0  0  0  0  0  0  0  0  0  0
   -2.6679    5.8605   -0.6527 C   0  0  0  0  0  0  0  0  0  0  0  0
   -2.5920    4.4567   -0.1221 C   0  0  0  0  0  0  0  0  0  0  0  0
   -1.1792    3.9551   -0.1912 C   0  0  0  0  0  0  0  0  0  0  0  0
   -1.1447    2.6025    0.3254 N   0  0  0  0  0  0  0  0  0  0  0  0
    0.0828    1.8867    0.3708 C   0  0  0  0  0  0  0  0  0  0  0  0
    1.1072    2.5179   -0.0649 O   0  0  0  0  0  0  0  0  0  0  0  0
    0.2118    0.5337    0.8654 C   0  0  0  0  0  0  0  0  0  0  0  0
    1.2235   -0.2135    0.9763 C   0  0  0  0  0  0  0  0  0  0  0  0
    2.6478    0.0897    0.6107 C   0  0  0  0  0  0  0  0  0  0  0  0
    3.1448    1.2937    1.0155 C   0  0  0  0  0  0  0  0  0  0  0  0
    4.4578    1.6836    0.7173 C   0  0  0  0  0  0  0  0  0  0  0  0
    5.2408    0.8164    0.0005 C   0  0  0  0  0  0  0  0  0  0  0  0
    4.7080   -0.3876   -0.3907 C   0  0  0  0  0  0  0  0  0  0  0  0
    3.4079   -0.7790   -0.0979 C   0  0  0  0  0  0  0  0  0  0  0  0
    2.8942   -2.0008   -0.5025 O   0  0  0  0  0  0  0  0  0  0  0  0
    3.7145   -2.8815   -1.2479 C   0  0  0  0  0  0  0  0  0  0  0  0
    4.9562   -3.2947   -0.5236 C   0  0  0  0  0  0  0  0  0  0  0  0
    0.7815   -1.3876    1.5798 N   0  0  0  0  0  0  0  0  0  0  0  0
   -0.4415   -1.5762    1.4922 O   0  0  0  0  0  0  0  0  0  0  0  0
   -1.1076   -0.2316    1.3217 C   0  0  2  0  0  0  0  0  0  0  0  0
   -1.7108   -0.5171   -0.0929 C   0  0  0  0  0  0  0  0  0  0  0  0
   -1.7006    0.3882   -1.0840 C   0  0  0  0  0  0  0  0  0  0  0  0
   -2.2516    0.0725   -2.3195 C   0  0  0  0  0  0  0  0  0  0  0  0
   -2.7993   -1.1639   -2.5099 C   0  0  0  0  0  0  0  0  0  0  0  0
   -2.8236   -2.1162   -1.5074 C   0  0  0  0  0  0  0  0  0  0  0  0
   -3.3732   -3.3629   -1.6838 C   0  0  0  0  0  0  0  0  0  0  0  0
   -3.3676   -4.2678   -0.6419 C   0  0  0  0  0  0  0  0  0  0  0  0
   -2.8154   -3.9444    0.5887 C   0  0  0  0  0  0  0  0  0  0  0  0
   -2.2666   -2.6802    0.7437 C   0  0  0  0  0  0  0  0  0  0  0  0
   -2.2511   -1.7458   -0.2707 C   0  0  0  0  0  0  0  0  0  0  0  0
  1  2  1  0
  2  3  1  0
  3  4  1  0
  4  5  1  0
  5  6  1  0
  6  7  2  0
  6  8  1  0
  8  9  2  0
  9 10  1  0
 10 11  2  0
 11 12  1  0
 12 13  2  0
 13 14  1  0
 14 15  2  0
 15 16  1  0
 16 17  1  0
 17 18  1  0
  9 19  1  0
 19 20  1  0
 20 21  1  0
 21 22  1  6
 22 23  2  0
 23 24  1  0
 24 25  2  0
 25 26  1  0
 26 27  2  0
 27 28  1  0
 28 29  2  0
 29 30  1  0
 30 31  2  0
 21  8  1  0
 31 22  1  0
 15 10  1  0
 31 26  1  0
M  END
>  <zinc_id>  (1) 
ZINC000002468071

>  <smiles>  (1) 
CCCCNC(=O)C1=C(c2ccccc2OCC)NO[C@@H]1c1cccc2ccccc12

$$$$
