
     RDKit          3D

 30 33  0  0  0  0  0  0  0  0999 V2000
   -9.0252   -0.2299    1.3459 C   0  0  0  0  0  0  0  0  0  0  0  0
   -8.6125    0.0472    0.0208 O   0  0  0  0  0  0  0  0  0  0  0  0
   -7.2689   -0.0402   -0.3348 C   0  0  0  0  0  0  0  0  0  0  0  0
   -6.2993   -0.3959    0.5799 C   0  0  0  0  0  0  0  0  0  0  0  0
   -4.9678   -0.4819    0.2256 C   0  0  0  0  0  0  0  0  0  0  0  0
   -4.5392   -0.2170   -1.0583 C   0  0  0  0  0  0  0  0  0  0  0  0
   -3.1310   -0.2977   -1.4714 C   0  0  0  0  0  0  0  0  0  0  0  0
   -2.7665   -0.6520   -2.7469 C   0  0  0  0  0  0  0  0  0  0  0  0
   -1.4744   -0.7080   -3.0655 N   0  0  0  0  0  0  0  0  0  0  0  0
   -0.5129   -0.4257   -2.1671 C   0  0  0  0  0  0  0  0  0  0  0  0
   -0.8370   -0.0660   -0.8759 C   0  0  0  0  0  0  0  0  0  0  0  0
    0.2104    0.2450    0.1125 C   0  0  0  0  0  0  0  0  0  0  0  0
    1.5514    0.1915   -0.2120 C   0  0  0  0  0  0  0  0  0  0  0  0
    2.5434    0.4798    0.7016 C   0  0  0  0  0  0  0  0  0  0  0  0
    3.8728    0.3815    0.2210 N   0  0  0  0  0  0  0  0  0  0  0  0
    4.9873    0.7217    1.3055 C   0  0  1  0  0  0  0  0  0  0  0  0
    4.5137   -0.4936    2.3478 C   0  0  0  0  0  0  0  0  0  0  0  0
    6.1348   -0.1513    0.5872 C   0  0  0  0  0  0  0  0  0  0  0  0
    5.8865   -1.3726    0.1335 C   0  0  0  0  0  0  0  0  0  0  0  0
    6.8720   -2.1077   -0.4772 C   0  0  0  0  0  0  0  0  0  0  0  0
    8.1204   -1.5565   -0.6106 C   0  0  0  0  0  0  0  0  0  0  0  0
    8.3916   -0.2833   -0.1413 C   0  0  0  0  0  0  0  0  0  0  0  0
    7.3606    0.4360    0.4762 C   0  0  0  0  0  0  0  0  0  0  0  0
    2.1851    0.8207    1.9378 N   0  0  0  0  0  0  0  0  0  0  0  0
    0.8717    0.8776    2.2711 C   0  0  0  0  0  0  0  0  0  0  0  0
    0.5591    1.2657    3.6676 C   0  0  0  0  0  0  0  0  0  0  0  0
   -0.1078    0.5931    1.3695 N   0  0  0  0  0  0  0  0  0  0  0  0
   -2.1636   -0.0088   -0.5504 C   0  0  0  0  0  0  0  0  0  0  0  0
   -5.5118    0.1394   -1.9739 C   0  0  0  0  0  0  0  0  0  0  0  0
   -6.8428    0.2249   -1.6182 C   0  0  0  0  0  0  0  0  0  0  0  0
  1  2  1  0
  2  3  1  0
  3  4  2  0
  4  5  1  0
  5  6  2  0
  6  7  1  0
  7  8  2  0
  8  9  1  0
  9 10  2  0
 10 11  1  0
 11 12  1  0
 12 13  2  0
 13 14  1  0
 14 15  1  0
 15 16  1  0
 16 17  1  1
 16 18  1  0
 18 19  2  0
 19 20  1  0
 20 21  2  0
 21 22  1  0
 22 23  2  0
 14 24  2  0
 24 25  1  0
 25 26  1  0
 25 27  2  0
 11 28  2  0
  6 29  1  0
 29 30  2  0
 30  3  1  0
 28  7  1  0
 27 12  1  0
 23 18  1  0
M  END
>  <zinc_id>  (1) 
ZINC000001497277

>  <smiles>  (1) 
COc1ccc(-c2cncc(-c3cc(N[C@@H](C)c4ccccc4)nc(C)n3)c2)cc1

$$$$
