
     RDKit          3D

 32 35  0  0  0  0  0  0  0  0999 V2000
   -2.4733   -3.6520   -0.3290 C   0  0  0  0  0  0  0  0  0  0  0  0
   -2.5272   -2.3268   -0.3545 C   0  0  0  0  0  0  0  0  0  0  0  0
   -3.7016   -1.5362   -0.1747 N   0  0  0  0  0  0  0  0  0  0  0  0
   -3.5830   -0.2764   -0.2744 C   0  0  0  0  0  0  0  0  0  0  0  0
   -4.7794    0.5821   -0.1133 C   0  0  0  0  0  0  0  0  0  0  0  0
   -2.2887    0.5260   -0.4304 C   0  0  0  0  0  0  0  0  0  0  0  0
   -2.6435    1.6168    0.6241 C   0  0  0  0  0  0  0  0  0  0  0  0
   -2.0171    1.7238    1.6885 O   0  0  0  0  0  0  0  0  0  0  0  0
   -3.6857    2.4961    0.3784 O   0  0  0  0  0  0  0  0  0  0  0  0
   -4.0308    3.5087    1.3372 C   0  0  0  0  0  0  0  0  0  0  0  0
   -1.2328   -0.3446    0.4351 C   0  0  2  0  0  0  0  0  0  0  0  0
    0.1814    0.1109    0.2275 C   0  0  0  0  0  0  0  0  0  0  0  0
    1.0996   -0.9679    0.3759 C   0  0  0  0  0  0  0  0  0  0  0  0
    2.3041   -0.5056    0.5464 N   0  0  0  0  0  0  0  0  0  0  0  0
    3.4878   -1.3031    0.7380 C   0  0  0  0  0  0  0  0  0  0  0  0
    3.4082   -2.6541    0.9657 C   0  0  0  0  0  0  0  0  0  0  0  0
    4.5217   -3.4539    1.1597 C   0  0  0  0  0  0  0  0  0  0  0  0
    5.7668   -2.8717    1.1241 C   0  0  0  0  0  0  0  0  0  0  0  0
    5.8555   -1.4933    0.8921 C   0  0  0  0  0  0  0  0  0  0  0  0
    4.7367   -0.7110    0.7006 C   0  0  0  0  0  0  0  0  0  0  0  0
    2.2600    0.7843    0.5195 N   0  0  0  0  0  0  0  0  0  0  0  0
    0.9524    1.1701    0.3182 C   0  0  0  0  0  0  0  0  0  0  0  0
    0.6095    2.5678    0.0582 C   0  0  0  0  0  0  0  0  0  0  0  0
    1.3135    3.5952    0.6224 C   0  0  0  0  0  0  0  0  0  0  0  0
    0.9132    4.8297    0.3727 C   0  0  0  0  0  0  0  0  0  0  0  0
   -0.1749    5.0084   -0.4307 C   0  0  0  0  0  0  0  0  0  0  0  0
   -0.5813    3.3978   -0.7966 S   0  0  0  0  0  0  0  0  0  0  0  0
   -1.3384   -1.5407   -0.6418 C   0  0  0  0  0  0  0  0  0  0  0  0
   -0.5646   -1.7893   -1.5913 C   0  0  0  0  0  0  0  0  0  0  0  0
    0.5288   -1.0492   -1.8616 O   0  0  0  0  0  0  0  0  0  0  0  0
   -0.8916   -2.9278   -2.4075 O   0  0  0  0  0  0  0  0  0  0  0  0
   -1.4251   -2.5142   -3.6785 C   0  0  0  0  0  0  0  0  0  0  0  0
  1  2  2  0
  2  3  1  0
  3  4  2  0
  4  5  1  0
  4  6  1  0
  6  7  1  0
  7  8  2  0
  7  9  1  0
  9 10  1  0
  6 11  1  0
 11 12  1  6
 12 13  2  0
 13 14  1  0
 14 15  1  0
 15 16  2  0
 16 17  1  0
 17 18  2  0
 18 19  1  0
 19 20  2  0
 14 21  1  0
 21 22  2  0
 22 23  1  0
 23 24  2  0
 24 25  1  0
 25 26  2  0
 26 27  1  0
 11 28  1  0
 28 29  2  0
 29 30  1  0
 29 31  1  0
 31 32  1  0
 28  2  1  0
 22 12  1  0
 27 23  1  0
 20 15  1  0
M  END
>  <zinc_id>  (1) 
ZINC000004126098

>  <smiles>  (1) 
C=C1N=C(C)C(C(=O)OC)[C@H](c2cn(-c3ccccc3)nc2-c2cccs2)/C1=C(\O)OC

$$$$
