
     RDKit          3D

 31 34  0  0  0  0  0  0  0  0999 V2000
   -4.1719   -2.5601   -2.5421 C   0  0  0  0  0  0  0  0  0  0  0  0
   -3.8536   -2.8106   -1.1130 C   0  0  0  0  0  0  0  0  0  0  0  0
   -4.6817   -3.6523   -0.4024 C   0  0  0  0  0  0  0  0  0  0  0  0
   -4.4428   -3.9231    0.9160 C   0  0  0  0  0  0  0  0  0  0  0  0
   -5.3493   -4.8351    1.6661 C   0  0  0  0  0  0  0  0  0  0  0  0
   -3.3423   -3.3372    1.5511 C   0  0  0  0  0  0  0  0  0  0  0  0
   -2.5016   -2.4928    0.8593 C   0  0  0  0  0  0  0  0  0  0  0  0
   -1.4006   -1.9270    1.5553 N   0  0  0  0  0  0  0  0  0  0  0  0
   -0.4796   -1.0419    0.9157 C   0  0  0  0  0  0  0  0  0  0  0  0
   -0.7864    0.2023    0.5976 C   0  0  0  0  0  0  0  0  0  0  0  0
   -2.3745    1.0082    0.8955 S   0  0  0  0  0  0  0  0  0  0  0  0
   -2.2553    2.6758    0.2766 C   0  0  0  0  0  0  0  0  0  0  0  0
   -1.8190    3.6800    1.1201 C   0  0  0  0  0  0  0  0  0  0  0  0
   -1.7105    4.9909    0.6829 C   0  0  0  0  0  0  0  0  0  0  0  0
   -2.0360    5.3363   -0.6139 C   0  0  0  0  0  0  0  0  0  0  0  0
   -2.4784    4.3358   -1.4800 C   0  0  0  0  0  0  0  0  0  0  0  0
   -2.5774    3.0300   -1.0140 C   0  0  0  0  0  0  0  0  0  0  0  0
    0.3944    0.7700   -0.0266 C   0  0  0  0  0  0  0  0  0  0  0  0
    0.4936    1.9392   -0.4662 O   0  0  0  0  0  0  0  0  0  0  0  0
    1.4212   -0.2024   -0.0635 N   0  0  0  0  0  0  0  0  0  0  0  0
    2.7581   -0.0345   -0.6064 C   0  0  0  0  0  0  0  0  0  0  0  0
    3.7084    0.4653    0.4650 C   0  0  0  0  0  0  0  0  0  0  0  0
    5.0512    0.6235   -0.1202 C   0  0  0  0  0  0  0  0  0  0  0  0
    5.9249   -0.4343   -0.0920 C   0  0  0  0  0  0  0  0  0  0  0  0
    7.1933   -0.3063   -0.6372 C   0  0  0  0  0  0  0  0  0  0  0  0
    7.5805    0.8705   -1.2045 C   0  0  0  0  0  0  0  0  0  0  0  0
    6.7082    1.9261   -1.2325 C   0  0  0  0  0  0  0  0  0  0  0  0
    5.4342    1.8117   -0.6899 C   0  0  0  0  0  0  0  0  0  0  0  0
    0.8841   -1.3759    0.5363 C   0  0  0  0  0  0  0  0  0  0  0  0
    1.4954   -2.4788    0.6952 O   0  0  0  0  0  0  0  0  0  0  0  0
   -2.7866   -2.2533   -0.4653 C   0  0  0  0  0  0  0  0  0  0  0  0
  1  2  1  0
  2  3  2  0
  3  4  1  0
  4  5  1  0
  4  6  2  0
  6  7  1  0
  7  8  1  0
  8  9  1  0
  9 10  2  0
 10 11  1  0
 11 12  1  0
 12 13  2  0
 13 14  1  0
 14 15  2  0
 15 16  1  0
 16 17  2  0
 10 18  1  0
 18 19  2  0
 18 20  1  0
 20 21  1  0
 21 22  1  0
 22 23  1  0
 23 24  2  0
 24 25  1  0
 25 26  2  0
 26 27  1  0
 27 28  2  0
 20 29  1  0
 29 30  2  0
  7 31  2  0
 31  2  1  0
 29  9  1  0
 17 12  1  0
 28 23  1  0
M  END
>  <zinc_id>  (1) 
ZINC000001932119

>  <smiles>  (1) 
Cc1cc(C)cc(NC2=C(Sc3ccccc3)C(=O)N(CCc3ccccc3)C2=O)c1

$$$$
