
     RDKit          3D

 31 34  0  0  0  0  0  0  0  0999 V2000
    6.0053   -2.1857   -1.4647 C   0  0  0  0  0  0  0  0  0  0  0  0
    5.4751   -0.7643   -1.3424 C   0  0  0  0  0  0  0  0  0  0  0  0
    5.8405   -0.3453    0.1940 C   0  0  1  0  0  0  0  0  0  0  0  0
    5.2157    1.1223    0.0900 C   0  0  0  0  0  0  0  0  0  0  0  0
    4.6275   -1.0827    0.8698 C   0  0  0  0  0  0  0  0  0  0  0  0
    3.3947   -0.7372    0.5453 O   0  0  0  0  0  0  0  0  0  0  0  0
    2.5490    0.2954    0.6534 C   0  0  0  0  0  0  0  0  0  0  0  0
    2.9396    1.3278    1.2431 O   0  0  0  0  0  0  0  0  0  0  0  0
    1.1932    0.2546    0.1110 C   0  0  0  0  0  0  0  0  0  0  0  0
    0.5705   -0.7944   -0.5795 C   0  0  0  0  0  0  0  0  0  0  0  0
    1.2331   -1.9970   -0.8878 N   0  0  0  0  0  0  0  0  0  0  0  0
   -0.6822   -0.4595   -0.8951 N   0  0  0  0  0  0  0  0  0  0  0  0
   -1.7530   -1.1605   -1.5728 C   0  0  0  0  0  0  0  0  0  0  0  0
   -2.6322   -1.9013   -0.6402 C   0  0  0  0  0  0  0  0  0  0  0  0
   -3.7733   -1.2527   -0.1613 C   0  0  0  0  0  0  0  0  0  0  0  0
   -4.5563   -1.8967    0.7384 C   0  0  0  0  0  0  0  0  0  0  0  0
   -4.2175   -3.1658    1.1603 C   0  0  0  0  0  0  0  0  0  0  0  0
   -3.1008   -3.7800    0.6790 C   0  0  0  0  0  0  0  0  0  0  0  0
   -2.2702   -3.1643   -0.2411 C   0  0  0  0  0  0  0  0  0  0  0  0
   -1.1635   -3.7972   -0.7163 O   0  0  0  0  0  0  0  0  0  0  0  0
   -0.8618   -5.1165   -0.2323 C   0  0  0  0  0  0  0  0  0  0  0  0
   -0.9039    0.8128   -0.4219 C   0  0  0  0  0  0  0  0  0  0  0  0
   -1.9997    1.5964   -0.4906 N   0  0  0  0  0  0  0  0  0  0  0  0
   -1.9839    2.8284    0.0473 C   0  0  0  0  0  0  0  0  0  0  0  0
   -3.1128    3.6195   -0.0331 C   0  0  0  0  0  0  0  0  0  0  0  0
   -3.0161    4.8690    0.5403 C   0  0  0  0  0  0  0  0  0  0  0  0
   -1.9050    5.3581    1.1647 C   0  0  0  0  0  0  0  0  0  0  0  0
   -0.7919    4.5117    1.2157 C   0  0  0  0  0  0  0  0  0  0  0  0
   -0.8384    3.2528    0.6567 C   0  0  0  0  0  0  0  0  0  0  0  0
    0.2709    2.5012    0.7445 N   0  0  0  0  0  0  0  0  0  0  0  0
    0.2474    1.2511    0.1959 C   0  0  0  0  0  0  0  0  0  0  0  0
  1  2  1  0
  2  3  1  0
  3  4  1  6
  3  5  1  0
  5  6  1  0
  6  7  1  0
  7  8  2  0
  7  9  1  0
  9 10  2  0
 10 11  1  0
 10 12  1  0
 12 13  1  0
 13 14  1  0
 14 15  2  0
 15 16  1  0
 16 17  2  0
 17 18  1  0
 18 19  2  0
 19 20  1  0
 20 21  1  0
 12 22  1  0
 22 23  2  0
 23 24  1  0
 24 25  2  0
 25 26  1  0
 26 27  2  0
 27 28  1  0
 28 29  2  0
 29 30  1  0
 30 31  2  0
 31  9  1  0
 19 14  1  0
 31 22  1  0
 29 24  1  0
M  END
>  <zinc_id>  (1) 
ZINC000002394844

>  <smiles>  (1) 
CC[C@@H](C)COC(=O)c1c(N)n(Cc2ccccc2OC)c2nc3ccccc3nc12

$$$$
