
     RDKit          3D

 31 33  0  0  0  0  0  0  0  0999 V2000
   -2.6832    1.9985   -1.3359 C   0  0  0  0  0  0  0  0  0  0  0  0
   -2.8571    1.7825    0.0715 O   0  0  0  0  0  0  0  0  0  0  0  0
   -3.8809    0.9131    0.4500 C   0  0  0  0  0  0  0  0  0  0  0  0
   -4.6573    0.3223   -0.5488 C   0  0  0  0  0  0  0  0  0  0  0  0
   -5.6706   -0.5346   -0.2226 C   0  0  0  0  0  0  0  0  0  0  0  0
   -5.9106   -0.8057    1.1281 C   0  0  0  0  0  0  0  0  0  0  0  0
   -5.1365   -0.2147    2.0735 C   0  0  0  0  0  0  0  0  0  0  0  0
   -4.0929    0.6654    1.7977 C   0  0  0  0  0  0  0  0  0  0  0  0
   -3.2899    1.2637    2.8360 C   0  0  0  0  0  0  0  0  0  0  0  0
   -2.0192    0.7467    3.2266 C   0  0  0  0  0  0  0  0  0  0  0  0
   -0.9486    0.6110    2.4053 N   0  0  0  0  0  0  0  0  0  0  0  0
   -0.5554   -0.0782    1.2936 C   0  0  0  0  0  0  0  0  0  0  0  0
   -1.4116   -0.9036    0.7974 O   0  0  0  0  0  0  0  0  0  0  0  0
    0.7220    0.0320    0.6295 C   0  0  0  0  0  0  0  0  0  0  0  0
    1.6395    0.8262    1.0704 C   0  0  0  0  0  0  0  0  0  0  0  0
    1.6305    1.6939    2.1990 C   0  0  0  0  0  0  0  0  0  0  0  0
    1.2758    1.4510    3.4975 C   0  0  0  0  0  0  0  0  0  0  0  0
    1.4340    2.5896    4.2059 C   0  0  0  0  0  0  0  0  0  0  0  0
    1.8960    3.5462    3.3227 C   0  0  0  0  0  0  0  0  0  0  0  0
    1.9939    2.9827    2.1709 O   0  0  0  0  0  0  0  0  0  0  0  0
    0.9480   -0.7775   -0.5616 N   0  0  0  0  0  0  0  0  0  0  0  0
    2.1769   -0.6678   -1.2291 C   0  0  0  0  0  0  0  0  0  0  0  0
    3.0118    0.1405   -0.7303 O   0  0  0  0  0  0  0  0  0  0  0  0
    2.5565   -1.3971   -2.4258 C   0  0  0  0  0  0  0  0  0  0  0  0
    1.8122   -2.4784   -2.8839 C   0  0  0  0  0  0  0  0  0  0  0  0
    2.1595   -3.1744   -4.0190 C   0  0  0  0  0  0  0  0  0  0  0  0
    3.2784   -2.8243   -4.7623 C   0  0  0  0  0  0  0  0  0  0  0  0
    3.6697   -3.5593   -5.9913 C   0  0  0  0  0  0  0  0  0  0  0  0
    4.0211   -1.7309   -4.2881 C   0  0  0  0  0  0  0  0  0  0  0  0
    5.2209   -1.3751   -5.1096 C   0  0  0  0  0  0  0  0  0  0  0  0
    3.6672   -1.0437   -3.1578 C   0  0  0  0  0  0  0  0  0  0  0  0
  1  2  1  0
  2  3  1  0
  3  4  2  0
  4  5  1  0
  5  6  2  0
  6  7  1  0
  7  8  2  0
  8  9  1  0
  9 10  1  0
 10 11  1  0
 11 12  1  0
 12 13  2  0
 12 14  1  0
 14 15  2  0
 15 16  1  0
 16 17  2  0
 17 18  1  0
 18 19  2  0
 19 20  1  0
 14 21  1  0
 21 22  1  0
 22 23  2  0
 22 24  1  0
 24 25  2  0
 25 26  1  0
 26 27  2  0
 27 28  1  0
 27 29  1  0
 29 30  1  0
 29 31  2  0
  8  3  1  0
 20 16  1  0
 31 24  1  0
M  END
>  <zinc_id>  (1) 
ZINC000002152514

>  <smiles>  (1) 
COc1ccccc1CCNC(=O)/C(=C\c1ccco1)NC(=O)c1ccc(C)c(C)c1

$$$$
