
     RDKit          3D

 33 36  0  0  0  0  0  0  0  0999 V2000
   -8.6123    2.1985    1.1700 C   0  0  0  0  0  0  0  0  0  0  0  0
   -8.9523    1.3133   -0.0104 C   0  0  0  0  0  0  0  0  0  0  0  0
   -8.2302   -0.0110    0.0188 C   0  0  0  0  0  0  0  0  0  0  0  0
   -8.5541   -0.8261    1.2256 C   0  0  0  0  0  0  0  0  0  0  0  0
   -8.6998   -0.7737   -1.2009 C   0  0  0  0  0  0  0  0  0  0  0  0
   -6.7576    0.2505   -0.0669 C   0  0  0  0  0  0  0  0  0  0  0  0
   -5.8288   -0.2296    0.8061 C   0  0  0  0  0  0  0  0  0  0  0  0
   -4.4730    0.0752    0.6536 C   0  0  0  0  0  0  0  0  0  0  0  0
   -4.0927    0.8710   -0.3960 C   0  0  0  0  0  0  0  0  0  0  0  0
   -2.8105    1.2458   -0.6826 O   0  0  0  0  0  0  0  0  0  0  0  0
   -1.6260    0.6179   -0.3091 C   0  0  0  0  0  0  0  0  0  0  0  0
   -1.2330   -0.5003   -1.0830 C   0  0  0  0  0  0  0  0  0  0  0  0
   -0.0775   -1.1855   -0.8077 C   0  0  0  0  0  0  0  0  0  0  0  0
    0.7815   -0.8337    0.2471 C   0  0  0  0  0  0  0  0  0  0  0  0
    1.9296   -1.6532    0.4248 N   0  0  0  0  0  0  0  0  0  0  0  0
    2.4201   -2.0667    1.6991 C   0  0  0  0  0  0  0  0  0  0  0  0
    1.7771   -1.6359    2.6923 O   0  0  0  0  0  0  0  0  0  0  0  0
    3.5987   -2.9442    1.8782 C   0  0  0  0  0  0  0  0  0  0  0  0
    4.4966   -3.1201    0.3437 S   0  0  0  0  0  0  0  0  0  0  0  0
    5.5478   -1.6748    0.1470 C   0  0  0  0  0  0  0  0  0  0  0  0
    6.8438   -1.7431    0.7032 C   0  0  0  0  0  0  0  0  0  0  0  0
    7.6839   -0.6762    0.5767 C   0  0  0  0  0  0  0  0  0  0  0  0
    7.3373    0.4909   -0.0764 C   0  0  0  0  0  0  0  0  0  0  0  0
    6.0511    0.5755   -0.6331 C   0  0  0  0  0  0  0  0  0  0  0  0
    5.1950   -0.5252   -0.4973 C   0  0  0  0  0  0  0  0  0  0  0  0
    5.7361    1.7397   -1.2768 O   0  0  0  0  0  0  0  0  0  0  0  0
    6.4593    2.9337   -1.1568 C   0  0  0  0  0  0  0  0  0  0  0  0
    7.7033    2.8908   -0.3370 C   0  0  0  0  0  0  0  0  0  0  0  0
    8.1868    1.5668   -0.2133 O   0  0  0  0  0  0  0  0  0  0  0  0
    0.3990    0.2457    0.9954 C   0  0  0  0  0  0  0  0  0  0  0  0
   -0.7937    0.9592    0.7138 C   0  0  0  0  0  0  0  0  0  0  0  0
   -5.0431    1.3649   -1.2875 C   0  0  0  0  0  0  0  0  0  0  0  0
   -6.3623    1.0602   -1.1320 C   0  0  0  0  0  0  0  0  0  0  0  0
  1  2  1  0
  2  3  1  0
  3  4  1  0
  3  5  1  0
  3  6  1  0
  6  7  2  0
  7  8  1  0
  8  9  2  0
  9 10  1  0
 10 11  1  0
 11 12  2  0
 12 13  1  0
 13 14  2  0
 14 15  1  0
 15 16  1  0
 16 17  2  0
 16 18  1  0
 18 19  1  0
 19 20  1  0
 20 21  2  0
 21 22  1  0
 22 23  2  0
 23 24  1  0
 24 25  2  0
 24 26  1  0
 26 27  1  0
 27 28  1  0
 28 29  1  0
 14 30  1  0
 30 31  2  0
  9 32  1  0
 32 33  2  0
 33  6  1  0
 31 11  1  0
 25 20  1  0
 29 23  1  0
M  END
>  <zinc_id>  (1) 
ZINC000002655013

>  <smiles>  (1) 
CCC(C)(C)c1ccc(Oc2ccc(NC(=O)CSc3ccc4c(c3)OCCO4)cc2)cc1

$$$$
