
     RDKit          3D

 32 35  0  0  0  0  0  0  0  0999 V2000
    6.8474   -3.1748   -1.4015 C   0  0  0  0  0  0  0  0  0  0  0  0
    7.4587   -1.9757   -0.6952 C   0  0  0  0  0  0  0  0  0  0  0  0
    6.6716   -1.6828    0.4188 O   0  0  0  0  0  0  0  0  0  0  0  0
    5.3307   -1.3425    0.4018 C   0  0  0  0  0  0  0  0  0  0  0  0
    4.6605   -1.0726    1.5910 C   0  0  0  0  0  0  0  0  0  0  0  0
    3.3296   -0.7358    1.5707 C   0  0  0  0  0  0  0  0  0  0  0  0
    2.5975   -0.6480    0.3846 C   0  0  0  0  0  0  0  0  0  0  0  0
    1.2322   -0.2982    0.4264 N   0  0  0  0  0  0  0  0  0  0  0  0
    0.1053   -1.0829    0.7353 C   0  0  0  0  0  0  0  0  0  0  0  0
    0.2138   -2.3201    1.0254 O   0  0  0  0  0  0  0  0  0  0  0  0
   -1.0804   -0.2652    0.6588 C   0  0  0  0  0  0  0  0  0  0  0  0
   -2.3847   -0.7076    0.9152 N   0  0  0  0  0  0  0  0  0  0  0  0
   -3.1474   -1.5622    0.1175 C   0  0  0  0  0  0  0  0  0  0  0  0
   -2.6819   -2.0602   -1.0690 C   0  0  0  0  0  0  0  0  0  0  0  0
   -3.5031   -2.9026   -1.7894 C   0  0  0  0  0  0  0  0  0  0  0  0
   -4.7593   -3.2421   -1.3408 C   0  0  0  0  0  0  0  0  0  0  0  0
   -5.2525   -2.7499   -0.1412 C   0  0  0  0  0  0  0  0  0  0  0  0
   -6.5118   -3.0826    0.3202 O   0  0  0  0  0  0  0  0  0  0  0  0
   -6.9428   -2.5396    1.5483 C   0  0  0  0  0  0  0  0  0  0  0  0
   -4.4109   -1.9062    0.5667 C   0  0  0  0  0  0  0  0  0  0  0  0
   -0.7259    0.9805    0.3156 C   0  0  0  0  0  0  0  0  0  0  0  0
   -1.9180    2.2663    0.1278 S   0  0  0  0  0  0  0  0  0  0  0  0
   -1.2576    3.8650   -0.1309 C   0  0  0  0  0  0  0  0  0  0  0  0
    0.0392    4.2523   -0.1726 C   0  0  0  0  0  0  0  0  0  0  0  0
    0.4791    5.5400   -0.3779 C   0  0  0  0  0  0  0  0  0  0  0  0
   -0.4546    6.5457   -0.5607 C   0  0  0  0  0  0  0  0  0  0  0  0
   -1.7873    6.1969   -0.5268 C   0  0  0  0  0  0  0  0  0  0  0  0
   -2.1948    4.8993   -0.3188 C   0  0  0  0  0  0  0  0  0  0  0  0
    0.7084    1.0095    0.1602 C   0  0  0  0  0  0  0  0  0  0  0  0
    1.4361    1.9743   -0.1520 O   0  0  0  0  0  0  0  0  0  0  0  0
    3.2722   -0.9171   -0.7785 C   0  0  0  0  0  0  0  0  0  0  0  0
    4.6310   -1.2610   -0.7577 C   0  0  0  0  0  0  0  0  0  0  0  0
  1  2  1  0
  2  3  1  0
  3  4  1  0
  4  5  2  0
  5  6  1  0
  6  7  2  0
  7  8  1  0
  8  9  1  0
  9 10  2  0
  9 11  1  0
 11 12  1  0
 12 13  1  0
 13 14  2  0
 14 15  1  0
 15 16  2  0
 16 17  1  0
 17 18  1  0
 18 19  1  0
 17 20  2  0
 11 21  2  0
 21 22  1  0
 22 23  1  0
 23 24  2  0
 24 25  1  0
 25 26  2  0
 26 27  1  0
 27 28  2  0
 21 29  1  0
 29 30  2  0
  7 31  1  0
 31 32  2  0
 32  4  1  0
 29  8  1  0
 20 13  1  0
 28 23  1  0
M  END
>  <zinc_id>  (1) 
ZINC000001928668

>  <smiles>  (1) 
CCOc1ccc(N2C(=O)C(Nc3cccc(OC)c3)=C(Sc3ccccc3)C2=O)cc1

$$$$
