
     RDKit          3D

 31 34  0  0  0  0  0  0  0  0999 V2000
   -5.4097   -4.9934    0.1118 C   0  0  0  0  0  0  0  0  0  0  0  0
   -4.3862   -4.0642    0.7090 C   0  0  0  0  0  0  0  0  0  0  0  0
   -4.3555   -3.8178    2.0649 C   0  0  0  0  0  0  0  0  0  0  0  0
   -3.4074   -2.9575    2.6158 C   0  0  0  0  0  0  0  0  0  0  0  0
   -2.4916   -2.3484    1.7882 C   0  0  0  0  0  0  0  0  0  0  0  0
   -2.5035   -2.5790    0.4350 C   0  0  0  0  0  0  0  0  0  0  0  0
   -1.5511   -1.9477   -0.4384 N   0  0  0  0  0  0  0  0  0  0  0  0
   -0.5817   -1.0687    0.1202 C   0  0  0  0  0  0  0  0  0  0  0  0
   -0.3787    0.1768   -0.2193 C   0  0  0  0  0  0  0  0  0  0  0  0
   -1.2993    1.0508   -1.4848 S   0  0  0  0  0  0  0  0  0  0  0  0
   -0.7423    2.7206   -1.6650 C   0  0  0  0  0  0  0  0  0  0  0  0
   -1.3172    3.7151   -0.9174 C   0  0  0  0  0  0  0  0  0  0  0  0
   -0.8520    5.0134   -1.0878 C   0  0  0  0  0  0  0  0  0  0  0  0
    0.1443    5.3197   -1.9641 C   0  0  0  0  0  0  0  0  0  0  0  0
    0.7171    4.3209   -2.7106 C   0  0  0  0  0  0  0  0  0  0  0  0
    0.2604    3.0075   -2.5512 C   0  0  0  0  0  0  0  0  0  0  0  0
    0.6945    0.7830    0.5569 C   0  0  0  0  0  0  0  0  0  0  0  0
    1.1503    1.9560    0.4928 O   0  0  0  0  0  0  0  0  0  0  0  0
    1.1804   -0.2128    1.4547 N   0  0  0  0  0  0  0  0  0  0  0  0
    2.2501   -0.0653    2.4249 C   0  0  0  0  0  0  0  0  0  0  0  0
    3.5884   -0.4154    1.8588 C   0  0  0  0  0  0  0  0  0  0  0  0
    3.9273    0.4517    0.7065 C   0  0  0  0  0  0  0  0  0  0  0  0
    4.6013    1.6433    0.8708 C   0  0  0  0  0  0  0  0  0  0  0  0
    4.9056    2.4341   -0.2202 C   0  0  0  0  0  0  0  0  0  0  0  0
    4.5242    2.0145   -1.4890 C   0  0  0  0  0  0  0  0  0  0  0  0
    3.8505    0.8230   -1.6522 C   0  0  0  0  0  0  0  0  0  0  0  0
    3.5488    0.0398   -0.5735 C   0  0  0  0  0  0  0  0  0  0  0  0
    0.3893   -1.3673    1.1869 C   0  0  0  0  0  0  0  0  0  0  0  0
    0.5066   -2.4795    1.7787 O   0  0  0  0  0  0  0  0  0  0  0  0
   -3.4506   -3.4324   -0.0778 C   0  0  0  0  0  0  0  0  0  0  0  0
   -3.5123   -3.7208   -1.5367 C   0  0  0  0  0  0  0  0  0  0  0  0
  1  2  1  0
  2  3  2  0
  3  4  1  0
  4  5  2  0
  5  6  1  0
  6  7  1  0
  7  8  1  0
  8  9  2  0
  9 10  1  0
 10 11  1  0
 11 12  2  0
 12 13  1  0
 13 14  2  0
 14 15  1  0
 15 16  2  0
  9 17  1  0
 17 18  2  0
 17 19  1  0
 19 20  1  0
 20 21  1  0
 21 22  1  0
 22 23  2  0
 23 24  1  0
 24 25  2  0
 25 26  1  0
 26 27  2  0
 19 28  1  0
 28 29  2  0
  6 30  2  0
 30 31  1  0
 30  2  1  0
 28  8  1  0
 16 11  1  0
 27 22  1  0
M  END
>  <zinc_id>  (1) 
ZINC000001932111

>  <smiles>  (1) 
Cc1cccc(NC2=C(Sc3ccccc3)C(=O)N(CCc3ccccc3)C2=O)c1C

$$$$
