
     RDKit          3D

 32 36  0  0  0  0  0  0  0  0999 V2000
    1.6971   -0.7946    0.3248 O   0  0  0  0  0  0  0  0  0  0  0  0
    2.0064   -1.1313   -0.8427 C   0  0  0  0  0  0  0  0  0  0  0  0
    0.9534   -1.1398   -1.8087 N   0  0  0  0  0  0  0  0  0  0  0  0
   -0.3792   -0.7704   -1.4098 C   0  0  0  0  0  0  0  0  0  0  0  0
   -0.6120   -0.3995   -0.1052 C   0  0  0  0  0  0  0  0  0  0  0  0
   -1.8937   -0.0336    0.3262 C   0  0  0  0  0  0  0  0  0  0  0  0
   -2.9316   -0.0483   -0.5761 C   0  0  0  0  0  0  0  0  0  0  0  0
   -4.3039    0.3270   -0.1860 C   0  0  0  0  0  0  0  0  0  0  0  0
   -4.7582    0.7299    1.0291 C   0  0  0  0  0  0  0  0  0  0  0  0
   -6.0574    1.0261    1.1592 C   0  0  0  0  0  0  0  0  0  0  0  0
   -6.6984    1.4585    2.3393 C   0  0  0  0  0  0  0  0  0  0  0  0
   -8.0284    1.7194    2.3051 C   0  0  0  0  0  0  0  0  0  0  0  0
   -8.8425    1.6072    1.2234 C   0  0  0  0  0  0  0  0  0  0  0  0
   -8.2186    1.1789    0.0453 C   0  0  0  0  0  0  0  0  0  0  0  0
   -6.8416    0.8995    0.0446 C   0  0  0  0  0  0  0  0  0  0  0  0
   -5.7157    0.3692   -1.1371 S   0  0  0  0  0  0  0  0  0  0  0  0
   -2.6976   -0.4196   -1.8807 C   0  0  0  0  0  0  0  0  0  0  0  0
   -1.4209   -0.7829   -2.3067 C   0  0  0  0  0  0  0  0  0  0  0  0
    3.3689   -1.4881   -1.1647 C   0  0  0  0  0  0  0  0  0  0  0  0
    3.7617   -1.8597   -2.4306 C   0  0  0  0  0  0  0  0  0  0  0  0
    5.0775   -2.1867   -2.6750 C   0  0  0  0  0  0  0  0  0  0  0  0
    6.0090   -2.1468   -1.6664 C   0  0  0  0  0  0  0  0  0  0  0  0
    5.6223   -1.7856   -0.4401 N   0  0  0  0  0  0  0  0  0  0  0  0
    4.3326   -1.4611   -0.1825 C   0  0  0  0  0  0  0  0  0  0  0  0
    3.9219   -1.0785    1.1224 N   0  0  0  0  0  0  0  0  0  0  0  0
    4.9227   -1.0469    2.1674 C   0  0  0  0  0  0  0  0  0  0  0  0
    5.9830   -0.0500    1.7519 C   0  0  0  0  0  0  0  0  0  0  0  0
    5.4162    1.2583    1.5832 N   0  0  0  0  0  0  0  0  0  0  0  0
    4.5201    1.3917    0.4758 C   0  0  0  0  0  0  0  0  0  0  0  0
    3.4633    2.4003    0.8782 C   0  0  0  0  0  0  0  0  0  0  0  0
    3.6470    2.6296    2.3610 C   0  0  0  0  0  0  0  0  0  0  0  0
    4.6964    1.6279    2.7788 C   0  0  0  0  0  0  0  0  0  0  0  0
  1  2  2  0
  2  3  1  0
  3  4  1  0
  4  5  2  0
  5  6  1  0
  6  7  2  0
  7  8  1  0
  8  9  2  0
  9 10  1  0
 10 11  2  0
 11 12  1  0
 12 13  2  0
 13 14  1  0
 14 15  2  0
 15 16  1  0
  7 17  1  0
 17 18  2  0
  2 19  1  0
 19 20  2  0
 20 21  1  0
 21 22  2  0
 22 23  1  0
 23 24  2  0
 24 25  1  0
 25 26  1  0
 26 27  1  0
 27 28  1  0
 28 29  1  0
 29 30  1  0
 30 31  1  0
 31 32  1  0
 18  4  1  0
 24 19  1  0
 32 28  1  0
 16  8  1  0
 15 10  1  0
M  END
>  <zinc_id>  (1) 
ZINC000003938556

>  <smiles>  (1) 
O=C(Nc1ccc(-c2cc3ccccc3s2)cc1)c1cccnc1NCCN1CCCC1

$$$$
