
     RDKit          3D

 32 35  0  0  0  0  0  0  0  0999 V2000
    7.8414    0.9334   -1.5511 C   0  0  0  0  0  0  0  0  0  0  0  0
    8.0071    0.4840   -0.0987 C   0  0  0  0  0  0  0  0  0  0  0  0
    7.0431   -0.5454    0.0933 O   0  0  0  0  0  0  0  0  0  0  0  0
    5.6936   -0.3192   -0.0701 C   0  0  0  0  0  0  0  0  0  0  0  0
    5.1599    0.9013   -0.4268 C   0  0  0  0  0  0  0  0  0  0  0  0
    3.7829    1.0551   -0.5734 C   0  0  0  0  0  0  0  0  0  0  0  0
    2.9077    0.0211   -0.3741 C   0  0  0  0  0  0  0  0  0  0  0  0
    1.5005    0.1573   -0.5146 N   0  0  0  0  0  0  0  0  0  0  0  0
    0.7356    1.2815   -0.9138 C   0  0  0  0  0  0  0  0  0  0  0  0
    1.2056    2.4213   -1.2327 O   0  0  0  0  0  0  0  0  0  0  0  0
   -0.6792    0.9439   -0.9069 C   0  0  0  0  0  0  0  0  0  0  0  0
   -1.7124    1.8552   -1.2607 N   0  0  0  0  0  0  0  0  0  0  0  0
   -2.7520    2.2563   -0.3926 C   0  0  0  0  0  0  0  0  0  0  0  0
   -2.8629    1.7968    0.9239 C   0  0  0  0  0  0  0  0  0  0  0  0
   -3.9064    2.2232    1.7337 C   0  0  0  0  0  0  0  0  0  0  0  0
   -3.9386    1.6767    3.1235 C   0  0  0  0  0  0  0  0  0  0  0  0
   -4.8522    3.1063    1.2565 C   0  0  0  0  0  0  0  0  0  0  0  0
   -4.7525    3.5693   -0.0490 C   0  0  0  0  0  0  0  0  0  0  0  0
   -5.7767    4.5232   -0.5627 C   0  0  0  0  0  0  0  0  0  0  0  0
   -3.7104    3.1345   -0.8358 C   0  0  0  0  0  0  0  0  0  0  0  0
   -0.8211   -0.3398   -0.5209 C   0  0  0  0  0  0  0  0  0  0  0  0
   -2.4165   -1.0571   -0.4102 S   0  0  0  0  0  0  0  0  0  0  0  0
   -2.4690   -2.7436    0.0795 C   0  0  0  0  0  0  0  0  0  0  0  0
   -3.6702   -3.4090    0.2073 C   0  0  0  0  0  0  0  0  0  0  0  0
   -3.7538   -4.7267    0.5855 C   0  0  0  0  0  0  0  0  0  0  0  0
   -2.6155   -5.4569    0.8599 C   0  0  0  0  0  0  0  0  0  0  0  0
   -1.4239   -4.8210    0.7404 C   0  0  0  0  0  0  0  0  0  0  0  0
   -1.3474   -3.4923    0.3586 C   0  0  0  0  0  0  0  0  0  0  0  0
    0.5076   -0.8568   -0.2700 C   0  0  0  0  0  0  0  0  0  0  0  0
    0.8092   -1.9984    0.1027 O   0  0  0  0  0  0  0  0  0  0  0  0
    3.4479   -1.2102   -0.0141 C   0  0  0  0  0  0  0  0  0  0  0  0
    4.8184   -1.3640    0.1319 C   0  0  0  0  0  0  0  0  0  0  0  0
  1  2  1  0
  2  3  1  0
  3  4  1  0
  4  5  2  0
  5  6  1  0
  6  7  2  0
  7  8  1  0
  8  9  1  0
  9 10  2  0
  9 11  1  0
 11 12  1  0
 12 13  1  0
 13 14  2  0
 14 15  1  0
 15 16  1  0
 15 17  2  0
 17 18  1  0
 18 19  1  0
 18 20  2  0
 11 21  2  0
 21 22  1  0
 22 23  1  0
 23 24  2  0
 24 25  1  0
 25 26  2  0
 26 27  1  0
 27 28  2  0
 21 29  1  0
 29 30  2  0
  7 31  1  0
 31 32  2  0
 32  4  1  0
 29  8  1  0
 20 13  1  0
 28 23  1  0
M  END
>  <zinc_id>  (1) 
ZINC000001928672

>  <smiles>  (1) 
CCOc1ccc(N2C(=O)C(Nc3cc(C)cc(C)c3)=C(Sc3ccccc3)C2=O)cc1

$$$$
