
     RDKit          3D

 30 33  0  0  0  0  0  0  0  0999 V2000
    4.4649    2.1896   -1.0615 C   0  0  0  0  0  0  0  0  0  0  0  0
    5.7515    1.5241   -0.2934 C   0  0  1  0  0  0  0  0  0  0  0  0
    5.2517    1.9684    1.1938 C   0  0  0  0  0  0  0  0  0  0  0  0
    4.5804    0.8846    1.9019 C   0  0  0  0  0  0  0  0  0  0  0  0
    3.3795    0.5206    1.0958 C   0  0  0  0  0  0  0  0  0  0  0  0
    1.6823    0.4737    1.1143 S   0  0  0  0  0  0  0  0  0  0  0  0
    1.4207   -0.1694   -0.4717 C   0  0  0  0  0  0  0  0  0  0  0  0
    0.1674   -0.4562   -1.0881 N   0  0  0  0  0  0  0  0  0  0  0  0
   -1.0456   -0.2217   -0.4052 C   0  0  0  0  0  0  0  0  0  0  0  0
   -0.9341    0.2530    0.7719 O   0  0  0  0  0  0  0  0  0  0  0  0
   -2.3879   -0.4716   -0.9222 C   0  0  0  0  0  0  0  0  0  0  0  0
   -2.7007   -1.8737   -1.2894 C   0  0  0  0  0  0  0  0  0  0  0  0
   -2.5544   -2.7417   -0.0890 C   0  0  0  0  0  0  0  0  0  0  0  0
   -3.6200   -2.9738    0.7550 C   0  0  0  0  0  0  0  0  0  0  0  0
   -3.5057   -3.7699    1.8653 C   0  0  0  0  0  0  0  0  0  0  0  0
   -2.3005   -4.3673    2.1687 C   0  0  0  0  0  0  0  0  0  0  0  0
   -1.2070   -4.1469    1.3288 C   0  0  0  0  0  0  0  0  0  0  0  0
   -1.3483   -3.3417    0.2179 C   0  0  0  0  0  0  0  0  0  0  0  0
   -3.4749    0.2641   -0.2424 C   0  0  0  0  0  0  0  0  0  0  0  0
   -3.3347    1.7387   -0.3129 C   0  0  0  0  0  0  0  0  0  0  0  0
   -2.6433    2.4187    0.6681 C   0  0  0  0  0  0  0  0  0  0  0  0
   -2.5004    3.8068    0.6194 C   0  0  0  0  0  0  0  0  0  0  0  0
   -3.0480    4.5407   -0.4141 C   0  0  0  0  0  0  0  0  0  0  0  0
   -3.7427    3.8668   -1.4018 C   0  0  0  0  0  0  0  0  0  0  0  0
   -3.8743    2.4917   -1.3374 C   0  0  0  0  0  0  0  0  0  0  0  0
    2.6907   -0.3175   -0.9432 C   0  0  0  0  0  0  0  0  0  0  0  0
    2.8980   -0.8508   -2.2923 C   0  0  0  0  0  0  0  0  0  0  0  0
    3.0473   -1.2775   -3.3767 N   0  0  0  0  0  0  0  0  0  0  0  0
    3.7050    0.0381   -0.1355 C   0  0  0  0  0  0  0  0  0  0  0  0
    5.1829   -0.0001   -0.3382 C   0  0  0  0  0  0  0  0  0  0  0  0
  2  1  1  6
  2  3  1  0
  3  4  1  0
  4  5  1  0
  5  6  1  0
  6  7  1  0
  7  8  1  0
  8  9  1  0
  9 10  2  0
  9 11  1  0
 11 12  1  0
 12 13  1  0
 13 14  2  0
 14 15  1  0
 15 16  2  0
 16 17  1  0
 17 18  2  0
 11 19  1  0
 19 20  1  0
 20 21  2  0
 21 22  1  0
 22 23  2  0
 23 24  1  0
 24 25  2  0
  7 26  2  0
 26 27  1  0
 27 28  3  0
 26 29  1  0
 29 30  1  0
 30  2  1  0
 29  5  2  0
 18 13  1  0
 25 20  1  0
M  END
>  <zinc_id>  (1) 
ZINC000002769040

>  <smiles>  (1) 
C[C@H]1CCc2sc(NC(=O)C(Cc3ccccc3)Cc3ccccc3)c(C#N)c2C1

$$$$
