
     RDKit          3D

 31 34  0  0  0  0  0  0  0  0999 V2000
   -9.5389    0.3128    1.0822 C   0  0  0  0  0  0  0  0  0  0  0  0
   -8.3660   -0.5949    1.3710 C   0  0  0  0  0  0  0  0  0  0  0  0
   -7.0920   -0.0315    0.8116 C   0  0  0  0  0  0  0  0  0  0  0  0
   -6.6692   -0.3281   -0.4660 C   0  0  0  0  0  0  0  0  0  0  0  0
   -5.4959    0.1902   -0.9795 C   0  0  0  0  0  0  0  0  0  0  0  0
   -4.6979    1.0307   -0.2262 C   0  0  0  0  0  0  0  0  0  0  0  0
   -3.1985    1.6539   -0.9656 S   0  0  0  0  0  0  0  0  0  0  0  0
   -1.8507    0.5101   -0.6077 C   0  0  0  0  0  0  0  0  0  0  0  0
   -0.5777    0.7144   -1.0529 C   0  0  0  0  0  0  0  0  0  0  0  0
    0.4510   -0.1610   -0.7776 C   0  0  0  0  0  0  0  0  0  0  0  0
    1.8101   -0.0045   -1.2198 C   0  0  0  0  0  0  0  0  0  0  0  0
    2.4581   -1.0496   -1.5574 O   0  0  0  0  0  0  0  0  0  0  0  0
    2.4970    1.2294   -1.3129 N   0  0  0  0  0  0  0  0  0  0  0  0
    3.8639    1.2566   -1.7735 C   0  0  0  0  0  0  0  0  0  0  0  0
    4.7765    0.7886   -0.7013 C   0  0  0  0  0  0  0  0  0  0  0  0
    4.2628    0.5220    0.5445 C   0  0  0  0  0  0  0  0  0  0  0  0
    5.0900    0.0765    1.5822 C   0  0  0  0  0  0  0  0  0  0  0  0
    6.4441   -0.1058    1.3772 C   0  0  0  0  0  0  0  0  0  0  0  0
    6.9629    0.1633    0.1190 C   0  0  0  0  0  0  0  0  0  0  0  0
    8.3260   -0.0097   -0.1249 O   0  0  0  0  0  0  0  0  0  0  0  0
    8.8341    0.2673   -1.4045 C   0  0  0  0  0  0  0  0  0  0  0  0
    6.1163    0.6062   -0.8970 C   0  0  0  0  0  0  0  0  0  0  0  0
    0.1636   -1.2951   -0.0131 C   0  0  0  0  0  0  0  0  0  0  0  0
    1.1446   -2.2088    0.2980 C   0  0  0  0  0  0  0  0  0  0  0  0
    0.8139   -3.3042    1.0501 C   0  0  0  0  0  0  0  0  0  0  0  0
   -0.4594   -3.4910    1.4847 C   0  0  0  0  0  0  0  0  0  0  0  0
   -1.4438   -2.5918    1.1833 C   0  0  0  0  0  0  0  0  0  0  0  0
   -1.1312   -1.4876    0.4303 C   0  0  0  0  0  0  0  0  0  0  0  0
   -2.0939   -0.6013    0.1318 N   0  0  0  0  0  0  0  0  0  0  0  0
   -5.1052    1.3377    1.0522 C   0  0  0  0  0  0  0  0  0  0  0  0
   -6.2946    0.8074    1.5619 C   0  0  0  0  0  0  0  0  0  0  0  0
  1  2  1  0
  2  3  1  0
  3  4  2  0
  4  5  1  0
  5  6  2  0
  6  7  1  0
  7  8  1  0
  8  9  2  0
  9 10  1  0
 10 11  1  0
 11 12  2  0
 11 13  1  0
 13 14  1  0
 14 15  1  0
 15 16  2  0
 16 17  1  0
 17 18  2  0
 18 19  1  0
 19 20  1  0
 20 21  1  0
 19 22  2  0
 10 23  2  0
 23 24  1  0
 24 25  2  0
 25 26  1  0
 26 27  2  0
 27 28  1  0
 28 29  2  0
  6 30  1  0
 30 31  2  0
 31  3  1  0
 29  8  1  0
 22 15  1  0
 28 23  1  0
M  END
>  <zinc_id>  (1) 
ZINC000002941413

>  <smiles>  (1) 
CCc1ccc(Sc2cc(C(=O)NCc3cccc(OC)c3)c3ccccc3n2)cc1

$$$$
