
     RDKit          3D

 31 33  0  0  0  0  0  0  0  0999 V2000
   -2.1117   -0.8760   -1.9162 C   0  0  0  0  0  0  0  0  0  0  0  0
   -2.4503   -1.6936   -0.8366 N   0  0  0  0  0  0  0  0  0  0  0  0
   -1.7866   -2.9381   -0.6368 C   0  0  0  0  0  0  0  0  0  0  0  0
   -0.3754   -2.6883   -0.2249 C   0  0  0  0  0  0  0  0  0  0  0  0
    0.3287   -3.6865    0.0246 O   0  0  0  0  0  0  0  0  0  0  0  0
    0.1287   -1.3887   -0.1171 N   0  0  0  0  0  0  0  0  0  0  0  0
    1.4269   -1.0233    0.3213 C   0  0  0  0  0  0  0  0  0  0  0  0
    2.0527    0.0457   -0.3263 C   0  0  0  0  0  0  0  0  0  0  0  0
    3.3003    0.4461    0.2218 C   0  0  0  0  0  0  0  0  0  0  0  0
    3.8964   -0.0742    1.2562 C   0  0  0  0  0  0  0  0  0  0  0  0
    5.0791    0.2519    1.8442 O   0  0  0  0  0  0  0  0  0  0  0  0
    6.0811    1.1248    1.6580 C   0  0  0  0  0  0  0  0  0  0  0  0
    6.8474    0.9660    0.4045 C   0  0  0  0  0  0  0  0  0  0  0  0
    6.3668    0.3636   -0.7011 C   0  0  0  0  0  0  0  0  0  0  0  0
    7.1188    0.1861   -1.8595 C   0  0  0  0  0  0  0  0  0  0  0  0
    8.4300    0.6572   -1.8748 C   0  0  0  0  0  0  0  0  0  0  0  0
    8.9218    1.2666   -0.7466 C   0  0  0  0  0  0  0  0  0  0  0  0
    8.1594    1.4249    0.3709 C   0  0  0  0  0  0  0  0  0  0  0  0
    3.2390   -1.2030    1.9423 C   0  0  0  0  0  0  0  0  0  0  0  0
    2.0391   -1.5675    1.3827 C   0  0  0  0  0  0  0  0  0  0  0  0
   -2.7614   -0.9438    0.3456 C   0  0  0  0  0  0  0  0  0  0  0  0
   -3.9944   -0.1590    0.1263 C   0  0  0  0  0  0  0  0  0  0  0  0
   -5.2324   -0.7658    0.3101 C   0  0  0  0  0  0  0  0  0  0  0  0
   -6.4227   -0.1248    0.1575 C   0  0  0  0  0  0  0  0  0  0  0  0
   -6.4563    1.2330   -0.2101 C   0  0  0  0  0  0  0  0  0  0  0  0
   -7.7955    1.8931   -0.3737 C   0  0  0  0  0  0  0  0  0  0  0  0
   -8.6330    1.4781    0.8375 C   0  0  0  0  0  0  0  0  0  0  0  0
   -8.4335    1.3792   -1.6624 C   0  0  0  0  0  0  0  0  0  0  0  0
   -7.6579    3.4020   -0.4396 C   0  0  0  0  0  0  0  0  0  0  0  0
   -5.2493    1.8456   -0.3996 C   0  0  0  0  0  0  0  0  0  0  0  0
   -4.0558    1.1687   -0.2358 C   0  0  0  0  0  0  0  0  0  0  0  0
  1  2  1  0
  2  3  1  0
  3  4  1  0
  4  5  2  0
  4  6  1  0
  6  7  1  0
  7  8  2  0
  8  9  1  0
  9 10  2  0
 10 11  1  0
 11 12  1  0
 12 13  1  0
 13 14  2  0
 14 15  1  0
 15 16  2  0
 16 17  1  0
 17 18  2  0
 10 19  1  0
 19 20  2  0
  2 21  1  0
 21 22  1  0
 22 23  2  0
 23 24  1  0
 24 25  2  0
 25 26  1  0
 26 27  1  0
 26 28  1  0
 26 29  1  0
 25 30  1  0
 30 31  2  0
 20  7  1  0
 31 22  1  0
 18 13  1  0
M  END
>  <zinc_id>  (1) 
ZINC000003433146

>  <smiles>  (1) 
CN(CC(=O)Nc1ccc(OCc2ccccc2)cc1)Cc1ccc(C(C)(C)C)cc1

$$$$
