
     RDKit          3D

 32 35  0  0  0  0  0  0  0  0999 V2000
   -3.3615   -1.8243   -0.0323 C   0  0  0  0  0  0  0  0  0  0  0  0
   -2.6178   -2.0436    1.4491 C   0  0  2  0  0  0  0  0  0  0  0  0
   -1.2043   -1.4964    0.9748 N   0  0  0  0  0  0  0  0  0  0  0  0
   -1.1815   -0.1668    0.4980 C   0  0  0  0  0  0  0  0  0  0  0  0
   -2.2908    0.4152    0.5108 O   0  0  0  0  0  0  0  0  0  0  0  0
    0.0536    0.4943    0.0187 C   0  0  0  0  0  0  0  0  0  0  0  0
   -0.0349    1.7848   -0.4226 C   0  0  0  0  0  0  0  0  0  0  0  0
   -1.1409    2.6818   -0.5232 N   0  0  0  0  0  0  0  0  0  0  0  0
   -1.0187    3.9975   -1.0151 C   0  0  0  0  0  0  0  0  0  0  0  0
    0.1160    4.3906   -1.3788 O   0  0  0  0  0  0  0  0  0  0  0  0
   -2.1659    4.8899   -1.1060 C   0  0  0  0  0  0  0  0  0  0  0  0
   -2.1180    6.1857   -1.5761 C   0  0  0  0  0  0  0  0  0  0  0  0
   -3.4136    6.6966   -1.5021 C   0  0  0  0  0  0  0  0  0  0  0  0
   -4.1722    5.6650   -0.9858 C   0  0  0  0  0  0  0  0  0  0  0  0
   -3.4140    4.6404   -0.7711 O   0  0  0  0  0  0  0  0  0  0  0  0
    1.5858    2.1423   -0.8697 S   0  0  0  0  0  0  0  0  0  0  0  0
    2.3085    0.6451   -0.4801 C   0  0  0  0  0  0  0  0  0  0  0  0
    1.2783   -0.0815   -0.0184 C   0  0  0  0  0  0  0  0  0  0  0  0
    1.6428   -1.4927    0.4100 C   0  0  0  0  0  0  0  0  0  0  0  0
    3.0661   -1.3875    0.9179 C   0  0  0  0  0  0  0  0  0  0  0  0
    3.8387   -1.3238   -0.5350 C   0  0  2  0  0  0  0  0  0  0  0  0
    5.3213   -1.3459    0.1592 C   0  0  0  0  0  0  0  0  0  0  0  0
    5.4897   -0.2073    1.0415 C   0  0  0  0  0  0  0  0  0  0  0  0
    6.3149   -1.5757   -0.9166 C   0  0  0  0  0  0  0  0  0  0  0  0
    5.2762   -2.6267    1.0114 C   0  0  0  0  0  0  0  0  0  0  0  0
    3.7259    0.3077   -0.6399 C   0  0  0  0  0  0  0  0  0  0  0  0
   -2.2633   -3.5925    1.1692 C   0  0  0  0  0  0  0  0  0  0  0  0
   -1.6635   -3.9665    0.0500 C   0  0  0  0  0  0  0  0  0  0  0  0
   -1.3607   -5.2737   -0.1953 C   0  0  0  0  0  0  0  0  0  0  0  0
   -1.6801   -6.2212    0.7287 C   0  0  0  0  0  0  0  0  0  0  0  0
   -2.2997   -5.8243    1.8822 C   0  0  0  0  0  0  0  0  0  0  0  0
   -2.6163   -4.4865    2.1466 C   0  0  0  0  0  0  0  0  0  0  0  0
  2  1  1  6
  2  3  1  0
  3  4  1  0
  4  5  2  0
  4  6  1  0
  6  7  2  0
  7  8  1  0
  8  9  1  0
  9 10  2  0
  9 11  1  0
 11 12  2  0
 12 13  1  0
 13 14  2  0
 14 15  1  0
  7 16  1  0
 16 17  1  0
 17 18  2  0
 18 19  1  0
 19 20  1  0
 20 21  1  0
 21 22  1  1
 22 23  1  0
 22 24  1  0
 22 25  1  0
 21 26  1  0
  2 27  1  0
 27 28  2  0
 28 29  1  0
 29 30  2  0
 30 31  1  0
 31 32  2  0
 18  6  1  0
 32 27  1  0
 15 11  1  0
 26 17  1  0
M  END
>  <zinc_id>  (1) 
ZINC000000643901

>  <smiles>  (1) 
C[C@H](NC(=O)c1c(NC(=O)c2ccco2)sc2c1CC[C@H](C(C)(C)C)C2)c1ccccc1

$$$$
