
     RDKit          3D

 30 32  0  0  0  0  0  0  0  0999 V2000
    5.2077   -2.3637    0.3887 C   0  0  0  0  0  0  0  0  0  0  0  0
    4.9960   -1.2884   -0.8994 C   0  0  1  0  0  0  0  0  0  0  0  0
    3.6233   -0.7968   -0.3734 N   0  0  0  0  0  0  0  0  0  0  0  0
    2.4512   -1.2623   -0.9672 C   0  0  0  0  0  0  0  0  0  0  0  0
    2.4540   -2.0429   -1.9079 O   0  0  0  0  0  0  0  0  0  0  0  0
    1.2556   -0.6705   -0.2946 C   0  0  0  0  0  0  0  0  0  0  0  0
    1.0115    0.6884   -0.1969 C   0  0  0  0  0  0  0  0  0  0  0  0
   -0.1815    0.7827    0.5439 C   0  0  0  0  0  0  0  0  0  0  0  0
   -0.5440   -0.5468    0.8120 C   0  0  0  0  0  0  0  0  0  0  0  0
   -1.7306   -0.9599    1.5602 C   0  0  0  0  0  0  0  0  0  0  0  0
   -2.9279   -0.4933    0.9182 N   0  0  0  0  0  0  0  0  0  0  0  0
   -3.0270    0.9140    0.8347 C   0  0  0  0  0  0  0  0  0  0  0  0
   -4.3175    1.3123    0.2248 C   0  0  0  0  0  0  0  0  0  0  0  0
   -4.4149    2.1014   -0.8671 C   0  0  0  0  0  0  0  0  0  0  0  0
   -5.6668    2.5222   -1.3623 C   0  0  0  0  0  0  0  0  0  0  0  0
   -6.7794    2.1150   -0.6877 C   0  0  0  0  0  0  0  0  0  0  0  0
   -6.7086    1.3057    0.4432 C   0  0  0  0  0  0  0  0  0  0  0  0
   -5.4833    0.9000    0.8925 C   0  0  0  0  0  0  0  0  0  0  0  0
   -5.3538    0.0864    1.9531 F   0  0  0  0  0  0  0  0  0  0  0  0
   -3.1584   -1.2893   -0.2585 C   0  0  0  0  0  0  0  0  0  0  0  0
   -3.3852   -2.7294    0.2939 C   0  0  0  0  0  0  0  0  0  0  0  0
   -4.3607   -0.8908   -1.0024 C   0  0  0  0  0  0  0  0  0  0  0  0
   -1.9632   -1.3861   -1.1337 C   0  0  0  0  0  0  0  0  0  0  0  0
    0.3547   -1.3244    0.2872 O   0  0  0  0  0  0  0  0  0  0  0  0
    5.8118   -0.1069   -0.1583 C   0  0  0  0  0  0  0  0  0  0  0  0
    6.9635   -0.3778    0.4350 C   0  0  0  0  0  0  0  0  0  0  0  0
    7.6402    0.6241    1.0854 C   0  0  0  0  0  0  0  0  0  0  0  0
    7.0971    1.9163    1.1066 C   0  0  0  0  0  0  0  0  0  0  0  0
    5.8929    2.1625    0.4760 C   0  0  0  0  0  0  0  0  0  0  0  0
    5.2436    1.0983   -0.1679 C   0  0  0  0  0  0  0  0  0  0  0  0
  2  1  1  1
  2  3  1  0
  3  4  1  0
  4  5  2  0
  4  6  1  0
  6  7  2  0
  7  8  1  0
  8  9  2  0
  9 10  1  0
 10 11  1  0
 11 12  1  0
 12 13  1  0
 13 14  2  0
 14 15  1  0
 15 16  2  0
 16 17  1  0
 17 18  2  0
 18 19  1  0
 11 20  1  0
 20 21  1  0
 20 22  1  0
 20 23  1  0
  9 24  1  0
  2 25  1  0
 25 26  2  0
 26 27  1  0
 27 28  2  0
 28 29  1  0
 29 30  2  0
 24  6  1  0
 30 25  1  0
 18 13  1  0
M  END
>  <zinc_id>  (1) 
ZINC000004513709

>  <smiles>  (1) 
C[C@@H](NC(=O)c1ccc(CN(Cc2ccccc2F)C(C)(C)C)o1)c1ccccc1

$$$$
