
     RDKit          3D

 32 35  0  0  0  0  0  0  0  0999 V2000
    7.6194    2.9468    0.4022 C   0  0  0  0  0  0  0  0  0  0  0  0
    7.3141    1.6303    0.0427 O   0  0  0  0  0  0  0  0  0  0  0  0
    5.9938    1.2018    0.0188 C   0  0  0  0  0  0  0  0  0  0  0  0
    4.9503    2.0600    0.3482 C   0  0  0  0  0  0  0  0  0  0  0  0
    3.6477    1.6158    0.3189 C   0  0  0  0  0  0  0  0  0  0  0  0
    3.4082    0.3135   -0.0410 C   0  0  0  0  0  0  0  0  0  0  0  0
    2.0596   -0.2318   -0.0984 C   0  0  0  0  0  0  0  0  0  0  0  0
    0.9698    0.5426    0.1909 C   0  0  0  0  0  0  0  0  0  0  0  0
   -0.3443    0.0762    0.1492 C   0  0  0  0  0  0  0  0  0  0  0  0
   -1.4629    0.9466    0.4598 C   0  0  0  0  0  0  0  0  0  0  0  0
   -1.2736    2.1260    0.8352 O   0  0  0  0  0  0  0  0  0  0  0  0
   -2.7679    0.4596    0.3375 N   0  0  0  0  0  0  0  0  0  0  0  0
   -3.9418    1.1639    0.5988 C   0  0  0  0  0  0  0  0  0  0  0  0
   -3.8895    2.4624    1.0442 C   0  0  0  0  0  0  0  0  0  0  0  0
   -5.0326    3.1906    1.3267 C   0  0  0  0  0  0  0  0  0  0  0  0
   -6.2499    2.6042    1.1595 C   0  0  0  0  0  0  0  0  0  0  0  0
   -6.3449    1.3224    0.7211 C   0  0  0  0  0  0  0  0  0  0  0  0
   -5.1758    0.5911    0.4363 C   0  0  0  0  0  0  0  0  0  0  0  0
   -5.3062   -0.7934   -0.0499 C   0  0  0  0  0  0  0  0  0  0  0  0
   -6.7733   -1.1904    0.0406 C   0  0  0  0  0  0  0  0  0  0  0  0
   -4.8133   -0.9240   -1.4881 C   0  0  0  0  0  0  0  0  0  0  0  0
   -0.5311   -1.2484   -0.2072 C   0  0  0  0  0  0  0  0  0  0  0  0
   -1.7841   -1.7858   -0.2709 C   0  0  0  0  0  0  0  0  0  0  0  0
   -1.9285   -3.1096   -0.6284 C   0  0  0  0  0  0  0  0  0  0  0  0
   -0.8307   -3.8799   -0.9169 C   0  0  0  0  0  0  0  0  0  0  0  0
    0.4200   -3.3502   -0.8550 C   0  0  0  0  0  0  0  0  0  0  0  0
    0.5838   -2.0213   -0.4976 C   0  0  0  0  0  0  0  0  0  0  0  0
    1.8309   -1.5121   -0.4398 N   0  0  0  0  0  0  0  0  0  0  0  0
    4.4510   -0.5448   -0.3704 C   0  0  0  0  0  0  0  0  0  0  0  0
    4.1880   -1.8704   -0.7356 O   0  0  0  0  0  0  0  0  0  0  0  0
    5.2775   -2.6990   -1.0587 C   0  0  0  0  0  0  0  0  0  0  0  0
    5.7364   -0.0923   -0.3375 C   0  0  0  0  0  0  0  0  0  0  0  0
  1  2  1  0
  2  3  1  0
  3  4  2  0
  4  5  1  0
  5  6  2  0
  6  7  1  0
  7  8  2  0
  8  9  1  0
  9 10  1  0
 10 11  2  0
 10 12  1  0
 12 13  1  0
 13 14  2  0
 14 15  1  0
 15 16  2  0
 16 17  1  0
 17 18  2  0
 18 19  1  0
 19 20  1  0
 19 21  1  0
  9 22  2  0
 22 23  1  0
 23 24  2  0
 24 25  1  0
 25 26  2  0
 26 27  1  0
 27 28  2  0
  6 29  1  0
 29 30  1  0
 30 31  1  0
 29 32  2  0
 32  3  1  0
 28  7  1  0
 18 13  1  0
 27 22  1  0
M  END
>  <zinc_id>  (1) 
ZINC000001200339

>  <smiles>  (1) 
COc1ccc(-c2cc(C(=O)Nc3ccccc3C(C)C)c3ccccc3n2)c(OC)c1

$$$$
