
     RDKit          3D

 34 38  0  0  0  0  0  0  0  0999 V2000
    4.4382    0.1372    1.9815 C   0  0  0  0  0  0  0  0  0  0  0  0
    4.1213   -1.1236    1.1877 C   0  0  0  0  0  0  0  0  0  0  0  0
    4.0740   -0.9146   -0.1920 N   0  0  0  0  0  0  0  0  0  0  0  0
    5.2599   -0.6003   -0.8887 C   0  0  0  0  0  0  0  0  0  0  0  0
    6.1786   -1.8131   -0.8904 C   0  0  0  0  0  0  0  0  0  0  0  0
    2.8404   -0.4546   -0.7204 C   0  0  0  0  0  0  0  0  0  0  0  0
    2.5994    1.0123   -0.0547 C   0  0  1  0  0  0  0  0  0  0  0  0
    1.4224    1.2886   -1.0635 O   0  0  0  0  0  0  0  0  0  0  0  0
    1.5142    0.4760    1.1137 C   0  0  0  0  0  0  0  0  0  0  0  0
    0.3182    0.0227    0.5683 N   0  0  0  0  0  0  0  0  0  0  0  0
   -0.6347    0.9683    0.2016 C   0  0  0  0  0  0  0  0  0  0  0  0
   -0.6359    2.4129    0.3128 C   0  0  0  0  0  0  0  0  0  0  0  0
   -0.3157    3.0240    1.5410 C   0  0  0  0  0  0  0  0  0  0  0  0
   -0.3217    4.3781    1.7339 C   0  0  0  0  0  0  0  0  0  0  0  0
   -0.6500    5.2106    0.7030 C   0  0  0  0  0  0  0  0  0  0  0  0
   -0.9711    4.6663   -0.5180 C   0  0  0  0  0  0  0  0  0  0  0  0
   -0.9592    3.2919   -0.6922 C   0  0  0  0  0  0  0  0  0  0  0  0
   -1.7114    0.2742   -0.2777 C   0  0  0  0  0  0  0  0  0  0  0  0
   -2.9587    0.8382   -0.7937 C   0  0  0  0  0  0  0  0  0  0  0  0
   -4.1359    0.6950   -0.1048 C   0  0  0  0  0  0  0  0  0  0  0  0
   -5.3395    1.2169   -0.5793 C   0  0  0  0  0  0  0  0  0  0  0  0
   -5.3708    1.8984   -1.7699 C   0  0  0  0  0  0  0  0  0  0  0  0
   -4.2007    2.0525   -2.4767 C   0  0  0  0  0  0  0  0  0  0  0  0
   -3.0185    1.5266   -1.9866 C   0  0  0  0  0  0  0  0  0  0  0  0
   -1.4681   -1.0829   -0.2193 C   0  0  0  0  0  0  0  0  0  0  0  0
   -2.2562   -2.1504   -0.5557 C   0  0  0  0  0  0  0  0  0  0  0  0
   -1.8144   -3.4416   -0.3679 C   0  0  0  0  0  0  0  0  0  0  0  0
   -0.5582   -3.5844    0.1698 C   0  0  0  0  0  0  0  0  0  0  0  0
   -0.0566   -4.8578    0.4288 C   0  0  0  0  0  0  0  0  0  0  0  0
    1.1714   -5.0660    0.9957 C   0  0  0  0  0  0  0  0  0  0  0  0
    1.9259   -3.9475    1.3146 C   0  0  0  0  0  0  0  0  0  0  0  0
    1.4633   -2.6776    1.0732 C   0  0  0  0  0  0  0  0  0  0  0  0
    0.2333   -2.4922    0.5047 C   0  0  0  0  0  0  0  0  0  0  0  0
   -0.1834   -1.1843    0.3214 C   0  0  0  0  0  0  0  0  0  0  0  0
  1  2  1  0
  2  3  1  0
  3  4  1  0
  4  5  1  0
  3  6  1  0
  6  7  1  0
  7  8  1  6
  7  9  1  0
  9 10  1  0
 10 11  1  0
 11 12  1  0
 12 13  2  0
 13 14  1  0
 14 15  2  0
 15 16  1  0
 16 17  2  0
 11 18  2  0
 18 19  1  0
 19 20  2  0
 20 21  1  0
 21 22  2  0
 22 23  1  0
 23 24  2  0
 18 25  1  0
 25 26  2  0
 26 27  1  0
 27 28  2  0
 28 29  1  0
 29 30  2  0
 30 31  1  0
 31 32  2  0
 32 33  1  0
 33 34  2  0
 34 10  1  0
 17 12  1  0
 24 19  1  0
 34 25  1  0
 33 28  1  0
M  END
>  <zinc_id>  (1) 
ZINC000002083324

>  <smiles>  (1) 
CCN(CC)C[C@@H](O)Cn1c(-c2ccccc2)c(-c2ccccc2)c2ccc3ccccc3c21

$$$$
