MODEL 1
REMARK VINA RESULT:      -7.6      0.000      0.000
REMARK  Name = 
REMARK  7 active torsions:
REMARK  status: ('A' for Active; 'I' for Inactive)
REMARK    1  A    between atoms: O_2  and  C_3
REMARK    2  A    between atoms: C_6  and  N_7
REMARK    3  A    between atoms: C_8  and  C_10
REMARK    4  A    between atoms: C_11  and  N_12
REMARK    5  A    between atoms: C_13  and  C_15
REMARK    6  A    between atoms: C_15  and  O_16
REMARK    7  A    between atoms: O_16  and  C_17
REMARK                            x       y       z     vdW  Elec       q    Type
REMARK                         _______ _______ _______ _____ _____    ______ ____
ROOT
ATOM      1  C   UNL     1      36.266   2.177  14.549  0.00  0.00    +0.000 A 
ATOM      2  C   UNL     1      35.330   1.902  15.506  0.00  0.00    +0.000 A 
ATOM      3  S   UNL     1      34.388   3.316  15.555  0.00  0.00    +0.000 S 
ATOM      4  C   UNL     1      35.199   4.226  14.362  0.00  0.00    +0.000 A 
ATOM      5  C   UNL     1      36.198   3.384  13.954  0.00  0.00    +0.000 A 
ATOM      6  C   UNL     1      37.177   3.826  12.869  0.00  0.00    +0.000 C 
ATOM      7  C   UNL     1      37.865   5.084  13.383  0.00  0.00    +0.000 C 
ATOM      8  C   UNL     1      37.048   6.315  13.104  0.00  0.00    +0.000 C 
ATOM      9  C   UNL     1      36.046   6.526  14.213  0.00  0.00    +0.000 C 
ATOM     10  C   UNL     1      34.851   5.624  13.905  0.00  0.00    +0.000 C 
ENDROOT
BRANCH   1  12
ATOM     11  N   UNL     1      38.453   1.065  15.008  0.00  0.00    +0.000 NA
ATOM     12  C   UNL     1      37.289   1.158  14.217  0.00  0.00    +0.000 C 
ATOM     13  O   UNL     1      37.169   0.373  13.264  0.00  0.00    +0.000 OA
BRANCH  11  17
ATOM     14  C   UNL     1      41.600  -1.582  14.300  0.00  0.00    +0.000 A 
ATOM     15  C   UNL     1      40.507  -2.054  14.994  0.00  0.00    +0.000 A 
ATOM     16  C   UNL     1      39.463  -1.159  15.222  0.00  0.00    +0.000 A 
ATOM     17  C   UNL     1      39.494   0.138  14.790  0.00  0.00    +0.000 A 
ATOM     18  C   UNL     1      40.609   0.597  14.090  0.00  0.00    +0.000 A 
ATOM     19  C   UNL     1      41.643  -0.284  13.861  0.00  0.00    +0.000 A 
BRANCH  14  21
ATOM     20  C   UNL     1      42.872  -3.021  12.779  0.00  0.00    +0.000 C 
ATOM     21  O   UNL     1      42.676  -2.432  14.041  0.00  0.00    +0.000 OA
ENDBRANCH  14  21
ENDBRANCH  11  17
ENDBRANCH   1  12
BRANCH   2  22
ATOM     22  N   UNL     1      35.169   0.719  16.286  0.00  0.00    +0.000 NA
ATOM     23  C   UNL     1      35.846   0.613  17.540  0.00  0.00    +0.000 C 
ATOM     24  O   UNL     1      36.553   1.578  17.889  0.00  0.00    +0.000 OA
BRANCH  23  25
ATOM     25  C   UNL     1      35.705  -0.601  18.382  0.00  0.00    +0.000 C 
BRANCH  25  26
ATOM     26  O   UNL     1      35.451  -1.733  17.602  0.00  0.00    +0.000 OA
BRANCH  26  27
ATOM     27  C   UNL     1      36.462  -2.664  17.408  0.00  0.00    +0.000 A 
ATOM     28  C   UNL     1      36.414  -3.641  16.436  0.00  0.00    +0.000 A 
ATOM     29  C   UNL     1      37.457  -4.516  16.318  0.00  0.00    +0.000 A 
ATOM     30  C   UNL     1      38.542  -4.421  17.162  0.00  0.00    +0.000 A 
ATOM     31  C   UNL     1      38.577  -3.444  18.124  0.00  0.00    +0.000 A 
ATOM     32  C   UNL     1      37.550  -2.549  18.271  0.00  0.00    +0.000 A 
ENDBRANCH  26  27
ENDBRANCH  25  26
ENDBRANCH  23  25
ENDBRANCH   2  22
TORSDOF 7
ENDMDL
MODEL 2
REMARK VINA RESULT:      -7.1      2.808      6.450
REMARK  Name = 
REMARK  7 active torsions:
REMARK  status: ('A' for Active; 'I' for Inactive)
REMARK    1  A    between atoms: O_2  and  C_3
REMARK    2  A    between atoms: C_6  and  N_7
REMARK    3  A    between atoms: C_8  and  C_10
REMARK    4  A    between atoms: C_11  and  N_12
REMARK    5  A    between atoms: C_13  and  C_15
REMARK    6  A    between atoms: C_15  and  O_16
REMARK    7  A    between atoms: O_16  and  C_17
REMARK                            x       y       z     vdW  Elec       q    Type
REMARK                         _______ _______ _______ _____ _____    ______ ____
ROOT
ATOM      1  C   UNL     1      36.822  -1.431  16.380  0.00  0.00    +0.000 A 
ATOM      2  C   UNL     1      36.188  -0.271  16.723  0.00  0.00    +0.000 A 
ATOM      3  S   UNL     1      34.567  -0.748  16.909  0.00  0.00    +0.000 S 
ATOM      4  C   UNL     1      34.727  -2.407  16.550  0.00  0.00    +0.000 A 
ATOM      5  C   UNL     1      36.064  -2.542  16.290  0.00  0.00    +0.000 A 
ATOM      6  C   UNL     1      36.640  -3.907  15.918  0.00  0.00    +0.000 C 
ATOM      7  C   UNL     1      35.914  -4.359  14.657  0.00  0.00    +0.000 C 
ATOM      8  C   UNL     1      34.609  -5.032  14.981  0.00  0.00    +0.000 C 
ATOM      9  C   UNL     1      33.520  -3.996  15.118  0.00  0.00    +0.000 C 
ATOM     10  C   UNL     1      33.620  -3.437  16.537  0.00  0.00    +0.000 C 
ENDROOT
BRANCH   1  12
ATOM     11  N   UNL     1      38.756  -1.182  14.821  0.00  0.00    +0.000 NA
ATOM     12  C   UNL     1      38.282  -1.416  16.129  0.00  0.00    +0.000 C 
ATOM     13  O   UNL     1      39.120  -1.602  17.025  0.00  0.00    +0.000 OA
BRANCH  11  17
ATOM     14  C   UNL     1      42.782  -0.936  13.752  0.00  0.00    +0.000 A 
ATOM     15  C   UNL     1      42.241  -2.190  13.935  0.00  0.00    +0.000 A 
ATOM     16  C   UNL     1      40.895  -2.257  14.291  0.00  0.00    +0.000 A 
ATOM     17  C   UNL     1      40.119  -1.144  14.460  0.00  0.00    +0.000 A 
ATOM     18  C   UNL     1      40.684   0.117  14.271  0.00  0.00    +0.000 A 
ATOM     19  C   UNL     1      42.014   0.188  13.918  0.00  0.00    +0.000 A 
BRANCH  14  21
ATOM     20  C   UNL     1      44.538  -0.798  12.050  0.00  0.00    +0.000 C 
ATOM     21  O   UNL     1      44.124  -0.805  13.394  0.00  0.00    +0.000 OA
ENDBRANCH  14  21
ENDBRANCH  11  17
ENDBRANCH   1  12
BRANCH   2  22
ATOM     22  N   UNL     1      36.738   1.034  16.887  0.00  0.00    +0.000 NA
ATOM     23  C   UNL     1      36.659   1.965  15.807  0.00  0.00    +0.000 C 
ATOM     24  O   UNL     1      36.105   1.578  14.760  0.00  0.00    +0.000 OA
BRANCH  23  25
ATOM     25  C   UNL     1      37.219   3.334  15.937  0.00  0.00    +0.000 C 
BRANCH  25  26
ATOM     26  O   UNL     1      37.666   3.578  17.239  0.00  0.00    +0.000 OA
BRANCH  26  27
ATOM     27  C   UNL     1      38.626   4.557  17.455  0.00  0.00    +0.000 A 
ATOM     28  C   UNL     1      38.960   5.025  18.708  0.00  0.00    +0.000 A 
ATOM     29  C   UNL     1      39.919   5.992  18.825  0.00  0.00    +0.000 A 
ATOM     30  C   UNL     1      40.543   6.490  17.701  0.00  0.00    +0.000 A 
ATOM     31  C   UNL     1      40.201   6.015  16.462  0.00  0.00    +0.000 A 
ATOM     32  C   UNL     1      39.245   5.046  16.306  0.00  0.00    +0.000 A 
ENDBRANCH  26  27
ENDBRANCH  25  26
ENDBRANCH  23  25
ENDBRANCH   2  22
TORSDOF 7
ENDMDL
MODEL 3
REMARK VINA RESULT:      -6.9      3.233      6.502
REMARK  Name = 
REMARK  7 active torsions:
REMARK  status: ('A' for Active; 'I' for Inactive)
REMARK    1  A    between atoms: O_2  and  C_3
REMARK    2  A    between atoms: C_6  and  N_7
REMARK    3  A    between atoms: C_8  and  C_10
REMARK    4  A    between atoms: C_11  and  N_12
REMARK    5  A    between atoms: C_13  and  C_15
REMARK    6  A    between atoms: C_15  and  O_16
REMARK    7  A    between atoms: O_16  and  C_17
REMARK                            x       y       z     vdW  Elec       q    Type
REMARK                         _______ _______ _______ _____ _____    ______ ____
ROOT
ATOM      1  C   UNL     1      36.898   0.297  15.423  0.00  0.00    +0.000 A 
ATOM      2  C   UNL     1      36.344   1.483  15.816  0.00  0.00    +0.000 A 
ATOM      3  S   UNL     1      35.066   1.005  16.830  0.00  0.00    +0.000 S 
ATOM      4  C   UNL     1      35.260  -0.687  16.735  0.00  0.00    +0.000 A 
ATOM      5  C   UNL     1      36.335  -0.831  15.901  0.00  0.00    +0.000 A 
ATOM      6  C   UNL     1      36.850  -2.224  15.545  0.00  0.00    +0.000 C 
ATOM      7  C   UNL     1      35.694  -2.963  14.882  0.00  0.00    +0.000 C 
ATOM      8  C   UNL     1      34.783  -3.592  15.899  0.00  0.00    +0.000 C 
ATOM      9  C   UNL     1      33.752  -2.586  16.352  0.00  0.00    +0.000 C 
ATOM     10  C   UNL     1      34.416  -1.731  17.430  0.00  0.00    +0.000 C 
ENDROOT
BRANCH   1  12
ATOM     11  N   UNL     1      39.359   0.463  15.048  0.00  0.00    +0.000 NA
ATOM     12  C   UNL     1      38.065   0.306  14.511  0.00  0.00    +0.000 C 
ATOM     13  O   UNL     1      37.958   0.180  13.281  0.00  0.00    +0.000 OA
BRANCH  11  17
ATOM     14  C   UNL     1      42.887   0.408  12.820  0.00  0.00    +0.000 A 
ATOM     15  C   UNL     1      42.146   1.570  12.822  0.00  0.00    +0.000 A 
ATOM     16  C   UNL     1      40.971   1.574  13.571  0.00  0.00    +0.000 A 
ATOM     17  C   UNL     1      40.544   0.487  14.282  0.00  0.00    +0.000 A 
ATOM     18  C   UNL     1      41.308  -0.680  14.268  0.00  0.00    +0.000 A 
ATOM     19  C   UNL     1      42.470  -0.689  13.530  0.00  0.00    +0.000 A 
BRANCH  14  21
ATOM     20  C   UNL     1      44.089   0.011  10.722  0.00  0.00    +0.000 C 
ATOM     21  O   UNL     1      44.074   0.344  12.088  0.00  0.00    +0.000 OA
ENDBRANCH  14  21
ENDBRANCH  11  17
ENDBRANCH   1  12
BRANCH   2  22
ATOM     22  N   UNL     1      36.732   2.810  15.468  0.00  0.00    +0.000 NA
ATOM     23  C   UNL     1      37.313   3.651  16.465  0.00  0.00    +0.000 C 
ATOM     24  O   UNL     1      37.451   3.170  17.607  0.00  0.00    +0.000 OA
BRANCH  23  25
ATOM     25  C   UNL     1      37.731   5.039  16.144  0.00  0.00    +0.000 C 
BRANCH  25  26
ATOM     26  O   UNL     1      38.977   5.336  16.704  0.00  0.00    +0.000 OA
BRANCH  26  27
ATOM     27  C   UNL     1      39.035   6.090  17.868  0.00  0.00    +0.000 A 
ATOM     28  C   UNL     1      38.141   7.097  18.161  0.00  0.00    +0.000 A 
ATOM     29  C   UNL     1      38.275   7.789  19.333  0.00  0.00    +0.000 A 
ATOM     30  C   UNL     1      39.294   7.480  20.208  0.00  0.00    +0.000 A 
ATOM     31  C   UNL     1      40.176   6.475  19.904  0.00  0.00    +0.000 A 
ATOM     32  C   UNL     1      40.072   5.761  18.739  0.00  0.00    +0.000 A 
ENDBRANCH  26  27
ENDBRANCH  25  26
ENDBRANCH  23  25
ENDBRANCH   2  22
TORSDOF 7
ENDMDL
MODEL 4
REMARK VINA RESULT:      -6.8      3.088      7.986
REMARK  Name = 
REMARK  7 active torsions:
REMARK  status: ('A' for Active; 'I' for Inactive)
REMARK    1  A    between atoms: O_2  and  C_3
REMARK    2  A    between atoms: C_6  and  N_7
REMARK    3  A    between atoms: C_8  and  C_10
REMARK    4  A    between atoms: C_11  and  N_12
REMARK    5  A    between atoms: C_13  and  C_15
REMARK    6  A    between atoms: C_15  and  O_16
REMARK    7  A    between atoms: O_16  and  C_17
REMARK                            x       y       z     vdW  Elec       q    Type
REMARK                         _______ _______ _______ _____ _____    ______ ____
ROOT
ATOM      1  C   UNL     1      38.219  -1.197  15.451  0.00  0.00    +0.000 A 
ATOM      2  C   UNL     1      39.355  -1.624  14.822  0.00  0.00    +0.000 A 
ATOM      3  S   UNL     1      39.916  -2.874  15.827  0.00  0.00    +0.000 S 
ATOM      4  C   UNL     1      38.702  -2.831  17.023  0.00  0.00    +0.000 A 
ATOM      5  C   UNL     1      37.879  -1.824  16.595  0.00  0.00    +0.000 A 
ATOM      6  C   UNL     1      36.637  -1.452  17.403  0.00  0.00    +0.000 C 
ATOM      7  C   UNL     1      37.121  -1.046  18.789  0.00  0.00    +0.000 C 
ATOM      8  C   UNL     1      37.307  -2.241  19.682  0.00  0.00    +0.000 C 
ATOM      9  C   UNL     1      38.685  -2.822  19.479  0.00  0.00    +0.000 C 
ATOM     10  C   UNL     1      38.606  -3.718  18.243  0.00  0.00    +0.000 C 
ENDROOT
BRANCH   1  12
ATOM     11  N   UNL     1      37.602   1.219  15.357  0.00  0.00    +0.000 NA
ATOM     12  C   UNL     1      37.432  -0.090  14.861  0.00  0.00    +0.000 C 
ATOM     13  O   UNL     1      36.619  -0.261  13.939  0.00  0.00    +0.000 OA
BRANCH  11  17
ATOM     14  C   UNL     1      35.662   4.596  13.856  0.00  0.00    +0.000 A 
ATOM     15  C   UNL     1      34.996   3.833  14.791  0.00  0.00    +0.000 A 
ATOM     16  C   UNL     1      35.656   2.709  15.284  0.00  0.00    +0.000 A 
ATOM     17  C   UNL     1      36.911   2.351  14.876  0.00  0.00    +0.000 A 
ATOM     18  C   UNL     1      37.570   3.135  13.929  0.00  0.00    +0.000 A 
ATOM     19  C   UNL     1      36.921   4.247  13.439  0.00  0.00    +0.000 A 
BRANCH  14  21
ATOM     20  C   UNL     1      34.094   6.468  14.048  0.00  0.00    +0.000 C 
ATOM     21  O   UNL     1      35.052   5.734  13.327  0.00  0.00    +0.000 OA
ENDBRANCH  14  21
ENDBRANCH  11  17
ENDBRANCH   1  12
BRANCH   2  22
ATOM     22  N   UNL     1      39.941  -1.146  13.614  0.00  0.00    +0.000 NA
ATOM     23  C   UNL     1      39.721  -1.866  12.400  0.00  0.00    +0.000 C 
ATOM     24  O   UNL     1      39.017  -2.891  12.464  0.00  0.00    +0.000 OA
BRANCH  23  25
ATOM     25  C   UNL     1      40.313  -1.401  11.120  0.00  0.00    +0.000 C 
BRANCH  25  26
ATOM     26  O   UNL     1      40.233  -0.011  10.998  0.00  0.00    +0.000 OA
BRANCH  26  27
ATOM     27  C   UNL     1      39.177   0.549  10.292  0.00  0.00    +0.000 A 
ATOM     28  C   UNL     1      38.017   0.991  10.891  0.00  0.00    +0.000 A 
ATOM     29  C   UNL     1      37.028   1.529  10.115  0.00  0.00    +0.000 A 
ATOM     30  C   UNL     1      37.194   1.627   8.751  0.00  0.00    +0.000 A 
ATOM     31  C   UNL     1      38.353   1.184   8.169  0.00  0.00    +0.000 A 
ATOM     32  C   UNL     1      39.365   0.640   8.915  0.00  0.00    +0.000 A 
ENDBRANCH  26  27
ENDBRANCH  25  26
ENDBRANCH  23  25
ENDBRANCH   2  22
TORSDOF 7
ENDMDL
MODEL 5
REMARK VINA RESULT:      -6.7      3.620      6.527
REMARK  Name = 
REMARK  7 active torsions:
REMARK  status: ('A' for Active; 'I' for Inactive)
REMARK    1  A    between atoms: O_2  and  C_3
REMARK    2  A    between atoms: C_6  and  N_7
REMARK    3  A    between atoms: C_8  and  C_10
REMARK    4  A    between atoms: C_11  and  N_12
REMARK    5  A    between atoms: C_13  and  C_15
REMARK    6  A    between atoms: C_15  and  O_16
REMARK    7  A    between atoms: O_16  and  C_17
REMARK                            x       y       z     vdW  Elec       q    Type
REMARK                         _______ _______ _______ _____ _____    ______ ____
ROOT
ATOM      1  C   UNL     1      37.064   0.552  15.572  0.00  0.00    +0.000 A 
ATOM      2  C   UNL     1      36.525   1.757  15.926  0.00  0.00    +0.000 A 
ATOM      3  S   UNL     1      35.247   1.328  16.961  0.00  0.00    +0.000 S 
ATOM      4  C   UNL     1      35.423  -0.367  16.926  0.00  0.00    +0.000 A 
ATOM      5  C   UNL     1      36.492  -0.553  16.093  0.00  0.00    +0.000 A 
ATOM      6  C   UNL     1      36.991  -1.963  15.785  0.00  0.00    +0.000 C 
ATOM      7  C   UNL     1      35.825  -2.712  15.154  0.00  0.00    +0.000 C 
ATOM      8  C   UNL     1      34.912  -3.295  16.196  0.00  0.00    +0.000 C 
ATOM      9  C   UNL     1      33.893  -2.263  16.618  0.00  0.00    +0.000 C 
ATOM     10  C   UNL     1      34.572  -1.377  17.662  0.00  0.00    +0.000 C 
ENDROOT
BRANCH   1  12
ATOM     11  N   UNL     1      38.035   0.135  13.311  0.00  0.00    +0.000 NA
ATOM     12  C   UNL     1      38.227   0.516  14.656  0.00  0.00    +0.000 C 
ATOM     13  O   UNL     1      39.377   0.807  15.018  0.00  0.00    +0.000 OA
BRANCH  11  17
ATOM     14  C   UNL     1      41.047   0.048  10.424  0.00  0.00    +0.000 A 
ATOM     15  C   UNL     1      40.844  -1.089  11.176  0.00  0.00    +0.000 A 
ATOM     16  C   UNL     1      39.835  -1.046  12.136  0.00  0.00    +0.000 A 
ATOM     17  C   UNL     1      39.063   0.063  12.347  0.00  0.00    +0.000 A 
ATOM     18  C   UNL     1      39.282   1.204  11.576  0.00  0.00    +0.000 A 
ATOM     19  C   UNL     1      40.279   1.166  10.626  0.00  0.00    +0.000 A 
BRANCH  14  21
ATOM     20  C   UNL     1      42.794  -1.081   9.131  0.00  0.00    +0.000 C 
ATOM     21  O   UNL     1      42.043   0.065   9.447  0.00  0.00    +0.000 OA
ENDBRANCH  14  21
ENDBRANCH  11  17
ENDBRANCH   1  12
BRANCH   2  22
ATOM     22  N   UNL     1      36.925   3.066  15.529  0.00  0.00    +0.000 NA
ATOM     23  C   UNL     1      37.596   3.905  16.469  0.00  0.00    +0.000 C 
ATOM     24  O   UNL     1      37.798   3.439  17.607  0.00  0.00    +0.000 OA
BRANCH  23  25
ATOM     25  C   UNL     1      38.030   5.276  16.096  0.00  0.00    +0.000 C 
BRANCH  25  26
ATOM     26  O   UNL     1      38.159   6.092  17.224  0.00  0.00    +0.000 OA
BRANCH  26  27
ATOM     27  C   UNL     1      39.399   6.212  17.835  0.00  0.00    +0.000 A 
ATOM     28  C   UNL     1      40.579   6.339  17.133  0.00  0.00    +0.000 A 
ATOM     29  C   UNL     1      41.755   6.452  17.820  0.00  0.00    +0.000 A 
ATOM     30  C   UNL     1      41.758   6.439  19.198  0.00  0.00    +0.000 A 
ATOM     31  C   UNL     1      40.577   6.314  19.883  0.00  0.00    +0.000 A 
ATOM     32  C   UNL     1      39.379   6.199  19.228  0.00  0.00    +0.000 A 
ENDBRANCH  26  27
ENDBRANCH  25  26
ENDBRANCH  23  25
ENDBRANCH   2  22
TORSDOF 7
ENDMDL
MODEL 6
REMARK VINA RESULT:      -6.6      2.287      5.218
REMARK  Name = 
REMARK  7 active torsions:
REMARK  status: ('A' for Active; 'I' for Inactive)
REMARK    1  A    between atoms: O_2  and  C_3
REMARK    2  A    between atoms: C_6  and  N_7
REMARK    3  A    between atoms: C_8  and  C_10
REMARK    4  A    between atoms: C_11  and  N_12
REMARK    5  A    between atoms: C_13  and  C_15
REMARK    6  A    between atoms: C_15  and  O_16
REMARK    7  A    between atoms: O_16  and  C_17
REMARK                            x       y       z     vdW  Elec       q    Type
REMARK                         _______ _______ _______ _____ _____    ______ ____
ROOT
ATOM      1  C   UNL     1      36.806   3.895  12.895  0.00  0.00    +0.000 A 
ATOM      2  C   UNL     1      37.245   3.445  11.682  0.00  0.00    +0.000 A 
ATOM      3  S   UNL     1      36.836   4.707  10.620  0.00  0.00    +0.000 S 
ATOM      4  C   UNL     1      36.118   5.780  11.734  0.00  0.00    +0.000 A 
ATOM      5  C   UNL     1      36.220   5.109  12.923  0.00  0.00    +0.000 A 
ATOM      6  C   UNL     1      35.684   5.736  14.208  0.00  0.00    +0.000 C 
ATOM      7  C   UNL     1      34.197   5.986  13.986  0.00  0.00    +0.000 C 
ATOM      8  C   UNL     1      33.954   7.292  13.282  0.00  0.00    +0.000 C 
ATOM      9  C   UNL     1      34.043   7.091  11.789  0.00  0.00    +0.000 C 
ATOM     10  C   UNL     1      35.527   7.137  11.427  0.00  0.00    +0.000 C 
ENDROOT
BRANCH   1  12
ATOM     11  N   UNL     1      36.058   2.025  14.369  0.00  0.00    +0.000 NA
ATOM     12  C   UNL     1      36.990   3.048  14.096  0.00  0.00    +0.000 C 
ATOM     13  O   UNL     1      37.936   3.197  14.884  0.00  0.00    +0.000 OA
BRANCH  11  17
ATOM     14  C   UNL     1      36.177  -0.464  17.716  0.00  0.00    +0.000 A 
ATOM     15  C   UNL     1      36.946  -0.813  16.627  0.00  0.00    +0.000 A 
ATOM     16  C   UNL     1      36.897   0.028  15.517  0.00  0.00    +0.000 A 
ATOM     17  C   UNL     1      36.127   1.157  15.479  0.00  0.00    +0.000 A 
ATOM     18  C   UNL     1      35.354   1.494  16.590  0.00  0.00    +0.000 A 
ATOM     19  C   UNL     1      35.400   0.666  17.690  0.00  0.00    +0.000 A 
BRANCH  14  21
ATOM     20  C   UNL     1      37.374  -1.806  19.379  0.00  0.00    +0.000 C 
ATOM     21  O   UNL     1      36.185  -1.267  18.857  0.00  0.00    +0.000 OA
ENDBRANCH  14  21
ENDBRANCH  11  17
ENDBRANCH   1  12
BRANCH   2  22
ATOM     22  N   UNL     1      37.891   2.214  11.365  0.00  0.00    +0.000 NA
ATOM     23  C   UNL     1      39.312   2.123  11.480  0.00  0.00    +0.000 C 
ATOM     24  O   UNL     1      39.921   3.143  11.856  0.00  0.00    +0.000 OA
BRANCH  23  25
ATOM     25  C   UNL     1      40.024   0.859  11.161  0.00  0.00    +0.000 C 
BRANCH  25  26
ATOM     26  O   UNL     1      39.254  -0.257  11.501  0.00  0.00    +0.000 OA
BRANCH  26  27
ATOM     27  C   UNL     1      39.525  -0.934  12.682  0.00  0.00    +0.000 A 
ATOM     28  C   UNL     1      40.502  -0.540  13.572  0.00  0.00    +0.000 A 
ATOM     29  C   UNL     1      40.699  -1.269  14.711  0.00  0.00    +0.000 A 
ATOM     30  C   UNL     1      39.928  -2.382  14.965  0.00  0.00    +0.000 A 
ATOM     31  C   UNL     1      38.959  -2.761  14.072  0.00  0.00    +0.000 A 
ATOM     32  C   UNL     1      38.734  -2.055  12.920  0.00  0.00    +0.000 A 
ENDBRANCH  26  27
ENDBRANCH  25  26
ENDBRANCH  23  25
ENDBRANCH   2  22
TORSDOF 7
ENDMDL
MODEL 7
REMARK VINA RESULT:      -6.4      2.576      6.423
REMARK  Name = 
REMARK  7 active torsions:
REMARK  status: ('A' for Active; 'I' for Inactive)
REMARK    1  A    between atoms: O_2  and  C_3
REMARK    2  A    between atoms: C_6  and  N_7
REMARK    3  A    between atoms: C_8  and  C_10
REMARK    4  A    between atoms: C_11  and  N_12
REMARK    5  A    between atoms: C_13  and  C_15
REMARK    6  A    between atoms: C_15  and  O_16
REMARK    7  A    between atoms: O_16  and  C_17
REMARK                            x       y       z     vdW  Elec       q    Type
REMARK                         _______ _______ _______ _____ _____    ______ ____
ROOT
ATOM      1  C   UNL     1      39.564  -0.637  14.443  0.00  0.00    +0.000 A 
ATOM      2  C   UNL     1      39.196  -1.816  15.028  0.00  0.00    +0.000 A 
ATOM      3  S   UNL     1      40.667  -2.648  15.201  0.00  0.00    +0.000 S 
ATOM      4  C   UNL     1      41.720  -1.486  14.529  0.00  0.00    +0.000 A 
ATOM      5  C   UNL     1      40.876  -0.465  14.184  0.00  0.00    +0.000 A 
ATOM      6  C   UNL     1      41.429   0.802  13.535  0.00  0.00    +0.000 C 
ATOM      7  C   UNL     1      42.122   0.369  12.249  0.00  0.00    +0.000 C 
ATOM      8  C   UNL     1      43.533  -0.081  12.504  0.00  0.00    +0.000 C 
ATOM      9  C   UNL     1      43.544  -1.541  12.887  0.00  0.00    +0.000 C 
ATOM     10  C   UNL     1      43.219  -1.608  14.378  0.00  0.00    +0.000 C 
ENDROOT
BRANCH   1  12
ATOM     11  N   UNL     1      38.076   1.239  15.147  0.00  0.00    +0.000 NA
ATOM     12  C   UNL     1      38.529   0.374  14.129  0.00  0.00    +0.000 C 
ATOM     13  O   UNL     1      38.033   0.499  12.998  0.00  0.00    +0.000 OA
BRANCH  11  17
ATOM     14  C   UNL     1      35.278   4.283  14.586  0.00  0.00    +0.000 A 
ATOM     15  C   UNL     1      34.813   3.047  14.981  0.00  0.00    +0.000 A 
ATOM     16  C   UNL     1      35.759   2.040  15.165  0.00  0.00    +0.000 A 
ATOM     17  C   UNL     1      37.097   2.239  14.969  0.00  0.00    +0.000 A 
ATOM     18  C   UNL     1      37.549   3.497  14.569  0.00  0.00    +0.000 A 
ATOM     19  C   UNL     1      36.618   4.495  14.386  0.00  0.00    +0.000 A 
BRANCH  14  21
ATOM     20  C   UNL     1      34.718   6.471  13.638  0.00  0.00    +0.000 C 
ATOM     21  O   UNL     1      34.378   5.331  14.386  0.00  0.00    +0.000 OA
ENDBRANCH  14  21
ENDBRANCH  11  17
ENDBRANCH   1  12
BRANCH   2  22
ATOM     22  N   UNL     1      37.894  -2.257  15.407  0.00  0.00    +0.000 NA
ATOM     23  C   UNL     1      37.420  -1.981  16.726  0.00  0.00    +0.000 C 
ATOM     24  O   UNL     1      38.185  -1.358  17.487  0.00  0.00    +0.000 OA
BRANCH  23  25
ATOM     25  C   UNL     1      36.071  -2.422  17.160  0.00  0.00    +0.000 C 
BRANCH  25  26
ATOM     26  O   UNL     1      35.240  -2.670  16.063  0.00  0.00    +0.000 OA
BRANCH  26  27
ATOM     27  C   UNL     1      34.914  -3.980  15.741  0.00  0.00    +0.000 A 
ATOM     28  C   UNL     1      35.607  -5.071  16.221  0.00  0.00    +0.000 A 
ATOM     29  C   UNL     1      35.214  -6.326  15.850  0.00  0.00    +0.000 A 
ATOM     30  C   UNL     1      34.138  -6.495  15.006  0.00  0.00    +0.000 A 
ATOM     31  C   UNL     1      33.458  -5.401  14.537  0.00  0.00    +0.000 A 
ATOM     32  C   UNL     1      33.823  -4.128  14.888  0.00  0.00    +0.000 A 
ENDBRANCH  26  27
ENDBRANCH  25  26
ENDBRANCH  23  25
ENDBRANCH   2  22
TORSDOF 7
ENDMDL
MODEL 8
REMARK VINA RESULT:      -6.3     28.630     31.647
REMARK  Name = 
REMARK  7 active torsions:
REMARK  status: ('A' for Active; 'I' for Inactive)
REMARK    1  A    between atoms: O_2  and  C_3
REMARK    2  A    between atoms: C_6  and  N_7
REMARK    3  A    between atoms: C_8  and  C_10
REMARK    4  A    between atoms: C_11  and  N_12
REMARK    5  A    between atoms: C_13  and  C_15
REMARK    6  A    between atoms: C_15  and  O_16
REMARK    7  A    between atoms: O_16  and  C_17
REMARK                            x       y       z     vdW  Elec       q    Type
REMARK                         _______ _______ _______ _____ _____    ______ ____
ROOT
ATOM      1  C   UNL     1      24.223  15.144  41.951  0.00  0.00    +0.000 A 
ATOM      2  C   UNL     1      24.156  15.966  40.861  0.00  0.00    +0.000 A 
ATOM      3  S   UNL     1      22.671  16.767  41.060  0.00  0.00    +0.000 S 
ATOM      4  C   UNL     1      22.164  16.046  42.520  0.00  0.00    +0.000 A 
ATOM      5  C   UNL     1      23.188  15.186  42.814  0.00  0.00    +0.000 A 
ATOM      6  C   UNL     1      23.129  14.323  44.073  0.00  0.00    +0.000 C 
ATOM      7  C   UNL     1      21.873  13.468  43.960  0.00  0.00    +0.000 C 
ATOM      8  C   UNL     1      20.656  14.205  44.444  0.00  0.00    +0.000 C 
ATOM      9  C   UNL     1      20.077  15.030  43.320  0.00  0.00    +0.000 C 
ATOM     10  C   UNL     1      20.881  16.328  43.267  0.00  0.00    +0.000 C 
ENDROOT
BRANCH   1  12
ATOM     11  N   UNL     1      25.386  12.968  41.580  0.00  0.00    +0.000 NA
ATOM     12  C   UNL     1      25.402  14.266  42.130  0.00  0.00    +0.000 C 
ATOM     13  O   UNL     1      26.417  14.623  42.749  0.00  0.00    +0.000 OA
BRANCH  11  17
ATOM     14  C   UNL     1      28.460  10.176  41.993  0.00  0.00    +0.000 A 
ATOM     15  C   UNL     1      28.573  11.113  40.988  0.00  0.00    +0.000 A 
ATOM     16  C   UNL     1      27.539  12.039  40.862  0.00  0.00    +0.000 A 
ATOM     17  C   UNL     1      26.447  12.043  41.685  0.00  0.00    +0.000 A 
ATOM     18  C   UNL     1      26.350  11.087  42.696  0.00  0.00    +0.000 A 
ATOM     19  C   UNL     1      27.370  10.170  42.824  0.00  0.00    +0.000 A 
BRANCH  14  21
ATOM     20  C   UNL     1      30.137   8.642  41.078  0.00  0.00    +0.000 C 
ATOM     21  O   UNL     1      29.465   9.223  42.168  0.00  0.00    +0.000 OA
ENDBRANCH  14  21
ENDBRANCH  11  17
ENDBRANCH   1  12
BRANCH   2  22
ATOM     22  N   UNL     1      25.098  16.124  39.802  0.00  0.00    +0.000 NA
ATOM     23  C   UNL     1      24.990  15.295  38.644  0.00  0.00    +0.000 C 
ATOM     24  O   UNL     1      24.062  14.463  38.622  0.00  0.00    +0.000 OA
BRANCH  23  25
ATOM     25  C   UNL     1      25.949  15.427  37.518  0.00  0.00    +0.000 C 
BRANCH  25  26
ATOM     26  O   UNL     1      25.558  16.438  36.634  0.00  0.00    +0.000 OA
BRANCH  26  27
ATOM     27  C   UNL     1      25.455  16.151  35.280  0.00  0.00    +0.000 A 
ATOM     28  C   UNL     1      25.041  17.073  34.342  0.00  0.00    +0.000 A 
ATOM     29  C   UNL     1      24.969  16.701  33.028  0.00  0.00    +0.000 A 
ATOM     30  C   UNL     1      25.308  15.420  32.650  0.00  0.00    +0.000 A 
ATOM     31  C   UNL     1      25.720  14.515  33.594  0.00  0.00    +0.000 A 
ATOM     32  C   UNL     1      25.804  14.852  34.919  0.00  0.00    +0.000 A 
ENDBRANCH  26  27
ENDBRANCH  25  26
ENDBRANCH  23  25
ENDBRANCH   2  22
TORSDOF 7
ENDMDL
MODEL 9
REMARK VINA RESULT:      -6.3      2.453      7.359
REMARK  Name = 
REMARK  7 active torsions:
REMARK  status: ('A' for Active; 'I' for Inactive)
REMARK    1  A    between atoms: O_2  and  C_3
REMARK    2  A    between atoms: C_6  and  N_7
REMARK    3  A    between atoms: C_8  and  C_10
REMARK    4  A    between atoms: C_11  and  N_12
REMARK    5  A    between atoms: C_13  and  C_15
REMARK    6  A    between atoms: C_15  and  O_16
REMARK    7  A    between atoms: O_16  and  C_17
REMARK                            x       y       z     vdW  Elec       q    Type
REMARK                         _______ _______ _______ _____ _____    ______ ____
ROOT
ATOM      1  C   UNL     1      37.441  -0.042  15.145  0.00  0.00    +0.000 A 
ATOM      2  C   UNL     1      38.635  -0.628  14.832  0.00  0.00    +0.000 A 
ATOM      3  S   UNL     1      38.843  -1.781  16.064  0.00  0.00    +0.000 S 
ATOM      4  C   UNL     1      37.414  -1.497  16.949  0.00  0.00    +0.000 A 
ATOM      5  C   UNL     1      36.805  -0.494  16.244  0.00  0.00    +0.000 A 
ATOM      6  C   UNL     1      35.464   0.068  16.712  0.00  0.00    +0.000 C 
ATOM      7  C   UNL     1      35.681   0.607  18.120  0.00  0.00    +0.000 C 
ATOM      8  C   UNL     1      35.553  -0.476  19.154  0.00  0.00    +0.000 C 
ATOM      9  C   UNL     1      36.878  -1.179  19.324  0.00  0.00    +0.000 C 
ATOM     10  C   UNL     1      36.974  -2.215  18.204  0.00  0.00    +0.000 C 
ENDROOT
BRANCH   1  12
ATOM     11  N   UNL     1      37.157   2.383  14.625  0.00  0.00    +0.000 NA
ATOM     12  C   UNL     1      36.911   1.038  14.280  0.00  0.00    +0.000 C 
ATOM     13  O   UNL     1      36.252   0.813  13.253  0.00  0.00    +0.000 OA
BRANCH  11  17
ATOM     14  C   UNL     1      35.731   5.692  12.522  0.00  0.00    +0.000 A 
ATOM     15  C   UNL     1      36.776   4.982  11.972  0.00  0.00    +0.000 A 
ATOM     16  C   UNL     1      37.241   3.879  12.685  0.00  0.00    +0.000 A 
ATOM     17  C   UNL     1      36.706   3.494  13.882  0.00  0.00    +0.000 A 
ATOM     18  C   UNL     1      35.648   4.225  14.424  0.00  0.00    +0.000 A 
ATOM     19  C   UNL     1      35.185   5.316  13.723  0.00  0.00    +0.000 A 
BRANCH  14  21
ATOM     20  C   UNL     1      35.091   6.839  10.455  0.00  0.00    +0.000 C 
ATOM     21  O   UNL     1      35.221   6.806  11.854  0.00  0.00    +0.000 OA
ENDBRANCH  14  21
ENDBRANCH  11  17
ENDBRANCH   1  12
BRANCH   2  22
ATOM     22  N   UNL     1      39.509  -0.350  13.740  0.00  0.00    +0.000 NA
ATOM     23  C   UNL     1      39.575  -1.269  12.649  0.00  0.00    +0.000 C 
ATOM     24  O   UNL     1      38.854  -2.283  12.712  0.00  0.00    +0.000 OA
BRANCH  23  25
ATOM     25  C   UNL     1      40.472  -1.017  11.492  0.00  0.00    +0.000 C 
BRANCH  25  26
ATOM     26  O   UNL     1      41.718  -1.623  11.675  0.00  0.00    +0.000 OA
BRANCH  26  27
ATOM     27  C   UNL     1      42.577  -1.128  12.647  0.00  0.00    +0.000 A 
ATOM     28  C   UNL     1      43.074   0.158  12.632  0.00  0.00    +0.000 A 
ATOM     29  C   UNL     1      43.916   0.559  13.632  0.00  0.00    +0.000 A 
ATOM     30  C   UNL     1      44.260  -0.314  14.641  0.00  0.00    +0.000 A 
ATOM     31  C   UNL     1      43.757  -1.589  14.644  0.00  0.00    +0.000 A 
ATOM     32  C   UNL     1      42.911  -2.026  13.658  0.00  0.00    +0.000 A 
ENDBRANCH  26  27
ENDBRANCH  25  26
ENDBRANCH  23  25
ENDBRANCH   2  22
TORSDOF 7
ENDMDL
MODEL 10
REMARK VINA RESULT:      -6.2     29.009     32.147
REMARK  Name = 
REMARK  7 active torsions:
REMARK  status: ('A' for Active; 'I' for Inactive)
REMARK    1  A    between atoms: O_2  and  C_3
REMARK    2  A    between atoms: C_6  and  N_7
REMARK    3  A    between atoms: C_8  and  C_10
REMARK    4  A    between atoms: C_11  and  N_12
REMARK    5  A    between atoms: C_13  and  C_15
REMARK    6  A    between atoms: C_15  and  O_16
REMARK    7  A    between atoms: O_16  and  C_17
REMARK                            x       y       z     vdW  Elec       q    Type
REMARK                         _______ _______ _______ _____ _____    ______ ____
ROOT
ATOM      1  C   UNL     1      26.821  11.485  42.060  0.00  0.00    +0.000 A 
ATOM      2  C   UNL     1      25.843  10.717  42.626  0.00  0.00    +0.000 A 
ATOM      3  S   UNL     1      26.678   9.330  43.141  0.00  0.00    +0.000 S 
ATOM      4  C   UNL     1      28.250   9.751  42.629  0.00  0.00    +0.000 A 
ATOM      5  C   UNL     1      28.072  10.984  42.062  0.00  0.00    +0.000 A 
ATOM      6  C   UNL     1      29.262  11.733  41.465  0.00  0.00    +0.000 C 
ATOM      7  C   UNL     1      29.838  10.840  40.373  0.00  0.00    +0.000 C 
ATOM      8  C   UNL     1      30.796   9.827  40.934  0.00  0.00    +0.000 C 
ATOM      9  C   UNL     1      30.037   8.606  41.395  0.00  0.00    +0.000 C 
ATOM     10  C   UNL     1      29.503   8.922  42.792  0.00  0.00    +0.000 C 
ENDROOT
BRANCH   1  12
ATOM     11  N   UNL     1      26.291  12.923  40.090  0.00  0.00    +0.000 NA
ATOM     12  C   UNL     1      26.469  12.804  41.484  0.00  0.00    +0.000 C 
ATOM     13  O   UNL     1      26.322  13.822  42.178  0.00  0.00    +0.000 OA
BRANCH  11  17
ATOM     14  C   UNL     1      25.430  16.499  38.118  0.00  0.00    +0.000 A 
ATOM     15  C   UNL     1      24.370  15.720  38.530  0.00  0.00    +0.000 A 
ATOM     16  C   UNL     1      24.672  14.529  39.188  0.00  0.00    +0.000 A 
ATOM     17  C   UNL     1      25.956  14.123  39.428  0.00  0.00    +0.000 A 
ATOM     18  C   UNL     1      27.016  14.925  39.004  0.00  0.00    +0.000 A 
ATOM     19  C   UNL     1      26.722  16.103  38.354  0.00  0.00    +0.000 A 
BRANCH  14  21
ATOM     20  C   UNL     1      25.087  17.773  36.054  0.00  0.00    +0.000 C 
ATOM     21  O   UNL     1      25.189  17.702  37.455  0.00  0.00    +0.000 OA
ENDBRANCH  14  21
ENDBRANCH  11  17
ENDBRANCH   1  12
BRANCH   2  22
ATOM     22  N   UNL     1      24.451  10.997  42.760  0.00  0.00    +0.000 NA
ATOM     23  C   UNL     1      23.982  11.655  43.937  0.00  0.00    +0.000 C 
ATOM     24  O   UNL     1      24.830  11.953  44.800  0.00  0.00    +0.000 OA
BRANCH  23  25
ATOM     25  C   UNL     1      22.541  11.965  44.115  0.00  0.00    +0.000 C 
BRANCH  25  26
ATOM     26  O   UNL     1      21.757  11.291  43.174  0.00  0.00    +0.000 OA
BRANCH  26  27
ATOM     27  C   UNL     1      20.384  11.498  43.162  0.00  0.00    +0.000 A 
ATOM     28  C   UNL     1      19.533  10.972  44.111  0.00  0.00    +0.000 A 
ATOM     29  C   UNL     1      18.193  11.228  44.019  0.00  0.00    +0.000 A 
ATOM     30  C   UNL     1      17.703  12.003  42.991  0.00  0.00    +0.000 A 
ATOM     31  C   UNL     1      18.562  12.520  42.055  0.00  0.00    +0.000 A 
ATOM     32  C   UNL     1      19.910  12.285  42.115  0.00  0.00    +0.000 A 
ENDBRANCH  26  27
ENDBRANCH  25  26
ENDBRANCH  23  25
ENDBRANCH   2  22
TORSDOF 7
ENDMDL
