MODEL 1
REMARK VINA RESULT:      -7.3      0.000      0.000
REMARK  Name = 
REMARK  3 active torsions:
REMARK  status: ('A' for Active; 'I' for Inactive)
REMARK    1  A    between atoms: C_7  and  N_8
REMARK    2  A    between atoms: N_8  and  N_9
REMARK    3  A    between atoms: C_10  and  C_12
REMARK                            x       y       z     vdW  Elec       q    Type
REMARK                         _______ _______ _______ _____ _____    ______ ____
ROOT
ATOM      1  N   UNL     1      15.751  10.858  34.038  0.00  0.00    +0.000 NA
ATOM      2  C   UNL     1      15.986  11.375  35.319  0.00  0.00    +0.000 C 
ATOM      3  O   UNL     1      15.451  12.478  35.577  0.00  0.00    +0.000 OA
ENDROOT
BRANCH   2   4
ATOM      4  C   UNL     1      16.813  10.673  36.319  0.00  0.00    +0.000 A 
ATOM      5  C   UNL     1      16.451  10.793  37.641  0.00  0.00    +0.000 A 
ATOM      6  C   UNL     1      17.186  10.163  38.650  0.00  0.00    +0.000 A 
ATOM      7  C   UNL     1      18.300   9.402  38.326  0.00  0.00    +0.000 A 
ATOM      8 BR   UNL     1      19.272   8.561  39.741  0.00  0.00    +0.000 Br
ATOM      9  C   UNL     1      18.641   9.298  37.000  0.00  0.00    +0.000 A 
ATOM     10  C   UNL     1      17.914   9.921  36.001  0.00  0.00    +0.000 A 
ENDBRANCH   2   4
BRANCH   1  11
ATOM     11  N   UNL     1      15.043  11.364  33.063  0.00  0.00    +0.000 NA
BRANCH  11  18
ATOM     12  C   UNL     1      13.817  13.847  32.874  0.00  0.00    +0.000 C 
ATOM     13  C   UNL     1      13.896  12.889  31.553  0.00  0.00    +0.000 C 
ATOM     14  C   UNL     1      14.319  14.011  30.554  0.00  0.00    +0.000 C 
ATOM     15  C   UNL     1      15.686  14.524  30.677  0.00  0.00    +0.000 C 
ATOM     16  C   UNL     1      16.525  13.301  30.211  0.00  0.00    +0.000 C 
ATOM     17  C   UNL     1      16.370  12.401  31.364  0.00  0.00    +0.000 C 
ATOM     18  C   UNL     1      15.251  12.215  31.949  0.00  0.00    +0.000 C 
ENDBRANCH  11  18
ENDBRANCH   1  11
TORSDOF 3
ENDMDL
MODEL 2
REMARK VINA RESULT:      -7.1      1.398      2.066
REMARK  Name = 
REMARK  3 active torsions:
REMARK  status: ('A' for Active; 'I' for Inactive)
REMARK    1  A    between atoms: C_7  and  N_8
REMARK    2  A    between atoms: N_8  and  N_9
REMARK    3  A    between atoms: C_10  and  C_12
REMARK                            x       y       z     vdW  Elec       q    Type
REMARK                         _______ _______ _______ _____ _____    ______ ____
ROOT
ATOM      1  N   UNL     1      16.007  11.514  34.920  0.00  0.00    +0.000 NA
ATOM      2  C   UNL     1      15.861  11.483  36.313  0.00  0.00    +0.000 C 
ATOM      3  O   UNL     1      14.696  11.629  36.750  0.00  0.00    +0.000 OA
ENDROOT
BRANCH   2   4
ATOM      4  C   UNL     1      17.002  11.289  37.228  0.00  0.00    +0.000 A 
ATOM      5  C   UNL     1      16.929  10.246  38.123  0.00  0.00    +0.000 A 
ATOM      6  C   UNL     1      17.967   9.999  39.026  0.00  0.00    +0.000 A 
ATOM      7  C   UNL     1      19.092  10.809  39.031  0.00  0.00    +0.000 A 
ATOM      8 BR   UNL     1      20.484  10.431  40.286  0.00  0.00    +0.000 Br
ATOM      9  C   UNL     1      19.141  11.844  38.129  0.00  0.00    +0.000 A 
ATOM     10  C   UNL     1      18.114  12.089  37.234  0.00  0.00    +0.000 A 
ENDBRANCH   2   4
BRANCH   1  11
ATOM     11  N   UNL     1      15.093  11.673  33.999  0.00  0.00    +0.000 NA
BRANCH  11  18
ATOM     12  C   UNL     1      14.641  10.833  31.392  0.00  0.00    +0.000 C 
ATOM     13  C   UNL     1      15.555  12.160  31.661  0.00  0.00    +0.000 C 
ATOM     14  C   UNL     1      14.907  13.041  30.547  0.00  0.00    +0.000 C 
ATOM     15  C   UNL     1      13.544  13.519  30.793  0.00  0.00    +0.000 C 
ATOM     16  C   UNL     1      13.768  14.527  31.956  0.00  0.00    +0.000 C 
ATOM     17  C   UNL     1      14.037  13.609  33.072  0.00  0.00    +0.000 C 
ATOM     18  C   UNL     1      14.800  12.591  32.961  0.00  0.00    +0.000 C 
ENDBRANCH  11  18
ENDBRANCH   1  11
TORSDOF 3
ENDMDL
MODEL 3
REMARK VINA RESULT:      -6.5      3.484      7.846
REMARK  Name = 
REMARK  3 active torsions:
REMARK  status: ('A' for Active; 'I' for Inactive)
REMARK    1  A    between atoms: C_7  and  N_8
REMARK    2  A    between atoms: N_8  and  N_9
REMARK    3  A    between atoms: C_10  and  C_12
REMARK                            x       y       z     vdW  Elec       q    Type
REMARK                         _______ _______ _______ _____ _____    ______ ____
ROOT
ATOM      1  N   UNL     1      17.257  10.679  36.710  0.00  0.00    +0.000 NA
ATOM      2  C   UNL     1      17.132  10.107  35.438  0.00  0.00    +0.000 C 
ATOM      3  O   UNL     1      17.607   8.955  35.300  0.00  0.00    +0.000 OA
ENDROOT
BRANCH   2   4
ATOM      4  C   UNL     1      16.481  10.805  34.313  0.00  0.00    +0.000 A 
ATOM      5  C   UNL     1      15.532  11.753  34.616  0.00  0.00    +0.000 A 
ATOM      6  C   UNL     1      14.866  12.455  33.607  0.00  0.00    +0.000 A 
ATOM      7  C   UNL     1      15.157  12.200  32.275  0.00  0.00    +0.000 A 
ATOM      8 BR   UNL     1      14.219  13.185  30.932  0.00  0.00    +0.000 Br
ATOM      9  C   UNL     1      16.107  11.248  31.998  0.00  0.00    +0.000 A 
ATOM     10  C   UNL     1      16.767  10.554  32.996  0.00  0.00    +0.000 A 
ENDBRANCH   2   4
BRANCH   1  11
ATOM     11  N   UNL     1      17.801  10.180  37.789  0.00  0.00    +0.000 NA
BRANCH  11  18
ATOM     12  C   UNL     1      19.552   9.882  39.922  0.00  0.00    +0.000 C 
ATOM     13  C   UNL     1      18.467   8.703  39.603  0.00  0.00    +0.000 C 
ATOM     14  C   UNL     1      18.028   8.471  41.083  0.00  0.00    +0.000 C 
ATOM     15  C   UNL     1      17.210   9.519  41.700  0.00  0.00    +0.000 C 
ATOM     16  C   UNL     1      15.878   9.386  40.910  0.00  0.00    +0.000 C 
ATOM     17  C   UNL     1      16.268   9.949  39.610  0.00  0.00    +0.000 C 
ATOM     18  C   UNL     1      17.373   9.666  39.038  0.00  0.00    +0.000 C 
ENDBRANCH  11  18
ENDBRANCH   1  11
TORSDOF 3
ENDMDL
MODEL 4
REMARK VINA RESULT:      -6.4      3.719      8.117
REMARK  Name = 
REMARK  3 active torsions:
REMARK  status: ('A' for Active; 'I' for Inactive)
REMARK    1  A    between atoms: C_7  and  N_8
REMARK    2  A    between atoms: N_8  and  N_9
REMARK    3  A    between atoms: C_10  and  C_12
REMARK                            x       y       z     vdW  Elec       q    Type
REMARK                         _______ _______ _______ _____ _____    ______ ____
ROOT
ATOM      1  N   UNL     1      17.203  10.355  37.850  0.00  0.00    +0.000 NA
ATOM      2  C   UNL     1      17.745  10.230  36.564  0.00  0.00    +0.000 C 
ATOM      3  O   UNL     1      18.911   9.776  36.497  0.00  0.00    +0.000 OA
ENDROOT
BRANCH   2   4
ATOM      4  C   UNL     1      17.000  10.606  35.348  0.00  0.00    +0.000 A 
ATOM      5  C   UNL     1      17.466  10.130  34.144  0.00  0.00    +0.000 A 
ATOM      6  C   UNL     1      16.818  10.446  32.945  0.00  0.00    +0.000 A 
ATOM      7  C   UNL     1      15.688  11.249  32.956  0.00  0.00    +0.000 A 
ATOM      8 BR   UNL     1      14.839  11.653  31.292  0.00  0.00    +0.000 Br
ATOM      9  C   UNL     1      15.243  11.712  34.170  0.00  0.00    +0.000 A 
ATOM     10  C   UNL     1      15.883  11.400  35.357  0.00  0.00    +0.000 A 
ENDBRANCH   2   4
BRANCH   1  11
ATOM     11  N   UNL     1      17.743  10.060  39.004  0.00  0.00    +0.000 NA
BRANCH  11  18
ATOM     12  C   UNL     1      15.832   9.355  40.890  0.00  0.00    +0.000 C 
ATOM     13  C   UNL     1      17.417   9.259  41.277  0.00  0.00    +0.000 C 
ATOM     14  C   UNL     1      17.337   7.866  41.977  0.00  0.00    +0.000 C 
ATOM     15  C   UNL     1      17.133   6.702  41.111  0.00  0.00    +0.000 C 
ATOM     16  C   UNL     1      18.486   6.637  40.347  0.00  0.00    +0.000 C 
ATOM     17  C   UNL     1      18.352   7.790  39.445  0.00  0.00    +0.000 C 
ATOM     18  C   UNL     1      17.896   8.919  39.828  0.00  0.00    +0.000 C 
ENDBRANCH  11  18
ENDBRANCH   1  11
TORSDOF 3
ENDMDL
MODEL 5
REMARK VINA RESULT:      -6.2     19.162     20.912
REMARK  Name = 
REMARK  3 active torsions:
REMARK  status: ('A' for Active; 'I' for Inactive)
REMARK    1  A    between atoms: C_7  and  N_8
REMARK    2  A    between atoms: N_8  and  N_9
REMARK    3  A    between atoms: C_10  and  C_12
REMARK                            x       y       z     vdW  Elec       q    Type
REMARK                         _______ _______ _______ _____ _____    ______ ____
ROOT
ATOM      1  N   UNL     1      33.929   2.224  35.770  0.00  0.00    +0.000 NA
ATOM      2  C   UNL     1      33.552   1.616  34.565  0.00  0.00    +0.000 C 
ATOM      3  O   UNL     1      33.408   2.379  33.582  0.00  0.00    +0.000 OA
ENDROOT
BRANCH   2   4
ATOM      4  C   UNL     1      33.333   0.162  34.443  0.00  0.00    +0.000 A 
ATOM      5  C   UNL     1      32.441  -0.422  35.311  0.00  0.00    +0.000 A 
ATOM      6  C   UNL     1      32.182  -1.795  35.263  0.00  0.00    +0.000 A 
ATOM      7  C   UNL     1      32.829  -2.592  34.330  0.00  0.00    +0.000 A 
ATOM      8 BR   UNL     1      32.443  -4.464  34.304  0.00  0.00    +0.000 Br
ATOM      9  C   UNL     1      33.716  -1.985  33.474  0.00  0.00    +0.000 A 
ATOM     10  C   UNL     1      33.972  -0.626  33.521  0.00  0.00    +0.000 A 
ENDBRANCH   2   4
BRANCH   1  11
ATOM     11  N   UNL     1      34.158   3.487  36.020  0.00  0.00    +0.000 NA
BRANCH  11  18
ATOM     12  C   UNL     1      33.778   6.164  35.392  0.00  0.00    +0.000 C 
ATOM     13  C   UNL     1      35.022   5.349  34.715  0.00  0.00    +0.000 C 
ATOM     14  C   UNL     1      36.091   6.467  34.923  0.00  0.00    +0.000 C 
ATOM     15  C   UNL     1      36.549   6.695  36.296  0.00  0.00    +0.000 C 
ATOM     16  C   UNL     1      37.342   5.389  36.584  0.00  0.00    +0.000 C 
ATOM     17  C   UNL     1      36.244   4.422  36.724  0.00  0.00    +0.000 C 
ATOM     18  C   UNL     1      35.244   4.392  35.932  0.00  0.00    +0.000 C 
ENDBRANCH  11  18
ENDBRANCH   1  11
TORSDOF 3
ENDMDL
MODEL 6
REMARK VINA RESULT:      -6.2      4.256      7.497
REMARK  Name = 
REMARK  3 active torsions:
REMARK  status: ('A' for Active; 'I' for Inactive)
REMARK    1  A    between atoms: C_7  and  N_8
REMARK    2  A    between atoms: N_8  and  N_9
REMARK    3  A    between atoms: C_10  and  C_12
REMARK                            x       y       z     vdW  Elec       q    Type
REMARK                         _______ _______ _______ _____ _____    ______ ____
ROOT
ATOM      1  N   UNL     1      19.383  10.292  37.425  0.00  0.00    +0.000 NA
ATOM      2  C   UNL     1      18.389  10.085  36.460  0.00  0.00    +0.000 C 
ATOM      3  O   UNL     1      18.698   9.340  35.500  0.00  0.00    +0.000 OA
ENDROOT
BRANCH   2   4
ATOM      4  C   UNL     1      17.051  10.698  36.552  0.00  0.00    +0.000 A 
ATOM      5  C   UNL     1      16.496  11.192  35.395  0.00  0.00    +0.000 A 
ATOM      6  C   UNL     1      15.234  11.793  35.399  0.00  0.00    +0.000 A 
ATOM      7  C   UNL     1      14.519  11.897  36.583  0.00  0.00    +0.000 A 
ATOM      8 BR   UNL     1      12.797  12.728  36.539  0.00  0.00    +0.000 Br
ATOM      9  C   UNL     1      15.093  11.397  37.726  0.00  0.00    +0.000 A 
ATOM     10  C   UNL     1      16.343  10.802  37.721  0.00  0.00    +0.000 A 
ENDBRANCH   2   4
BRANCH   1  11
ATOM     11  N   UNL     1      20.599   9.815  37.473  0.00  0.00    +0.000 NA
BRANCH  11  18
ATOM     12  C   UNL     1      22.394  10.828  39.332  0.00  0.00    +0.000 C 
ATOM     13  C   UNL     1      22.266  11.542  37.868  0.00  0.00    +0.000 C 
ATOM     14  C   UNL     1      23.799  11.701  37.622  0.00  0.00    +0.000 C 
ATOM     15  C   UNL     1      24.552  10.478  37.333  0.00  0.00    +0.000 C 
ATOM     16  C   UNL     1      24.006  10.096  35.928  0.00  0.00    +0.000 C 
ATOM     17  C   UNL     1      22.659   9.620  36.272  0.00  0.00    +0.000 C 
ATOM     18  C   UNL     1      21.902  10.228  37.101  0.00  0.00    +0.000 C 
ENDBRANCH  11  18
ENDBRANCH   1  11
TORSDOF 3
ENDMDL
MODEL 7
REMARK VINA RESULT:      -6.1     22.157     25.088
REMARK  Name = 
REMARK  3 active torsions:
REMARK  status: ('A' for Active; 'I' for Inactive)
REMARK    1  A    between atoms: C_7  and  N_8
REMARK    2  A    between atoms: N_8  and  N_9
REMARK    3  A    between atoms: C_10  and  C_12
REMARK                            x       y       z     vdW  Elec       q    Type
REMARK                         _______ _______ _______ _____ _____    ______ ____
ROOT
ATOM      1  N   UNL     1      29.756  25.301  20.123  0.00  0.00    +0.000 NA
ATOM      2  C   UNL     1      29.694  26.700  20.078  0.00  0.00    +0.000 C 
ATOM      3  O   UNL     1      29.509  27.281  21.173  0.00  0.00    +0.000 OA
ENDROOT
BRANCH   2   4
ATOM      4  C   UNL     1      29.838  27.462  18.823  0.00  0.00    +0.000 A 
ATOM      5  C   UNL     1      28.805  28.296  18.463  0.00  0.00    +0.000 A 
ATOM      6  C   UNL     1      28.863  29.048  17.286  0.00  0.00    +0.000 A 
ATOM      7  C   UNL     1      29.973  28.961  16.459  0.00  0.00    +0.000 A 
ATOM      8 BR   UNL     1      30.005  30.008  14.860  0.00  0.00    +0.000 Br
ATOM      9  C   UNL     1      30.991  28.120  16.839  0.00  0.00    +0.000 A 
ATOM     10  C   UNL     1      30.934  27.376  18.005  0.00  0.00    +0.000 A 
ENDBRANCH   2   4
BRANCH   1  11
ATOM     11  N   UNL     1      29.649  24.504  21.154  0.00  0.00    +0.000 NA
BRANCH  11  18
ATOM     12  C   UNL     1      29.872  24.891  23.894  0.00  0.00    +0.000 C 
ATOM     13  C   UNL     1      29.303  23.468  23.327  0.00  0.00    +0.000 C 
ATOM     14  C   UNL     1      28.119  23.344  24.337  0.00  0.00    +0.000 C 
ATOM     15  C   UNL     1      26.989  24.256  24.145  0.00  0.00    +0.000 C 
ATOM     16  C   UNL     1      26.378  23.725  22.817  0.00  0.00    +0.000 C 
ATOM     17  C   UNL     1      27.382  24.183  21.846  0.00  0.00    +0.000 C 
ATOM     18  C   UNL     1      28.638  24.079  22.051  0.00  0.00    +0.000 C 
ENDBRANCH  11  18
ENDBRANCH   1  11
TORSDOF 3
ENDMDL
MODEL 8
REMARK VINA RESULT:      -5.9     18.901     20.878
REMARK  Name = 
REMARK  3 active torsions:
REMARK  status: ('A' for Active; 'I' for Inactive)
REMARK    1  A    between atoms: C_7  and  N_8
REMARK    2  A    between atoms: N_8  and  N_9
REMARK    3  A    between atoms: C_10  and  C_12
REMARK                            x       y       z     vdW  Elec       q    Type
REMARK                         _______ _______ _______ _____ _____    ______ ____
ROOT
ATOM      1  N   UNL     1      34.051   2.946  35.027  0.00  0.00    +0.000 NA
ATOM      2  C   UNL     1      33.834   4.221  34.487  0.00  0.00    +0.000 C 
ATOM      3  O   UNL     1      33.016   4.289  33.541  0.00  0.00    +0.000 OA
ENDROOT
BRANCH   2   4
ATOM      4  C   UNL     1      34.520   5.426  34.993  0.00  0.00    +0.000 A 
ATOM      5  C   UNL     1      33.736   6.452  35.465  0.00  0.00    +0.000 A 
ATOM      6  C   UNL     1      34.309   7.629  35.957  0.00  0.00    +0.000 A 
ATOM      7  C   UNL     1      35.688   7.776  35.973  0.00  0.00    +0.000 A 
ATOM      8 BR   UNL     1      36.424   9.404  36.654  0.00  0.00    +0.000 Br
ATOM      9  C   UNL     1      36.449   6.738  35.495  0.00  0.00    +0.000 A 
ATOM     10  C   UNL     1      35.882   5.572  35.009  0.00  0.00    +0.000 A 
ENDBRANCH   2   4
BRANCH   1  11
ATOM     11  N   UNL     1      33.516   1.804  34.684  0.00  0.00    +0.000 NA
BRANCH  11  18
ATOM     12  C   UNL     1      34.349  -0.137  32.883  0.00  0.00    +0.000 C 
ATOM     13  C   UNL     1      33.101  -0.457  33.889  0.00  0.00    +0.000 C 
ATOM     14  C   UNL     1      33.567  -1.892  34.287  0.00  0.00    +0.000 C 
ATOM     15  C   UNL     1      34.737  -1.986  35.166  0.00  0.00    +0.000 C 
ATOM     16  C   UNL     1      34.177  -1.413  36.498  0.00  0.00    +0.000 C 
ATOM     17  C   UNL     1      34.084   0.017  36.169  0.00  0.00    +0.000 C 
ATOM     18  C   UNL     1      33.626   0.442  35.056  0.00  0.00    +0.000 C 
ENDBRANCH  11  18
ENDBRANCH   1  11
TORSDOF 3
ENDMDL
MODEL 9
REMARK VINA RESULT:      -5.8     19.102     21.670
REMARK  Name = 
REMARK  3 active torsions:
REMARK  status: ('A' for Active; 'I' for Inactive)
REMARK    1  A    between atoms: C_7  and  N_8
REMARK    2  A    between atoms: N_8  and  N_9
REMARK    3  A    between atoms: C_10  and  C_12
REMARK                            x       y       z     vdW  Elec       q    Type
REMARK                         _______ _______ _______ _____ _____    ______ ____
ROOT
ATOM      1  N   UNL     1      32.980   0.192  34.369  0.00  0.00    +0.000 NA
ATOM      2  C   UNL     1      33.540   1.216  33.593  0.00  0.00    +0.000 C 
ATOM      3  O   UNL     1      33.944   0.888  32.454  0.00  0.00    +0.000 OA
ENDROOT
BRANCH   2   4
ATOM      4  C   UNL     1      33.655   2.606  34.074  0.00  0.00    +0.000 A 
ATOM      5  C   UNL     1      34.164   2.802  35.337  0.00  0.00    +0.000 A 
ATOM      6  C   UNL     1      34.300   4.089  35.868  0.00  0.00    +0.000 A 
ATOM      7  C   UNL     1      33.919   5.192  35.120  0.00  0.00    +0.000 A 
ATOM      8 BR   UNL     1      34.123   6.931  35.889  0.00  0.00    +0.000 Br
ATOM      9  C   UNL     1      33.412   4.971  33.862  0.00  0.00    +0.000 A 
ATOM     10  C   UNL     1      33.278   3.697  33.336  0.00  0.00    +0.000 A 
ENDBRANCH   2   4
BRANCH   1  11
ATOM     11  N   UNL     1      32.814  -1.070  34.073  0.00  0.00    +0.000 NA
BRANCH  11  18
ATOM     12  C   UNL     1      33.410  -2.298  36.490  0.00  0.00    +0.000 C 
ATOM     13  C   UNL     1      34.562  -2.194  35.336  0.00  0.00    +0.000 C 
ATOM     14  C   UNL     1      35.080  -3.659  35.480  0.00  0.00    +0.000 C 
ATOM     15  C   UNL     1      34.202  -4.721  34.981  0.00  0.00    +0.000 C 
ATOM     16  C   UNL     1      34.254  -4.477  33.446  0.00  0.00    +0.000 C 
ATOM     17  C   UNL     1      33.445  -3.255  33.332  0.00  0.00    +0.000 C 
ATOM     18  C   UNL     1      33.566  -2.269  34.133  0.00  0.00    +0.000 C 
ENDBRANCH  11  18
ENDBRANCH   1  11
TORSDOF 3
ENDMDL
MODEL 10
REMARK VINA RESULT:      -5.8      3.537      5.047
REMARK  Name = 
REMARK  3 active torsions:
REMARK  status: ('A' for Active; 'I' for Inactive)
REMARK    1  A    between atoms: C_7  and  N_8
REMARK    2  A    between atoms: N_8  and  N_9
REMARK    3  A    between atoms: C_10  and  C_12
REMARK                            x       y       z     vdW  Elec       q    Type
REMARK                         _______ _______ _______ _____ _____    ______ ____
ROOT
ATOM      1  N   UNL     1      17.350   9.623  38.362  0.00  0.00    +0.000 NA
ATOM      2  C   UNL     1      17.907   9.693  39.646  0.00  0.00    +0.000 C 
ATOM      3  O   UNL     1      18.911  10.431  39.774  0.00  0.00    +0.000 OA
ENDROOT
BRANCH   2   4
ATOM      4  C   UNL     1      17.354   8.948  40.794  0.00  0.00    +0.000 A 
ATOM      5  C   UNL     1      16.791   9.679  41.814  0.00  0.00    +0.000 A 
ATOM      6  C   UNL     1      16.249   9.048  42.939  0.00  0.00    +0.000 A 
ATOM      7  C   UNL     1      16.274   7.665  43.039  0.00  0.00    +0.000 A 
ATOM      8 BR   UNL     1      15.523   6.849  44.596  0.00  0.00    +0.000 Br
ATOM      9  C   UNL     1      16.843   6.958  42.008  0.00  0.00    +0.000 A 
ATOM     10  C   UNL     1      17.378   7.582  40.894  0.00  0.00    +0.000 A 
ENDBRANCH   2   4
BRANCH   1  11
ATOM     11  N   UNL     1      17.730  10.225  37.266  0.00  0.00    +0.000 NA
BRANCH  11  18
ATOM     12  C   UNL     1      16.667  12.669  36.489  0.00  0.00    +0.000 C 
ATOM     13  C   UNL     1      15.918  11.288  36.040  0.00  0.00    +0.000 C 
ATOM     14  C   UNL     1      15.658  11.710  34.560  0.00  0.00    +0.000 C 
ATOM     15  C   UNL     1      16.823  11.761  33.673  0.00  0.00    +0.000 C 
ATOM     16  C   UNL     1      17.194  10.256  33.553  0.00  0.00    +0.000 C 
ATOM     17  C   UNL     1      17.762  10.001  34.885  0.00  0.00    +0.000 C 
ATOM     18  C   UNL     1      17.227  10.437  35.959  0.00  0.00    +0.000 C 
ENDBRANCH  11  18
ENDBRANCH   1  11
TORSDOF 3
ENDMDL
