MODEL 1
REMARK VINA RESULT:      -7.6      0.000      0.000
REMARK  Name = 
REMARK  6 active torsions:
REMARK  status: ('A' for Active; 'I' for Inactive)
REMARK    1  A    between atoms: C_10  and  C_11
REMARK    2  A    between atoms: C_17  and  C_18
REMARK    3  A    between atoms: C_21  and  S_22
REMARK    4  A    between atoms: S_22  and  C_23
REMARK    5  A    between atoms: C_23  and  C_24
REMARK    6  A    between atoms: C_24  and  N_25
REMARK                            x       y       z     vdW  Elec       q    Type
REMARK                         _______ _______ _______ _____ _____    ______ ____
ROOT
ATOM      1  O   UNL     1      34.853  -4.459  15.853  0.00  0.00    +0.000 OA
ATOM      2  C   UNL     1      35.675  -3.547  15.209  0.00  0.00    +0.000 A 
ATOM      3  C   UNL     1      35.331  -2.210  15.291  0.00  0.00    +0.000 A 
ATOM      4  C   UNL     1      36.113  -1.254  14.667  0.00  0.00    +0.000 A 
ATOM      5  C   UNL     1      37.193  -1.679  13.998  0.00  0.00    +0.000 A 
ATOM      6  C   UNL     1      37.607  -2.992  13.867  0.00  0.00    +0.000 A 
ATOM      7  C   UNL     1      36.808  -3.919  14.498  0.00  0.00    +0.000 A 
ATOM      8  O   UNL     1      38.742  -3.224  13.139  0.00  0.00    +0.000 OA
ATOM      9  C   UNL     1      39.848  -2.416  12.976  0.00  0.00    +0.000 C 
ATOM     10  C   UNL     1      39.658  -1.086  13.929  0.00  0.00    +0.000 C 
ATOM     11  C   UNL     1      38.180  -0.763  13.210  0.00  0.00    +0.000 C 
ENDROOT
BRANCH  10  12
ATOM     12  C   UNL     1      39.364  -1.809  15.244  0.00  0.00    +0.000 A 
ATOM     13  C   UNL     1      38.609  -1.335  16.269  0.00  0.00    +0.000 A 
ATOM     14  C   UNL     1      38.364  -2.030  17.423  0.00  0.00    +0.000 A 
ATOM     15  C   UNL     1      38.925  -3.276  17.524  0.00  0.00    +0.000 A 
ATOM     16  C   UNL     1      39.694  -3.829  16.545  0.00  0.00    +0.000 A 
ATOM     17  C   UNL     1      39.890  -3.052  15.410  0.00  0.00    +0.000 A 
ENDBRANCH  10  12
BRANCH  11  18
ATOM     18  C   UNL     1      37.830   0.610  13.870  0.00  0.00    +0.000 A 
ATOM     19  C   UNL     1      36.655   1.096  14.155  0.00  0.00    +0.000 A 
ATOM     20  C   UNL     1      36.556   2.341  14.743  0.00  0.00    +0.000 A 
ATOM     21  C   UNL     1      37.664   3.102  15.047  0.00  0.00    +0.000 A 
ATOM     22  C   UNL     1      38.897   2.564  14.735  0.00  0.00    +0.000 A 
ATOM     23  C   UNL     1      38.994   1.321  14.147  0.00  0.00    +0.000 A 
BRANCH  21  24
ATOM     24  S   UNL     1      37.563   4.715  15.811  0.00  0.00    +0.000 S 
BRANCH  24  25
ATOM     25  C   UNL     1      38.866   4.976  17.011  0.00  0.00    +0.000 C 
BRANCH  25  26
ATOM     26  C   UNL     1      39.740   6.159  16.686  0.00  0.00    +0.000 C 
BRANCH  26  27
ATOM     27  N   UNL     1      40.098   6.872  17.882  0.00  0.00    +0.000 NA
ATOM     28  C   UNL     1      39.154   6.616  18.946  0.00  0.00    +0.000 C 
ATOM     29  C   UNL     1      39.935   6.874  20.207  0.00  0.00    +0.000 C 
ATOM     30  C   UNL     1      41.319   6.431  19.848  0.00  0.00    +0.000 C 
ATOM     31  C   UNL     1      41.385   6.400  18.350  0.00  0.00    +0.000 C 
ENDBRANCH  26  27
ENDBRANCH  25  26
ENDBRANCH  24  25
ENDBRANCH  21  24
ENDBRANCH  11  18
TORSDOF 6
ENDMDL
MODEL 2
REMARK VINA RESULT:      -7.5      4.558      9.702
REMARK  Name = 
REMARK  6 active torsions:
REMARK  status: ('A' for Active; 'I' for Inactive)
REMARK    1  A    between atoms: C_10  and  C_11
REMARK    2  A    between atoms: C_17  and  C_18
REMARK    3  A    between atoms: C_21  and  S_22
REMARK    4  A    between atoms: S_22  and  C_23
REMARK    5  A    between atoms: C_23  and  C_24
REMARK    6  A    between atoms: C_24  and  N_25
REMARK                            x       y       z     vdW  Elec       q    Type
REMARK                         _______ _______ _______ _____ _____    ______ ____
ROOT
ATOM      1  O   UNL     1      42.301  10.822  16.183  0.00  0.00    +0.000 OA
ATOM      2  C   UNL     1      41.376   9.932  16.707  0.00  0.00    +0.000 A 
ATOM      3  C   UNL     1      40.614   9.204  15.813  0.00  0.00    +0.000 A 
ATOM      4  C   UNL     1      39.674   8.301  16.277  0.00  0.00    +0.000 A 
ATOM      5  C   UNL     1      39.544   8.172  17.604  0.00  0.00    +0.000 A 
ATOM      6  C   UNL     1      40.263   8.860  18.565  0.00  0.00    +0.000 A 
ATOM      7  C   UNL     1      41.189   9.750  18.070  0.00  0.00    +0.000 A 
ATOM      8  O   UNL     1      39.982   8.587  19.876  0.00  0.00    +0.000 OA
ATOM      9  C   UNL     1      39.544   7.408  20.443  0.00  0.00    +0.000 C 
ATOM     10  C   UNL     1      39.506   6.255  19.265  0.00  0.00    +0.000 C 
ATOM     11  C   UNL     1      38.526   7.231  18.320  0.00  0.00    +0.000 C 
ENDROOT
BRANCH  10  12
ATOM     12  C   UNL     1      40.936   6.432  18.751  0.00  0.00    +0.000 A 
ATOM     13  C   UNL     1      41.356   6.256  17.472  0.00  0.00    +0.000 A 
ATOM     14  C   UNL     1      42.648   6.441  17.060  0.00  0.00    +0.000 A 
ATOM     15  C   UNL     1      43.553   6.826  18.015  0.00  0.00    +0.000 A 
ATOM     16  C   UNL     1      43.217   7.025  19.320  0.00  0.00    +0.000 A 
ATOM     17  C   UNL     1      41.884   6.814  19.649  0.00  0.00    +0.000 A 
ENDBRANCH  10  12
BRANCH  11  18
ATOM     18  C   UNL     1      38.205   6.261  17.137  0.00  0.00    +0.000 A 
ATOM     19  C   UNL     1      37.923   6.558  15.900  0.00  0.00    +0.000 A 
ATOM     20  C   UNL     1      37.668   5.545  14.997  0.00  0.00    +0.000 A 
ATOM     21  C   UNL     1      37.700   4.214  15.355  0.00  0.00    +0.000 A 
ATOM     22  C   UNL     1      38.000   3.927  16.672  0.00  0.00    +0.000 A 
ATOM     23  C   UNL     1      38.255   4.939  17.572  0.00  0.00    +0.000 A 
BRANCH  21  24
ATOM     24  S   UNL     1      37.375   2.885  14.205  0.00  0.00    +0.000 S 
BRANCH  24  25
ATOM     25  C   UNL     1      36.015   1.850  14.736  0.00  0.00    +0.000 C 
BRANCH  25  26
ATOM     26  C   UNL     1      36.450   0.467  15.148  0.00  0.00    +0.000 C 
BRANCH  26  27
ATOM     27  N   UNL     1      36.824   0.443  16.536  0.00  0.00    +0.000 NA
ATOM     28  C   UNL     1      35.769   0.971  17.371  0.00  0.00    +0.000 C 
ATOM     29  C   UNL     1      36.007   0.339  18.716  0.00  0.00    +0.000 C 
ATOM     30  C   UNL     1      36.546  -1.013  18.368  0.00  0.00    +0.000 C 
ATOM     31  C   UNL     1      37.029  -0.930  16.949  0.00  0.00    +0.000 C 
ENDBRANCH  26  27
ENDBRANCH  25  26
ENDBRANCH  24  25
ENDBRANCH  21  24
ENDBRANCH  11  18
TORSDOF 6
ENDMDL
MODEL 3
REMARK VINA RESULT:      -7.3      7.623     10.839
REMARK  Name = 
REMARK  6 active torsions:
REMARK  status: ('A' for Active; 'I' for Inactive)
REMARK    1  A    between atoms: C_10  and  C_11
REMARK    2  A    between atoms: C_17  and  C_18
REMARK    3  A    between atoms: C_21  and  S_22
REMARK    4  A    between atoms: S_22  and  C_23
REMARK    5  A    between atoms: C_23  and  C_24
REMARK    6  A    between atoms: C_24  and  N_25
REMARK                            x       y       z     vdW  Elec       q    Type
REMARK                         _______ _______ _______ _____ _____    ______ ____
ROOT
ATOM      1  O   UNL     1      39.888  11.932  17.410  0.00  0.00    +0.000 OA
ATOM      2  C   UNL     1      40.240  10.598  17.554  0.00  0.00    +0.000 A 
ATOM      3  C   UNL     1      41.381  10.314  18.280  0.00  0.00    +0.000 A 
ATOM      4  C   UNL     1      41.782   9.002  18.456  0.00  0.00    +0.000 A 
ATOM      5  C   UNL     1      41.026   8.045  17.902  0.00  0.00    +0.000 A 
ATOM      6  C   UNL     1      39.874   8.242  17.164  0.00  0.00    +0.000 A 
ATOM      7  C   UNL     1      39.502   9.558  17.006  0.00  0.00    +0.000 A 
ATOM      8  O   UNL     1      39.240   7.130  16.679  0.00  0.00    +0.000 OA
ATOM      9  C   UNL     1      39.184   5.860  17.215  0.00  0.00    +0.000 C 
ATOM     10  C   UNL     1      39.944   5.885  18.676  0.00  0.00    +0.000 C 
ATOM     11  C   UNL     1      41.324   6.515  17.966  0.00  0.00    +0.000 C 
ENDROOT
BRANCH  10  12
ATOM     12  C   UNL     1      39.184   7.063  19.289  0.00  0.00    +0.000 A 
ATOM     13  C   UNL     1      39.626   7.872  20.285  0.00  0.00    +0.000 A 
ATOM     14  C   UNL     1      38.910   8.924  20.790  0.00  0.00    +0.000 A 
ATOM     15  C   UNL     1      37.676   9.153  20.239  0.00  0.00    +0.000 A 
ATOM     16  C   UNL     1      37.155   8.391  19.237  0.00  0.00    +0.000 A 
ATOM     17  C   UNL     1      37.952   7.345  18.787  0.00  0.00    +0.000 A 
ENDBRANCH  10  12
BRANCH  11  18
ATOM     18  C   UNL     1      42.309   6.501  19.179  0.00  0.00    +0.000 A 
ATOM     19  C   UNL     1      42.059   6.199  20.422  0.00  0.00    +0.000 A 
ATOM     20  C   UNL     1      43.077   6.246  21.353  0.00  0.00    +0.000 A 
ATOM     21  C   UNL     1      44.365   6.605  21.019  0.00  0.00    +0.000 A 
ATOM     22  C   UNL     1      44.604   6.920  19.696  0.00  0.00    +0.000 A 
ATOM     23  C   UNL     1      43.586   6.872  18.767  0.00  0.00    +0.000 A 
BRANCH  21  24
ATOM     24  S   UNL     1      45.701   6.672  22.206  0.00  0.00    +0.000 S 
BRANCH  24  25
ATOM     25  C   UNL     1      45.116   7.026  23.860  0.00  0.00    +0.000 C 
BRANCH  25  26
ATOM     26  C   UNL     1      45.046   5.803  24.736  0.00  0.00    +0.000 C 
BRANCH  26  27
ATOM     27  N   UNL     1      43.798   5.759  25.451  0.00  0.00    +0.000 NA
ATOM     28  C   UNL     1      43.718   4.586  26.292  0.00  0.00    +0.000 C 
ATOM     29  C   UNL     1      42.743   4.968  27.372  0.00  0.00    +0.000 C 
ATOM     30  C   UNL     1      43.001   6.430  27.564  0.00  0.00    +0.000 C 
ATOM     31  C   UNL     1      43.714   6.905  26.332  0.00  0.00    +0.000 C 
ENDBRANCH  26  27
ENDBRANCH  25  26
ENDBRANCH  24  25
ENDBRANCH  21  24
ENDBRANCH  11  18
TORSDOF 6
ENDMDL
MODEL 4
REMARK VINA RESULT:      -7.3      4.810     10.472
REMARK  Name = 
REMARK  6 active torsions:
REMARK  status: ('A' for Active; 'I' for Inactive)
REMARK    1  A    between atoms: C_10  and  C_11
REMARK    2  A    between atoms: C_17  and  C_18
REMARK    3  A    between atoms: C_21  and  S_22
REMARK    4  A    between atoms: S_22  and  C_23
REMARK    5  A    between atoms: C_23  and  C_24
REMARK    6  A    between atoms: C_24  and  N_25
REMARK                            x       y       z     vdW  Elec       q    Type
REMARK                         _______ _______ _______ _____ _____    ______ ____
ROOT
ATOM      1  O   UNL     1      38.586  10.899  21.461  0.00  0.00    +0.000 OA
ATOM      2  C   UNL     1      39.238   9.841  20.844  0.00  0.00    +0.000 A 
ATOM      3  C   UNL     1      38.473   8.754  20.465  0.00  0.00    +0.000 A 
ATOM      4  C   UNL     1      39.068   7.669  19.845  0.00  0.00    +0.000 A 
ATOM      5  C   UNL     1      40.390   7.726  19.638  0.00  0.00    +0.000 A 
ATOM      6  C   UNL     1      41.227   8.771  19.984  0.00  0.00    +0.000 A 
ATOM      7  C   UNL     1      40.604   9.834  20.599  0.00  0.00    +0.000 A 
ATOM      8  O   UNL     1      42.556   8.638  19.687  0.00  0.00    +0.000 OA
ATOM      9  C   UNL     1      43.148   7.954  18.645  0.00  0.00    +0.000 C 
ATOM     10  C   UNL     1      41.954   7.365  17.673  0.00  0.00    +0.000 C 
ATOM     11  C   UNL     1      41.245   6.597  18.982  0.00  0.00    +0.000 C 
ENDROOT
BRANCH  10  12
ATOM     12  C   UNL     1      41.191   8.674  17.460  0.00  0.00    +0.000 A 
ATOM     13  C   UNL     1      39.859   8.798  17.230  0.00  0.00    +0.000 A 
ATOM     14  C   UNL     1      39.220   9.997  17.060  0.00  0.00    +0.000 A 
ATOM     15  C   UNL     1      39.995  11.125  17.130  0.00  0.00    +0.000 A 
ATOM     16  C   UNL     1      41.338  11.093  17.357  0.00  0.00    +0.000 A 
ATOM     17  C   UNL     1      41.901   9.832  17.518  0.00  0.00    +0.000 A 
ENDBRANCH  10  12
BRANCH  11  18
ATOM     18  C   UNL     1      40.106   5.800  18.269  0.00  0.00    +0.000 A 
ATOM     19  C   UNL     1      39.061   5.230  18.799  0.00  0.00    +0.000 A 
ATOM     20  C   UNL     1      38.160   4.568  17.989  0.00  0.00    +0.000 A 
ATOM     21  C   UNL     1      38.322   4.483  16.624  0.00  0.00    +0.000 A 
ATOM     22  C   UNL     1      39.437   5.095  16.086  0.00  0.00    +0.000 A 
ATOM     23  C   UNL     1      40.336   5.756  16.896  0.00  0.00    +0.000 A 
BRANCH  21  24
ATOM     24  S   UNL     1      37.169   3.633  15.553  0.00  0.00    +0.000 S 
BRANCH  24  25
ATOM     25  C   UNL     1      35.966   2.683  16.477  0.00  0.00    +0.000 C 
BRANCH  25  26
ATOM     26  C   UNL     1      36.018   1.209  16.171  0.00  0.00    +0.000 C 
BRANCH  26  27
ATOM     27  N   UNL     1      36.714   0.497  17.209  0.00  0.00    +0.000 NA
ATOM     28  C   UNL     1      35.956   0.492  18.439  0.00  0.00    +0.000 C 
ATOM     29  C   UNL     1      36.447  -0.726  19.175  0.00  0.00    +0.000 C 
ATOM     30  C   UNL     1      36.741  -1.695  18.072  0.00  0.00    +0.000 C 
ATOM     31  C   UNL     1      36.869  -0.888  16.814  0.00  0.00    +0.000 C 
ENDBRANCH  26  27
ENDBRANCH  25  26
ENDBRANCH  24  25
ENDBRANCH  21  24
ENDBRANCH  11  18
TORSDOF 6
ENDMDL
MODEL 5
REMARK VINA RESULT:      -7.3      4.251      9.810
REMARK  Name = 
REMARK  6 active torsions:
REMARK  status: ('A' for Active; 'I' for Inactive)
REMARK    1  A    between atoms: C_10  and  C_11
REMARK    2  A    between atoms: C_17  and  C_18
REMARK    3  A    between atoms: C_21  and  S_22
REMARK    4  A    between atoms: S_22  and  C_23
REMARK    5  A    between atoms: C_23  and  C_24
REMARK    6  A    between atoms: C_24  and  N_25
REMARK                            x       y       z     vdW  Elec       q    Type
REMARK                         _______ _______ _______ _____ _____    ______ ____
ROOT
ATOM      1  O   UNL     1      42.190  10.871  16.238  0.00  0.00    +0.000 OA
ATOM      2  C   UNL     1      41.280   9.937  16.709  0.00  0.00    +0.000 A 
ATOM      3  C   UNL     1      40.589   9.191  15.773  0.00  0.00    +0.000 A 
ATOM      4  C   UNL     1      39.668   8.243  16.183  0.00  0.00    +0.000 A 
ATOM      5  C   UNL     1      39.485   8.091  17.502  0.00  0.00    +0.000 A 
ATOM      6  C   UNL     1      40.131   8.793  18.502  0.00  0.00    +0.000 A 
ATOM      7  C   UNL     1      41.041   9.728  18.061  0.00  0.00    +0.000 A 
ATOM      8  O   UNL     1      39.805   8.490  19.796  0.00  0.00    +0.000 OA
ATOM      9  C   UNL     1      39.391   7.286  20.327  0.00  0.00    +0.000 C 
ATOM     10  C   UNL     1      39.452   6.150  19.135  0.00  0.00    +0.000 C 
ATOM     11  C   UNL     1      38.476   7.099  18.159  0.00  0.00    +0.000 C 
ENDROOT
BRANCH  10  12
ATOM     12  C   UNL     1      40.895   6.392  18.688  0.00  0.00    +0.000 A 
ATOM     13  C   UNL     1      41.375   6.267  17.424  0.00  0.00    +0.000 A 
ATOM     14  C   UNL     1      42.676   6.509  17.072  0.00  0.00    +0.000 A 
ATOM     15  C   UNL     1      43.524   6.900  18.075  0.00  0.00    +0.000 A 
ATOM     16  C   UNL     1      43.127   7.052  19.369  0.00  0.00    +0.000 A 
ATOM     17  C   UNL     1      41.790   6.784  19.635  0.00  0.00    +0.000 A 
ENDBRANCH  10  12
BRANCH  11  18
ATOM     18  C   UNL     1      38.248   6.134  16.951  0.00  0.00    +0.000 A 
ATOM     19  C   UNL     1      38.029   6.436  15.703  0.00  0.00    +0.000 A 
ATOM     20  C   UNL     1      37.852   5.427  14.778  0.00  0.00    +0.000 A 
ATOM     21  C   UNL     1      37.897   4.094  15.124  0.00  0.00    +0.000 A 
ATOM     22  C   UNL     1      38.130   3.800  16.453  0.00  0.00    +0.000 A 
ATOM     23  C   UNL     1      38.306   4.809  17.376  0.00  0.00    +0.000 A 
BRANCH  21  24
ATOM     24  S   UNL     1      37.673   2.769  13.945  0.00  0.00    +0.000 S 
BRANCH  24  25
ATOM     25  C   UNL     1      38.636   1.320  14.367  0.00  0.00    +0.000 C 
BRANCH  25  26
ATOM     26  C   UNL     1      37.832   0.262  15.077  0.00  0.00    +0.000 C 
BRANCH  26  27
ATOM     27  N   UNL     1      38.689  -0.603  15.841  0.00  0.00    +0.000 NA
ATOM     28  C   UNL     1      38.001  -1.814  16.227  0.00  0.00    +0.000 C 
ATOM     29  C   UNL     1      39.101  -2.820  16.432  0.00  0.00    +0.000 C 
ATOM     30  C   UNL     1      40.120  -2.425  15.409  0.00  0.00    +0.000 C 
ATOM     31  C   UNL     1      39.809  -1.010  15.017  0.00  0.00    +0.000 C 
ENDBRANCH  26  27
ENDBRANCH  25  26
ENDBRANCH  24  25
ENDBRANCH  21  24
ENDBRANCH  11  18
TORSDOF 6
ENDMDL
MODEL 6
REMARK VINA RESULT:      -7.2      8.558     11.858
REMARK  Name = 
REMARK  6 active torsions:
REMARK  status: ('A' for Active; 'I' for Inactive)
REMARK    1  A    between atoms: C_10  and  C_11
REMARK    2  A    between atoms: C_17  and  C_18
REMARK    3  A    between atoms: C_21  and  S_22
REMARK    4  A    between atoms: S_22  and  C_23
REMARK    5  A    between atoms: C_23  and  C_24
REMARK    6  A    between atoms: C_24  and  N_25
REMARK                            x       y       z     vdW  Elec       q    Type
REMARK                         _______ _______ _______ _____ _____    ______ ____
ROOT
ATOM      1  O   UNL     1      39.113  10.831  19.147  0.00  0.00    +0.000 OA
ATOM      2  C   UNL     1      40.334  10.193  19.309  0.00  0.00    +0.000 A 
ATOM      3  C   UNL     1      40.805  10.036  20.599  0.00  0.00    +0.000 A 
ATOM      4  C   UNL     1      42.017   9.407  20.823  0.00  0.00    +0.000 A 
ATOM      5  C   UNL     1      42.693   8.970  19.752  0.00  0.00    +0.000 A 
ATOM      6  C   UNL     1      42.295   9.086  18.433  0.00  0.00    +0.000 A 
ATOM      7  C   UNL     1      41.085   9.716  18.244  0.00  0.00    +0.000 A 
ATOM      8  O   UNL     1      43.129   8.573  17.476  0.00  0.00    +0.000 OA
ATOM      9  C   UNL     1      43.991   7.499  17.562  0.00  0.00    +0.000 C 
ATOM     10  C   UNL     1      43.792   6.797  19.039  0.00  0.00    +0.000 C 
ATOM     11  C   UNL     1      44.084   8.264  19.794  0.00  0.00    +0.000 C 
ENDROOT
BRANCH  10  12
ATOM     12  C   UNL     1      42.273   6.620  18.985  0.00  0.00    +0.000 A 
ATOM     13  C   UNL     1      41.425   6.638  20.045  0.00  0.00    +0.000 A 
ATOM     14  C   UNL     1      40.068   6.489  19.941  0.00  0.00    +0.000 A 
ATOM     15  C   UNL     1      39.561   6.313  18.680  0.00  0.00    +0.000 A 
ATOM     16  C   UNL     1      40.338   6.283  17.562  0.00  0.00    +0.000 A 
ATOM     17  C   UNL     1      41.704   6.442  17.763  0.00  0.00    +0.000 A 
ENDBRANCH  10  12
BRANCH  11  18
ATOM     18  C   UNL     1      44.096   7.822  21.293  0.00  0.00    +0.000 A 
ATOM     19  C   UNL     1      43.868   6.640  21.792  0.00  0.00    +0.000 A 
ATOM     20  C   UNL     1      43.929   6.452  23.158  0.00  0.00    +0.000 A 
ATOM     21  C   UNL     1      44.226   7.478  24.029  0.00  0.00    +0.000 A 
ATOM     22  C   UNL     1      44.464   8.720  23.476  0.00  0.00    +0.000 A 
ATOM     23  C   UNL     1      44.402   8.906  22.112  0.00  0.00    +0.000 A 
BRANCH  21  24
ATOM     24  S   UNL     1      44.313   7.260  25.802  0.00  0.00    +0.000 S 
BRANCH  24  25
ATOM     25  C   UNL     1      43.441   5.794  26.345  0.00  0.00    +0.000 C 
BRANCH  25  26
ATOM     26  C   UNL     1      43.021   5.858  27.791  0.00  0.00    +0.000 C 
BRANCH  26  27
ATOM     27  N   UNL     1      41.595   5.719  27.914  0.00  0.00    +0.000 NA
ATOM     28  C   UNL     1      41.251   4.668  28.845  0.00  0.00    +0.000 C 
ATOM     29  C   UNL     1      39.874   5.035  29.329  0.00  0.00    +0.000 C 
ATOM     30  C   UNL     1      39.903   6.532  29.337  0.00  0.00    +0.000 C 
ATOM     31  C   UNL     1      41.042   6.944  28.452  0.00  0.00    +0.000 C 
ENDBRANCH  26  27
ENDBRANCH  25  26
ENDBRANCH  24  25
ENDBRANCH  21  24
ENDBRANCH  11  18
TORSDOF 6
ENDMDL
MODEL 7
REMARK VINA RESULT:      -7.2      4.180      6.469
REMARK  Name = 
REMARK  6 active torsions:
REMARK  status: ('A' for Active; 'I' for Inactive)
REMARK    1  A    between atoms: C_10  and  C_11
REMARK    2  A    between atoms: C_17  and  C_18
REMARK    3  A    between atoms: C_21  and  S_22
REMARK    4  A    between atoms: S_22  and  C_23
REMARK    5  A    between atoms: C_23  and  C_24
REMARK    6  A    between atoms: C_24  and  N_25
REMARK                            x       y       z     vdW  Elec       q    Type
REMARK                         _______ _______ _______ _____ _____    ______ ____
ROOT
ATOM      1  O   UNL     1      44.650   0.814  13.686  0.00  0.00    +0.000 OA
ATOM      2  C   UNL     1      43.583  -0.046  13.477  0.00  0.00    +0.000 A 
ATOM      3  C   UNL     1      42.924  -0.529  14.593  0.00  0.00    +0.000 A 
ATOM      4  C   UNL     1      41.853  -1.391  14.446  0.00  0.00    +0.000 A 
ATOM      5  C   UNL     1      41.495  -1.726  13.199  0.00  0.00    +0.000 A 
ATOM      6  C   UNL     1      42.097  -1.290  12.033  0.00  0.00    +0.000 A 
ATOM      7  C   UNL     1      43.160  -0.434  12.213  0.00  0.00    +0.000 A 
ATOM      8  O   UNL     1      41.583  -1.748  10.850  0.00  0.00    +0.000 OA
ATOM      9  C   UNL     1      40.283  -2.098  10.547  0.00  0.00    +0.000 C 
ATOM     10  C   UNL     1      39.342  -1.766  11.858  0.00  0.00    +0.000 C 
ATOM     11  C   UNL     1      40.335  -2.702  12.829  0.00  0.00    +0.000 C 
ENDROOT
BRANCH  10  12
ATOM     12  C   UNL     1      39.769  -0.310  12.059  0.00  0.00    +0.000 A 
ATOM     13  C   UNL     1      39.792   0.363  13.238  0.00  0.00    +0.000 A 
ATOM     14  C   UNL     1      40.197   1.664  13.368  0.00  0.00    +0.000 A 
ATOM     15  C   UNL     1      40.597   2.303  12.223  0.00  0.00    +0.000 A 
ATOM     16  C   UNL     1      40.606   1.704  11.000  0.00  0.00    +0.000 A 
ATOM     17  C   UNL     1      40.179   0.382  10.963  0.00  0.00    +0.000 A 
ENDBRANCH  10  12
BRANCH  11  18
ATOM     18  C   UNL     1      39.540  -2.671  14.174  0.00  0.00    +0.000 A 
ATOM     19  C   UNL     1      40.006  -2.661  15.390  0.00  0.00    +0.000 A 
ATOM     20  C   UNL     1      39.129  -2.631  16.456  0.00  0.00    +0.000 A 
ATOM     21  C   UNL     1      37.762  -2.611  16.285  0.00  0.00    +0.000 A 
ATOM     22  C   UNL     1      37.294  -2.621  14.986  0.00  0.00    +0.000 A 
ATOM     23  C   UNL     1      38.171  -2.652  13.922  0.00  0.00    +0.000 A 
BRANCH  21  24
ATOM     24  S   UNL     1      36.606  -2.570  17.648  0.00  0.00    +0.000 S 
BRANCH  24  25
ATOM     25  C   UNL     1      35.365  -1.296  17.442  0.00  0.00    +0.000 C 
BRANCH  25  26
ATOM     26  C   UNL     1      35.954   0.067  17.187  0.00  0.00    +0.000 C 
BRANCH  26  27
ATOM     27  N   UNL     1      35.351   0.674  16.030  0.00  0.00    +0.000 NA
ATOM     28  C   UNL     1      34.909   2.020  16.317  0.00  0.00    +0.000 C 
ATOM     29  C   UNL     1      34.899   2.702  14.976  0.00  0.00    +0.000 C 
ATOM     30  C   UNL     1      36.046   2.062  14.258  0.00  0.00    +0.000 C 
ATOM     31  C   UNL     1      36.342   0.780  14.979  0.00  0.00    +0.000 C 
ENDBRANCH  26  27
ENDBRANCH  25  26
ENDBRANCH  24  25
ENDBRANCH  21  24
ENDBRANCH  11  18
TORSDOF 6
ENDMDL
MODEL 8
REMARK VINA RESULT:      -7.1      4.346      9.290
REMARK  Name = 
REMARK  6 active torsions:
REMARK  status: ('A' for Active; 'I' for Inactive)
REMARK    1  A    between atoms: C_10  and  C_11
REMARK    2  A    between atoms: C_17  and  C_18
REMARK    3  A    between atoms: C_21  and  S_22
REMARK    4  A    between atoms: S_22  and  C_23
REMARK    5  A    between atoms: C_23  and  C_24
REMARK    6  A    between atoms: C_24  and  N_25
REMARK                            x       y       z     vdW  Elec       q    Type
REMARK                         _______ _______ _______ _____ _____    ______ ____
ROOT
ATOM      1  O   UNL     1      43.675   8.138  18.314  0.00  0.00    +0.000 OA
ATOM      2  C   UNL     1      42.551   7.851  17.553  0.00  0.00    +0.000 A 
ATOM      3  C   UNL     1      42.488   6.607  16.954  0.00  0.00    +0.000 A 
ATOM      4  C   UNL     1      41.391   6.264  16.182  0.00  0.00    +0.000 A 
ATOM      5  C   UNL     1      40.419   7.176  16.050  0.00  0.00    +0.000 A 
ATOM      6  C   UNL     1      40.404   8.439  16.614  0.00  0.00    +0.000 A 
ATOM      7  C   UNL     1      41.508   8.750  17.375  0.00  0.00    +0.000 A 
ATOM      8  O   UNL     1      39.315   9.228  16.360  0.00  0.00    +0.000 OA
ATOM      9  C   UNL     1      38.007   8.854  16.130  0.00  0.00    +0.000 C 
ATOM     10  C   UNL     1      37.898   7.221  16.324  0.00  0.00    +0.000 C 
ATOM     11  C   UNL     1      39.122   6.990  15.204  0.00  0.00    +0.000 C 
ENDROOT
BRANCH  10  12
ATOM     12  C   UNL     1      38.541   7.130  17.709  0.00  0.00    +0.000 A 
ATOM     13  C   UNL     1      39.270   6.090  18.188  0.00  0.00    +0.000 A 
ATOM     14  C   UNL     1      39.838   6.064  19.434  0.00  0.00    +0.000 A 
ATOM     15  C   UNL     1      39.643   7.166  20.225  0.00  0.00    +0.000 A 
ATOM     16  C   UNL     1      38.925   8.253  19.824  0.00  0.00    +0.000 A 
ATOM     17  C   UNL     1      38.386   8.192  18.545  0.00  0.00    +0.000 A 
ENDBRANCH  10  12
BRANCH  11  18
ATOM     18  C   UNL     1      39.119   5.432  15.087  0.00  0.00    +0.000 A 
ATOM     19  C   UNL     1      38.437   4.568  15.785  0.00  0.00    +0.000 A 
ATOM     20  C   UNL     1      38.576   3.220  15.524  0.00  0.00    +0.000 A 
ATOM     21  C   UNL     1      39.416   2.742  14.542  0.00  0.00    +0.000 A 
ATOM     22  C   UNL     1      40.127   3.677  13.816  0.00  0.00    +0.000 A 
ATOM     23  C   UNL     1      39.988   5.024  14.078  0.00  0.00    +0.000 A 
BRANCH  21  24
ATOM     24  S   UNL     1      39.610   1.001  14.183  0.00  0.00    +0.000 S 
BRANCH  24  25
ATOM     25  C   UNL     1      38.044   0.136  14.170  0.00  0.00    +0.000 C 
BRANCH  25  26
ATOM     26  C   UNL     1      37.803  -0.670  15.420  0.00  0.00    +0.000 C 
BRANCH  26  27
ATOM     27  N   UNL     1      37.058   0.093  16.383  0.00  0.00    +0.000 NA
ATOM     28  C   UNL     1      35.874   0.673  15.789  0.00  0.00    +0.000 C 
ATOM     29  C   UNL     1      34.936   0.875  16.948  0.00  0.00    +0.000 C 
ATOM     30  C   UNL     1      35.249  -0.280  17.847  0.00  0.00    +0.000 C 
ATOM     31  C   UNL     1      36.600  -0.789  17.438  0.00  0.00    +0.000 C 
ENDBRANCH  26  27
ENDBRANCH  25  26
ENDBRANCH  24  25
ENDBRANCH  21  24
ENDBRANCH  11  18
TORSDOF 6
ENDMDL
MODEL 9
REMARK VINA RESULT:      -7.1      7.689     10.690
REMARK  Name = 
REMARK  6 active torsions:
REMARK  status: ('A' for Active; 'I' for Inactive)
REMARK    1  A    between atoms: C_10  and  C_11
REMARK    2  A    between atoms: C_17  and  C_18
REMARK    3  A    between atoms: C_21  and  S_22
REMARK    4  A    between atoms: S_22  and  C_23
REMARK    5  A    between atoms: C_23  and  C_24
REMARK    6  A    between atoms: C_24  and  N_25
REMARK                            x       y       z     vdW  Elec       q    Type
REMARK                         _______ _______ _______ _____ _____    ______ ____
ROOT
ATOM      1  O   UNL     1      40.027  11.987  17.214  0.00  0.00    +0.000 OA
ATOM      2  C   UNL     1      40.297  10.641  17.416  0.00  0.00    +0.000 A 
ATOM      3  C   UNL     1      41.458  10.318  18.092  0.00  0.00    +0.000 A 
ATOM      4  C   UNL     1      41.781   8.993  18.323  0.00  0.00    +0.000 A 
ATOM      5  C   UNL     1      40.931   8.062  17.868  0.00  0.00    +0.000 A 
ATOM      6  C   UNL     1      39.753   8.298  17.185  0.00  0.00    +0.000 A 
ATOM      7  C   UNL     1      39.460   9.627  16.971  0.00  0.00    +0.000 A 
ATOM      8  O   UNL     1      39.018   7.209  16.801  0.00  0.00    +0.000 OA
ATOM      9  C   UNL     1      38.910   5.976  17.412  0.00  0.00    +0.000 C 
ATOM     10  C   UNL     1      39.756   6.028  18.825  0.00  0.00    +0.000 C 
ATOM     11  C   UNL     1      41.131   6.521  18.004  0.00  0.00    +0.000 C 
ENDROOT
BRANCH  10  12
ATOM     12  C   UNL     1      39.113   7.287  19.410  0.00  0.00    +0.000 A 
ATOM     13  C   UNL     1      39.682   8.138  20.302  0.00  0.00    +0.000 A 
ATOM     14  C   UNL     1      39.068   9.262  20.785  0.00  0.00    +0.000 A 
ATOM     15  C   UNL     1      37.803   9.521  20.324  0.00  0.00    +0.000 A 
ATOM     16  C   UNL     1      37.158   8.722  19.429  0.00  0.00    +0.000 A 
ATOM     17  C   UNL     1      37.858   7.603  18.994  0.00  0.00    +0.000 A 
ENDBRANCH  10  12
BRANCH  11  18
ATOM     18  C   UNL     1      42.182   6.504  19.160  0.00  0.00    +0.000 A 
ATOM     19  C   UNL     1      41.992   6.255  20.424  0.00  0.00    +0.000 A 
ATOM     20  C   UNL     1      43.064   6.289  21.294  0.00  0.00    +0.000 A 
ATOM     21  C   UNL     1      44.344   6.578  20.875  0.00  0.00    +0.000 A 
ATOM     22  C   UNL     1      44.519   6.837  19.530  0.00  0.00    +0.000 A 
ATOM     23  C   UNL     1      43.448   6.804  18.662  0.00  0.00    +0.000 A 
BRANCH  21  24
ATOM     24  S   UNL     1      45.748   6.626  21.981  0.00  0.00    +0.000 S 
BRANCH  24  25
ATOM     25  C   UNL     1      45.534   7.826  23.292  0.00  0.00    +0.000 C 
BRANCH  25  26
ATOM     26  C   UNL     1      46.201   9.144  23.000  0.00  0.00    +0.000 C 
BRANCH  26  27
ATOM     27  N   UNL     1      45.239  10.116  22.555  0.00  0.00    +0.000 NA
ATOM     28  C   UNL     1      45.250  10.241  21.115  0.00  0.00    +0.000 C 
ATOM     29  C   UNL     1      43.877  10.753  20.774  0.00  0.00    +0.000 C 
ATOM     30  C   UNL     1      43.005  10.105  21.805  0.00  0.00    +0.000 C 
ATOM     31  C   UNL     1      43.910   9.669  22.920  0.00  0.00    +0.000 C 
ENDBRANCH  26  27
ENDBRANCH  25  26
ENDBRANCH  24  25
ENDBRANCH  21  24
ENDBRANCH  11  18
TORSDOF 6
ENDMDL
MODEL 10
REMARK VINA RESULT:      -7.0     29.435     32.057
REMARK  Name = 
REMARK  6 active torsions:
REMARK  status: ('A' for Active; 'I' for Inactive)
REMARK    1  A    between atoms: C_10  and  C_11
REMARK    2  A    between atoms: C_17  and  C_18
REMARK    3  A    between atoms: C_21  and  S_22
REMARK    4  A    between atoms: S_22  and  C_23
REMARK    5  A    between atoms: C_23  and  C_24
REMARK    6  A    between atoms: C_24  and  N_25
REMARK                            x       y       z     vdW  Elec       q    Type
REMARK                         _______ _______ _______ _____ _____    ______ ____
ROOT
ATOM      1  O   UNL     1       9.749   1.446   6.580  0.00  0.00    +0.000 OA
ATOM      2  C   UNL     1       8.948   2.496   7.005  0.00  0.00    +0.000 A 
ATOM      3  C   UNL     1       7.974   2.215   7.944  0.00  0.00    +0.000 A 
ATOM      4  C   UNL     1       7.144   3.222   8.406  0.00  0.00    +0.000 A 
ATOM      5  C   UNL     1       7.331   4.452   7.909  0.00  0.00    +0.000 A 
ATOM      6  C   UNL     1       8.278   4.818   6.971  0.00  0.00    +0.000 A 
ATOM      7  C   UNL     1       9.087   3.793   6.532  0.00  0.00    +0.000 A 
ATOM      8  O   UNL     1       8.310   6.131   6.588  0.00  0.00    +0.000 OA
ATOM      9  C   UNL     1       7.985   7.256   7.317  0.00  0.00    +0.000 C 
ATOM     10  C   UNL     1       7.631   6.786   8.856  0.00  0.00    +0.000 C 
ATOM     11  C   UNL     1       6.484   5.708   8.282  0.00  0.00    +0.000 C 
ENDROOT
BRANCH  10  12
ATOM     12  C   UNL     1       8.902   5.978   9.127  0.00  0.00    +0.000 A 
ATOM     13  C   UNL     1       9.019   4.928   9.979  0.00  0.00    +0.000 A 
ATOM     14  C   UNL     1      10.179   4.228  10.175  0.00  0.00    +0.000 A 
ATOM     15  C   UNL     1      11.274   4.632   9.456  0.00  0.00    +0.000 A 
ATOM     16  C   UNL     1      11.245   5.674   8.579  0.00  0.00    +0.000 A 
ATOM     17  C   UNL     1      10.026   6.327   8.444  0.00  0.00    +0.000 A 
ENDBRANCH  10  12
BRANCH  11  18
ATOM     18  C   UNL     1       5.861   5.204   9.623  0.00  0.00    +0.000 A 
ATOM     19  C   UNL     1       5.208   4.100   9.848  0.00  0.00    +0.000 A 
ATOM     20  C   UNL     1       4.733   3.834  11.117  0.00  0.00    +0.000 A 
ATOM     21  C   UNL     1       4.925   4.701  12.171  0.00  0.00    +0.000 A 
ATOM     22  C   UNL     1       5.621   5.864  11.906  0.00  0.00    +0.000 A 
ATOM     23  C   UNL     1       6.093   6.128  10.638  0.00  0.00    +0.000 A 
BRANCH  21  24
ATOM     24  S   UNL     1       4.323   4.380  13.823  0.00  0.00    +0.000 S 
BRANCH  24  25
ATOM     25  C   UNL     1       5.292   3.131  14.664  0.00  0.00    +0.000 C 
BRANCH  25  26
ATOM     26  C   UNL     1       5.285   1.802  13.955  0.00  0.00    +0.000 C 
BRANCH  26  27
ATOM     27  N   UNL     1       6.621   1.407  13.599  0.00  0.00    +0.000 NA
ATOM     28  C   UNL     1       6.738   1.184  12.175  0.00  0.00    +0.000 C 
ATOM     29  C   UNL     1       8.199   1.397  11.883  0.00  0.00    +0.000 C 
ATOM     30  C   UNL     1       8.588   2.469  12.854  0.00  0.00    +0.000 C 
ATOM     31  C   UNL     1       7.537   2.480  13.925  0.00  0.00    +0.000 C 
ENDBRANCH  26  27
ENDBRANCH  25  26
ENDBRANCH  24  25
ENDBRANCH  21  24
ENDBRANCH  11  18
TORSDOF 6
ENDMDL
