MODEL 1
REMARK VINA RESULT:      -7.8      0.000      0.000
REMARK  Name = 
REMARK  5 active torsions:
REMARK  status: ('A' for Active; 'I' for Inactive)
REMARK    1  A    between atoms: C_2  and  N_3
REMARK    2  A    between atoms: C_2  and  N_10
REMARK    3  A    between atoms: N_3  and  C_4
REMARK    4  A    between atoms: C_4  and  C_5
REMARK    5  A    between atoms: N_10  and  C_11
REMARK                            x       y       z     vdW  Elec       q    Type
REMARK                         _______ _______ _______ _____ _____    ______ ____
ROOT
ATOM      1  N   UNL     1      16.366  10.328  35.074  0.00  0.00    +0.000 NA
ENDROOT
BRANCH   1   2
ATOM      2  C   UNL     1      16.006  10.980  33.890  0.00  0.00    +0.000 A 
ATOM      3  C   UNL     1      16.510  10.578  32.669  0.00  0.00    +0.000 A 
ATOM      4  C   UNL     1      16.157  11.223  31.475  0.00  0.00    +0.000 A 
ATOM      5  C   UNL     1      15.288  12.285  31.504  0.00  0.00    +0.000 A 
ATOM      6  C   UNL     1      14.774  12.701  32.710  0.00  0.00    +0.000 A 
ATOM      7  C   UNL     1      15.129  12.059  33.876  0.00  0.00    +0.000 A 
ATOM      8  C   UNL     1      13.880  13.850  32.445  0.00  0.00    +0.000 C 
ATOM      9  C   UNL     1      13.432  13.594  31.022  0.00  0.00    +0.000 C 
ATOM     10  C   UNL     1      14.757  13.128  30.399  0.00  0.00    +0.000 C 
ENDBRANCH   1   2
BRANCH   1  12
ATOM     11  S   UNL     1      18.075  10.739  36.977  0.00  0.00    +0.000 S 
ATOM     12  C   UNL     1      16.581  10.915  36.325  0.00  0.00    +0.000 C 
BRANCH  12  13
ATOM     13  N   UNL     1      15.624  11.634  37.061  0.00  0.00    +0.000 NA
BRANCH  13  14
ATOM     14  C   UNL     1      14.828  11.098  38.142  0.00  0.00    +0.000 C 
BRANCH  14  15
ATOM     15  C   UNL     1      13.376  11.174  37.858  0.00  0.00    +0.000 A 
ATOM     16  C   UNL     1      12.770  12.080  36.989  0.00  0.00    +0.000 A 
ATOM     17  C   UNL     1      11.420  11.817  37.013  0.00  0.00    +0.000 A 
ATOM     18  C   UNL     1      11.249  10.776  37.881  0.00  0.00    +0.000 A 
ATOM     19  O   UNL     1      12.428  10.435  38.351  0.00  0.00    +0.000 OA
ENDBRANCH  14  15
ENDBRANCH  13  14
ENDBRANCH  12  13
ENDBRANCH   1  12
TORSDOF 5
ENDMDL
MODEL 2
REMARK VINA RESULT:      -6.9      1.747      2.130
REMARK  Name = 
REMARK  5 active torsions:
REMARK  status: ('A' for Active; 'I' for Inactive)
REMARK    1  A    between atoms: C_2  and  N_3
REMARK    2  A    between atoms: C_2  and  N_10
REMARK    3  A    between atoms: N_3  and  C_4
REMARK    4  A    between atoms: C_4  and  C_5
REMARK    5  A    between atoms: N_10  and  C_11
REMARK                            x       y       z     vdW  Elec       q    Type
REMARK                         _______ _______ _______ _____ _____    ______ ____
ROOT
ATOM      1  N   UNL     1      17.165   9.731  34.208  0.00  0.00    +0.000 NA
ENDROOT
BRANCH   1   2
ATOM      2  C   UNL     1      16.415  10.443  33.266  0.00  0.00    +0.000 A 
ATOM      3  C   UNL     1      15.096  10.125  33.010  0.00  0.00    +0.000 A 
ATOM      4  C   UNL     1      14.335  10.832  32.069  0.00  0.00    +0.000 A 
ATOM      5  C   UNL     1      14.901  11.872  31.375  0.00  0.00    +0.000 A 
ATOM      6  C   UNL     1      16.213  12.206  31.616  0.00  0.00    +0.000 A 
ATOM      7  C   UNL     1      16.951  11.503  32.542  0.00  0.00    +0.000 A 
ATOM      8  C   UNL     1      16.555  13.346  30.736  0.00  0.00    +0.000 C 
ATOM      9  C   UNL     1      15.211  14.010  30.525  0.00  0.00    +0.000 C 
ATOM     10  C   UNL     1      14.322  12.772  30.341  0.00  0.00    +0.000 C 
ENDBRANCH   1   2
BRANCH   1  12
ATOM     11  S   UNL     1      18.733   9.754  36.270  0.00  0.00    +0.000 S 
ATOM     12  C   UNL     1      17.267   9.997  35.577  0.00  0.00    +0.000 C 
BRANCH  12  13
ATOM     13  N   UNL     1      16.220  10.451  36.397  0.00  0.00    +0.000 NA
BRANCH  13  14
ATOM     14  C   UNL     1      16.080  11.800  36.898  0.00  0.00    +0.000 C 
BRANCH  14  15
ATOM     15  C   UNL     1      14.855  12.460  36.390  0.00  0.00    +0.000 A 
ATOM     16  C   UNL     1      14.736  13.105  35.160  0.00  0.00    +0.000 A 
ATOM     17  C   UNL     1      13.447  13.578  35.077  0.00  0.00    +0.000 A 
ATOM     18  C   UNL     1      12.832  13.212  36.241  0.00  0.00    +0.000 A 
ATOM     19  O   UNL     1      13.700  12.559  36.979  0.00  0.00    +0.000 OA
ENDBRANCH  14  15
ENDBRANCH  13  14
ENDBRANCH  12  13
ENDBRANCH   1  12
TORSDOF 5
ENDMDL
MODEL 3
REMARK VINA RESULT:      -6.8      3.046      4.991
REMARK  Name = 
REMARK  5 active torsions:
REMARK  status: ('A' for Active; 'I' for Inactive)
REMARK    1  A    between atoms: C_2  and  N_3
REMARK    2  A    between atoms: C_2  and  N_10
REMARK    3  A    between atoms: N_3  and  C_4
REMARK    4  A    between atoms: C_4  and  C_5
REMARK    5  A    between atoms: N_10  and  C_11
REMARK                            x       y       z     vdW  Elec       q    Type
REMARK                         _______ _______ _______ _____ _____    ______ ____
ROOT
ATOM      1  N   UNL     1      15.362  11.444  36.032  0.00  0.00    +0.000 NA
ENDROOT
BRANCH   1   2
ATOM      2  C   UNL     1      14.945  12.096  34.867  0.00  0.00    +0.000 A 
ATOM      3  C   UNL     1      14.175  13.240  34.921  0.00  0.00    +0.000 A 
ATOM      4  C   UNL     1      13.752  13.903  33.761  0.00  0.00    +0.000 A 
ATOM      5  C   UNL     1      14.105  13.413  32.528  0.00  0.00    +0.000 A 
ATOM      6  C   UNL     1      14.872  12.274  32.452  0.00  0.00    +0.000 A 
ATOM      7  C   UNL     1      15.281  11.633  33.599  0.00  0.00    +0.000 A 
ATOM      8  C   UNL     1      15.095  11.978  31.018  0.00  0.00    +0.000 C 
ATOM      9  C   UNL     1      14.987  13.347  30.382  0.00  0.00    +0.000 C 
ATOM     10  C   UNL     1      13.795  13.918  31.164  0.00  0.00    +0.000 C 
ENDBRANCH   1   2
BRANCH   1  12
ATOM     11  S   UNL     1      17.421  12.706  36.971  0.00  0.00    +0.000 S 
ATOM     12  C   UNL     1      16.672  11.323  36.505  0.00  0.00    +0.000 C 
BRANCH  12  13
ATOM     13  N   UNL     1      17.391  10.120  36.609  0.00  0.00    +0.000 NA
BRANCH  13  14
ATOM     14  C   UNL     1      18.223   9.741  37.729  0.00  0.00    +0.000 C 
BRANCH  14  15
ATOM     15  C   UNL     1      19.662   9.967  37.457  0.00  0.00    +0.000 A 
ATOM     16  C   UNL     1      20.532  10.692  38.270  0.00  0.00    +0.000 A 
ATOM     17  C   UNL     1      21.767  10.661  37.664  0.00  0.00    +0.000 A 
ATOM     18  C   UNL     1      21.611   9.930  36.520  0.00  0.00    +0.000 A 
ATOM     19  O   UNL     1      20.358   9.545  36.444  0.00  0.00    +0.000 OA
ENDBRANCH  14  15
ENDBRANCH  13  14
ENDBRANCH  12  13
ENDBRANCH   1  12
TORSDOF 5
ENDMDL
MODEL 4
REMARK VINA RESULT:      -6.5      3.118      4.512
REMARK  Name = 
REMARK  5 active torsions:
REMARK  status: ('A' for Active; 'I' for Inactive)
REMARK    1  A    between atoms: C_2  and  N_3
REMARK    2  A    between atoms: C_2  and  N_10
REMARK    3  A    between atoms: N_3  and  C_4
REMARK    4  A    between atoms: C_4  and  C_5
REMARK    5  A    between atoms: N_10  and  C_11
REMARK                            x       y       z     vdW  Elec       q    Type
REMARK                         _______ _______ _______ _____ _____    ______ ____
ROOT
ATOM      1  N   UNL     1      15.923  10.703  35.506  0.00  0.00    +0.000 NA
ENDROOT
BRANCH   1   2
ATOM      2  C   UNL     1      15.713  11.255  34.238  0.00  0.00    +0.000 A 
ATOM      3  C   UNL     1      16.361  10.759  33.125  0.00  0.00    +0.000 A 
ATOM      4  C   UNL     1      16.159  11.302  31.849  0.00  0.00    +0.000 A 
ATOM      5  C   UNL     1      15.296  12.357  31.685  0.00  0.00    +0.000 A 
ATOM      6  C   UNL     1      14.640  12.866  32.781  0.00  0.00    +0.000 A 
ATOM      7  C   UNL     1      14.847  12.323  34.030  0.00  0.00    +0.000 A 
ATOM      8  C   UNL     1      13.789  13.984  32.316  0.00  0.00    +0.000 C 
ATOM      9  C   UNL     1      13.518  13.611  30.874  0.00  0.00    +0.000 C 
ATOM     10  C   UNL     1      14.907  13.104  30.459  0.00  0.00    +0.000 C 
ENDBRANCH   1   2
BRANCH   1  12
ATOM     11  S   UNL     1      14.652  11.449  37.638  0.00  0.00    +0.000 S 
ATOM     12  C   UNL     1      16.010  11.393  36.720  0.00  0.00    +0.000 C 
BRANCH  12  13
ATOM     13  N   UNL     1      17.159  12.037  37.207  0.00  0.00    +0.000 NA
BRANCH  13  14
ATOM     14  C   UNL     1      18.430  11.395  37.460  0.00  0.00    +0.000 C 
BRANCH  14  15
ATOM     15  C   UNL     1      19.388  12.299  38.138  0.00  0.00    +0.000 A 
ATOM     16  C   UNL     1      20.227  11.942  39.192  0.00  0.00    +0.000 A 
ATOM     17  C   UNL     1      20.949  13.064  39.528  0.00  0.00    +0.000 A 
ATOM     18  C   UNL     1      20.534  14.053  38.681  0.00  0.00    +0.000 A 
ATOM     19  O   UNL     1      19.616  13.553  37.884  0.00  0.00    +0.000 OA
ENDBRANCH  14  15
ENDBRANCH  13  14
ENDBRANCH  12  13
ENDBRANCH   1  12
TORSDOF 5
ENDMDL
MODEL 5
REMARK VINA RESULT:      -6.5      4.164      7.206
REMARK  Name = 
REMARK  5 active torsions:
REMARK  status: ('A' for Active; 'I' for Inactive)
REMARK    1  A    between atoms: C_2  and  N_3
REMARK    2  A    between atoms: C_2  and  N_10
REMARK    3  A    between atoms: N_3  and  C_4
REMARK    4  A    between atoms: C_4  and  C_5
REMARK    5  A    between atoms: N_10  and  C_11
REMARK                            x       y       z     vdW  Elec       q    Type
REMARK                         _______ _______ _______ _____ _____    ______ ____
ROOT
ATOM      1  N   UNL     1      18.042   9.899  37.298  0.00  0.00    +0.000 NA
ENDROOT
BRANCH   1   2
ATOM      2  C   UNL     1      19.367  10.335  37.399  0.00  0.00    +0.000 A 
ATOM      3  C   UNL     1      19.706  11.427  38.173  0.00  0.00    +0.000 A 
ATOM      4  C   UNL     1      21.030  11.873  38.283  0.00  0.00    +0.000 A 
ATOM      5  C   UNL     1      22.030  11.218  37.609  0.00  0.00    +0.000 A 
ATOM      6  C   UNL     1      21.714  10.127  36.833  0.00  0.00    +0.000 A 
ATOM      7  C   UNL     1      20.409   9.699  36.733  0.00  0.00    +0.000 A 
ATOM      8  C   UNL     1      22.970   9.627  36.229  0.00  0.00    +0.000 C 
ATOM      9  C   UNL     1      24.014  10.073  37.230  0.00  0.00    +0.000 C 
ATOM     10  C   UNL     1      23.493  11.480  37.558  0.00  0.00    +0.000 C 
ENDBRANCH   1   2
BRANCH   1  12
ATOM     11  S   UNL     1      15.818  11.219  37.146  0.00  0.00    +0.000 S 
ATOM     12  C   UNL     1      17.054  10.401  36.445  0.00  0.00    +0.000 C 
BRANCH  12  13
ATOM     13  N   UNL     1      17.039  10.259  35.047  0.00  0.00    +0.000 NA
BRANCH  13  14
ATOM     14  C   UNL     1      17.022  11.351  34.099  0.00  0.00    +0.000 C 
BRANCH  14  15
ATOM     15  C   UNL     1      16.074  11.109  32.986  0.00  0.00    +0.000 A 
ATOM     16  C   UNL     1      16.052  11.806  31.779  0.00  0.00    +0.000 A 
ATOM     17  C   UNL     1      15.029  11.275  31.027  0.00  0.00    +0.000 A 
ATOM     18  C   UNL     1      14.469  10.289  31.789  0.00  0.00    +0.000 A 
ATOM     19  O   UNL     1      15.118  10.230  32.930  0.00  0.00    +0.000 OA
ENDBRANCH  14  15
ENDBRANCH  13  14
ENDBRANCH  12  13
ENDBRANCH   1  12
TORSDOF 5
ENDMDL
MODEL 6
REMARK VINA RESULT:      -6.4      3.458      4.722
REMARK  Name = 
REMARK  5 active torsions:
REMARK  status: ('A' for Active; 'I' for Inactive)
REMARK    1  A    between atoms: C_2  and  N_3
REMARK    2  A    between atoms: C_2  and  N_10
REMARK    3  A    between atoms: N_3  and  C_4
REMARK    4  A    between atoms: C_4  and  C_5
REMARK    5  A    between atoms: N_10  and  C_11
REMARK                            x       y       z     vdW  Elec       q    Type
REMARK                         _______ _______ _______ _____ _____    ______ ____
ROOT
ATOM      1  N   UNL     1      17.686   9.680  36.456  0.00  0.00    +0.000 NA
ENDROOT
BRANCH   1   2
ATOM      2  C   UNL     1      16.947  10.369  35.489  0.00  0.00    +0.000 A 
ATOM      3  C   UNL     1      16.073  11.378  35.839  0.00  0.00    +0.000 A 
ATOM      4  C   UNL     1      15.327  12.077  34.880  0.00  0.00    +0.000 A 
ATOM      5  C   UNL     1      15.459  11.761  33.551  0.00  0.00    +0.000 A 
ATOM      6  C   UNL     1      16.325  10.759  33.180  0.00  0.00    +0.000 A 
ATOM      7  C   UNL     1      17.052  10.080  34.133  0.00  0.00    +0.000 A 
ATOM      8  C   UNL     1      16.262  10.633  31.706  0.00  0.00    +0.000 C 
ATOM      9  C   UNL     1      15.849  12.025  31.278  0.00  0.00    +0.000 C 
ATOM     10  C   UNL     1      14.797  12.340  32.351  0.00  0.00    +0.000 C 
ENDBRANCH   1   2
BRANCH   1  12
ATOM     11  S   UNL     1      19.398  10.884  37.984  0.00  0.00    +0.000 S 
ATOM     12  C   UNL     1      17.972  10.105  37.757  0.00  0.00    +0.000 C 
BRANCH  12  13
ATOM     13  N   UNL     1      17.141   9.918  38.875  0.00  0.00    +0.000 NA
BRANCH  13  14
ATOM     14  C   UNL     1      17.598   9.592  40.207  0.00  0.00    +0.000 C 
BRANCH  14  15
ATOM     15  C   UNL     1      17.808   8.136  40.386  0.00  0.00    +0.000 A 
ATOM     16  C   UNL     1      16.982   7.286  41.119  0.00  0.00    +0.000 A 
ATOM     17  C   UNL     1      17.527   6.025  41.033  0.00  0.00    +0.000 A 
ATOM     18  C   UNL     1      18.649   6.147  40.262  0.00  0.00    +0.000 A 
ATOM     19  O   UNL     1      18.770   7.406  39.907  0.00  0.00    +0.000 OA
ENDBRANCH  14  15
ENDBRANCH  13  14
ENDBRANCH  12  13
ENDBRANCH   1  12
TORSDOF 5
ENDMDL
MODEL 7
REMARK VINA RESULT:      -6.4      2.344      3.439
REMARK  Name = 
REMARK  5 active torsions:
REMARK  status: ('A' for Active; 'I' for Inactive)
REMARK    1  A    between atoms: C_2  and  N_3
REMARK    2  A    between atoms: C_2  and  N_10
REMARK    3  A    between atoms: N_3  and  C_4
REMARK    4  A    between atoms: C_4  and  C_5
REMARK    5  A    between atoms: N_10  and  C_11
REMARK                            x       y       z     vdW  Elec       q    Type
REMARK                         _______ _______ _______ _____ _____    ______ ____
ROOT
ATOM      1  N   UNL     1      16.655   9.916  34.689  0.00  0.00    +0.000 NA
ENDROOT
BRANCH   1   2
ATOM      2  C   UNL     1      15.909  10.966  34.142  0.00  0.00    +0.000 A 
ATOM      3  C   UNL     1      15.228  11.857  34.947  0.00  0.00    +0.000 A 
ATOM      4  C   UNL     1      14.479  12.914  34.411  0.00  0.00    +0.000 A 
ATOM      5  C   UNL     1      14.411  13.081  33.050  0.00  0.00    +0.000 A 
ATOM      6  C   UNL     1      15.083  12.204  32.231  0.00  0.00    +0.000 A 
ATOM      7  C   UNL     1      15.815  11.170  32.770  0.00  0.00    +0.000 A 
ATOM      8  C   UNL     1      14.832  12.617  30.831  0.00  0.00    +0.000 C 
ATOM      9  C   UNL     1      14.567  14.100  30.971  0.00  0.00    +0.000 C 
ATOM     10  C   UNL     1      13.700  14.104  32.238  0.00  0.00    +0.000 C 
ENDBRANCH   1   2
BRANCH   1  12
ATOM     11  S   UNL     1      18.981   9.608  35.786  0.00  0.00    +0.000 S 
ATOM     12  C   UNL     1      17.377   9.932  35.886  0.00  0.00    +0.000 C 
BRANCH  12  13
ATOM     13  N   UNL     1      16.839  10.200  37.157  0.00  0.00    +0.000 NA
BRANCH  13  14
ATOM     14  C   UNL     1      17.610  10.384  38.365  0.00  0.00    +0.000 C 
BRANCH  14  15
ATOM     15  C   UNL     1      16.972   9.740  39.538  0.00  0.00    +0.000 A 
ATOM     16  C   UNL     1      17.566   8.776  40.351  0.00  0.00    +0.000 A 
ATOM     17  C   UNL     1      16.645   8.444  41.318  0.00  0.00    +0.000 A 
ATOM     18  C   UNL     1      15.537   9.203  41.065  0.00  0.00    +0.000 A 
ATOM     19  O   UNL     1      15.780   9.948  40.011  0.00  0.00    +0.000 OA
ENDBRANCH  14  15
ENDBRANCH  13  14
ENDBRANCH  12  13
ENDBRANCH   1  12
TORSDOF 5
ENDMDL
MODEL 8
REMARK VINA RESULT:      -6.4      2.837      3.793
REMARK  Name = 
REMARK  5 active torsions:
REMARK  status: ('A' for Active; 'I' for Inactive)
REMARK    1  A    between atoms: C_2  and  N_3
REMARK    2  A    between atoms: C_2  and  N_10
REMARK    3  A    between atoms: N_3  and  C_4
REMARK    4  A    between atoms: C_4  and  C_5
REMARK    5  A    between atoms: N_10  and  C_11
REMARK                            x       y       z     vdW  Elec       q    Type
REMARK                         _______ _______ _______ _____ _____    ______ ____
ROOT
ATOM      1  N   UNL     1      16.263  10.326  35.045  0.00  0.00    +0.000 NA
ENDROOT
BRANCH   1   2
ATOM      2  C   UNL     1      15.943  11.001  33.863  0.00  0.00    +0.000 A 
ATOM      3  C   UNL     1      16.504  10.637  32.655  0.00  0.00    +0.000 A 
ATOM      4  C   UNL     1      16.191  11.305  31.463  0.00  0.00    +0.000 A 
ATOM      5  C   UNL     1      15.304  12.352  31.480  0.00  0.00    +0.000 A 
ATOM      6  C   UNL     1      14.732  12.730  32.673  0.00  0.00    +0.000 A 
ATOM      7  C   UNL     1      15.048  12.066  33.837  0.00  0.00    +0.000 A 
ATOM      8  C   UNL     1      13.831  13.871  32.397  0.00  0.00    +0.000 C 
ATOM      9  C   UNL     1      13.448  13.643  30.950  0.00  0.00    +0.000 C 
ATOM     10  C   UNL     1      14.805  13.213  30.374  0.00  0.00    +0.000 C 
ENDBRANCH   1   2
BRANCH   1  12
ATOM     11  S   UNL     1      17.039  12.441  36.325  0.00  0.00    +0.000 S 
ATOM     12  C   UNL     1      17.021  10.815  36.114  0.00  0.00    +0.000 C 
BRANCH  12  13
ATOM     13  N   UNL     1      17.764  10.028  37.010  0.00  0.00    +0.000 NA
BRANCH  13  14
ATOM     14  C   UNL     1      18.000  10.348  38.400  0.00  0.00    +0.000 C 
BRANCH  14  15
ATOM     15  C   UNL     1      17.981   9.142  39.262  0.00  0.00    +0.000 A 
ATOM     16  C   UNL     1      17.150   8.952  40.365  0.00  0.00    +0.000 A 
ATOM     17  C   UNL     1      17.447   7.711  40.881  0.00  0.00    +0.000 A 
ATOM     18  C   UNL     1      18.433   7.195  40.089  0.00  0.00    +0.000 A 
ATOM     19  O   UNL     1      18.711   8.073  39.152  0.00  0.00    +0.000 OA
ENDBRANCH  14  15
ENDBRANCH  13  14
ENDBRANCH  12  13
ENDBRANCH   1  12
TORSDOF 5
ENDMDL
MODEL 9
REMARK VINA RESULT:      -6.2      4.063      6.455
REMARK  Name = 
REMARK  5 active torsions:
REMARK  status: ('A' for Active; 'I' for Inactive)
REMARK    1  A    between atoms: C_2  and  N_3
REMARK    2  A    between atoms: C_2  and  N_10
REMARK    3  A    between atoms: N_3  and  C_4
REMARK    4  A    between atoms: C_4  and  C_5
REMARK    5  A    between atoms: N_10  and  C_11
REMARK                            x       y       z     vdW  Elec       q    Type
REMARK                         _______ _______ _______ _____ _____    ______ ____
ROOT
ATOM      1  N   UNL     1      18.245   9.890  37.175  0.00  0.00    +0.000 NA
ENDROOT
BRANCH   1   2
ATOM      2  C   UNL     1      19.573  10.315  37.289  0.00  0.00    +0.000 A 
ATOM      3  C   UNL     1      19.911  11.413  38.054  0.00  0.00    +0.000 A 
ATOM      4  C   UNL     1      21.238  11.848  38.178  0.00  0.00    +0.000 A 
ATOM      5  C   UNL     1      22.241  11.173  37.526  0.00  0.00    +0.000 A 
ATOM      6  C   UNL     1      21.926  10.076  36.760  0.00  0.00    +0.000 A 
ATOM      7  C   UNL     1      20.618   9.659  36.647  0.00  0.00    +0.000 A 
ATOM      8  C   UNL     1      23.185   9.556  36.181  0.00  0.00    +0.000 C 
ATOM      9  C   UNL     1      24.219  10.005  37.192  0.00  0.00    +0.000 C 
ATOM     10  C   UNL     1      23.707  11.421  37.494  0.00  0.00    +0.000 C 
ENDBRANCH   1   2
BRANCH   1  12
ATOM     11  S   UNL     1      17.329  10.037  34.756  0.00  0.00    +0.000 S 
ATOM     12  C   UNL     1      17.258  10.432  36.347  0.00  0.00    +0.000 C 
BRANCH  12  13
ATOM     13  N   UNL     1      16.221  11.281  36.767  0.00  0.00    +0.000 NA
BRANCH  13  14
ATOM     14  C   UNL     1      15.393  11.071  37.933  0.00  0.00    +0.000 C 
BRANCH  14  15
ATOM     15  C   UNL     1      13.962  11.341  37.659  0.00  0.00    +0.000 A 
ATOM     16  C   UNL     1      12.888  10.671  38.243  0.00  0.00    +0.000 A 
ATOM     17  C   UNL     1      11.740  11.222  37.721  0.00  0.00    +0.000 A 
ATOM     18  C   UNL     1      12.146  12.194  36.850  0.00  0.00    +0.000 A 
ATOM     19  O   UNL     1      13.459  12.225  36.850  0.00  0.00    +0.000 OA
ENDBRANCH  14  15
ENDBRANCH  13  14
ENDBRANCH  12  13
ENDBRANCH   1  12
TORSDOF 5
ENDMDL
MODEL 10
REMARK VINA RESULT:      -6.2     28.684     31.061
REMARK  Name = 
REMARK  5 active torsions:
REMARK  status: ('A' for Active; 'I' for Inactive)
REMARK    1  A    between atoms: C_2  and  N_3
REMARK    2  A    between atoms: C_2  and  N_10
REMARK    3  A    between atoms: N_3  and  C_4
REMARK    4  A    between atoms: C_4  and  C_5
REMARK    5  A    between atoms: N_10  and  C_11
REMARK                            x       y       z     vdW  Elec       q    Type
REMARK                         _______ _______ _______ _____ _____    ______ ____
ROOT
ATOM      1  N   UNL     1      31.152  20.978  10.510  0.00  0.00    +0.000 NA
ENDROOT
BRANCH   1   2
ATOM      2  C   UNL     1      30.192  21.678  11.248  0.00  0.00    +0.000 A 
ATOM      3  C   UNL     1      30.534  22.373  12.391  0.00  0.00    +0.000 A 
ATOM      4  C   UNL     1      29.582  23.079  13.139  0.00  0.00    +0.000 A 
ATOM      5  C   UNL     1      28.269  23.090  12.738  0.00  0.00    +0.000 A 
ATOM      6  C   UNL     1      27.908  22.404  11.602  0.00  0.00    +0.000 A 
ATOM      7  C   UNL     1      28.853  21.714  10.876  0.00  0.00    +0.000 A 
ATOM      8  C   UNL     1      26.450  22.584  11.413  0.00  0.00    +0.000 C 
ATOM      9  C   UNL     1      26.195  23.911  12.096  0.00  0.00    +0.000 C 
ATOM     10  C   UNL     1      27.081  23.752  13.340  0.00  0.00    +0.000 C 
ENDBRANCH   1   2
BRANCH   1  12
ATOM     11  S   UNL     1      31.398  20.850   7.934  0.00  0.00    +0.000 S 
ATOM     12  C   UNL     1      31.856  21.440   9.394  0.00  0.00    +0.000 C 
BRANCH  12  13
ATOM     13  N   UNL     1      32.916  22.361   9.426  0.00  0.00    +0.000 NA
BRANCH  13  14
ATOM     14  C   UNL     1      33.776  22.602  10.563  0.00  0.00    +0.000 C 
BRANCH  14  15
ATOM     15  C   UNL     1      34.517  21.385  10.971  0.00  0.00    +0.000 A 
ATOM     16  C   UNL     1      35.542  20.783  10.244  0.00  0.00    +0.000 A 
ATOM     17  C   UNL     1      35.957  19.687  10.966  0.00  0.00    +0.000 A 
ATOM     18  C   UNL     1      35.183  19.658  12.092  0.00  0.00    +0.000 A 
ATOM     19  O   UNL     1      34.353  20.676  12.048  0.00  0.00    +0.000 OA
ENDBRANCH  14  15
ENDBRANCH  13  14
ENDBRANCH  12  13
ENDBRANCH   1  12
TORSDOF 5
ENDMDL
