MODEL 1
REMARK VINA RESULT:      -7.2      0.000      0.000
REMARK  Name = 
REMARK  2 active torsions:
REMARK  status: ('A' for Active; 'I' for Inactive)
REMARK    1  A    between atoms: C_2  and  C_3
REMARK    2  A    between atoms: C_3  and  C_4
REMARK                            x       y       z     vdW  Elec       q    Type
REMARK                         _______ _______ _______ _____ _____    ______ ____
ROOT
ATOM      1  C   UNL     1      16.688   9.482  40.280  0.00  0.00    +0.000 A 
ATOM      2  C   UNL     1      15.455   9.852  39.782  0.00  0.00    +0.000 A 
ATOM      3  C   UNL     1      15.332  10.620  38.640  0.00  0.00    +0.000 A 
ATOM      4  C   UNL     1      16.477  11.025  37.985  0.00  0.00    +0.000 A 
ATOM      5  O   UNL     1      16.326  11.748  36.911  0.00  0.00    +0.000 OA
ATOM      6  C   UNL     1      15.165  12.109  36.422  0.00  0.00    +0.000 A 
ATOM      7  O   UNL     1      15.119  12.804  35.385  0.00  0.00    +0.000 OA
ATOM      8  C   UNL     1      13.985  11.742  37.022  0.00  0.00    +0.000 A 
ATOM      9  C   UNL     1      12.741  12.094  36.548  0.00  0.00    +0.000 A 
ATOM     10  C   UNL     1      11.609  11.689  37.201  0.00  0.00    +0.000 A 
ATOM     11  C   UNL     1      11.704  10.924  38.342  0.00  0.00    +0.000 A 
ATOM     12  C   UNL     1      12.939  10.570  38.818  0.00  0.00    +0.000 A 
ATOM     13  C   UNL     1      14.070  10.974  38.165  0.00  0.00    +0.000 A 
ATOM     14  C   UNL     1      17.716  10.665  38.470  0.00  0.00    +0.000 A 
ATOM     15  C   UNL     1      18.928  11.121  37.735  0.00  0.00    +0.000 C 
ATOM     16  C   UNL     1      17.831   9.885  39.629  0.00  0.00    +0.000 A 
ATOM     17  O   UNL     1      19.118   9.566  40.048  0.00  0.00    +0.000 OA
ENDROOT
BRANCH   1  18
ATOM     18  C   UNL     1      16.810   8.665  41.505  0.00  0.00    +0.000 C 
BRANCH  18  20
ATOM     19  C   UNL     1      17.303   6.338  40.968  0.00  0.00    +0.000 C 
ATOM     20  C   UNL     1      16.361   7.253  41.266  0.00  0.00    +0.000 C 
ENDBRANCH  18  20
ENDBRANCH   1  18
TORSDOF 2
ENDMDL
MODEL 2
REMARK VINA RESULT:      -6.7     20.510     23.026
REMARK  Name = 
REMARK  2 active torsions:
REMARK  status: ('A' for Active; 'I' for Inactive)
REMARK    1  A    between atoms: C_2  and  C_3
REMARK    2  A    between atoms: C_3  and  C_4
REMARK                            x       y       z     vdW  Elec       q    Type
REMARK                         _______ _______ _______ _____ _____    ______ ____
ROOT
ATOM      1  C   UNL     1      30.081  23.056  27.324  0.00  0.00    +0.000 A 
ATOM      2  C   UNL     1      28.960  23.048  26.519  0.00  0.00    +0.000 A 
ATOM      3  C   UNL     1      29.034  23.332  25.168  0.00  0.00    +0.000 A 
ATOM      4  C   UNL     1      30.263  23.629  24.617  0.00  0.00    +0.000 A 
ATOM      5  O   UNL     1      30.297  23.891  23.341  0.00  0.00    +0.000 OA
ATOM      6  C   UNL     1      29.246  23.889  22.559  0.00  0.00    +0.000 A 
ATOM      7  O   UNL     1      29.376  24.153  21.345  0.00  0.00    +0.000 OA
ATOM      8  C   UNL     1      27.991  23.602  23.039  0.00  0.00    +0.000 A 
ATOM      9  C   UNL     1      26.856  23.586  22.260  0.00  0.00    +0.000 A 
ATOM     10  C   UNL     1      25.639  23.289  22.812  0.00  0.00    +0.000 A 
ATOM     11  C   UNL     1      25.539  23.004  24.155  0.00  0.00    +0.000 A 
ATOM     12  C   UNL     1      26.665  23.019  24.935  0.00  0.00    +0.000 A 
ATOM     13  C   UNL     1      27.881  23.315  24.384  0.00  0.00    +0.000 A 
ATOM     14  C   UNL     1      31.392  23.641  25.408  0.00  0.00    +0.000 A 
ATOM     15  C   UNL     1      32.701  23.966  24.777  0.00  0.00    +0.000 C 
ATOM     16  C   UNL     1      31.309  23.352  26.778  0.00  0.00    +0.000 A 
ATOM     17  O   UNL     1      32.495  23.386  27.502  0.00  0.00    +0.000 OA
ENDROOT
BRANCH   1  18
ATOM     18  C   UNL     1      29.993  22.757  28.768  0.00  0.00    +0.000 C 
BRANCH  18  20
ATOM     19  C   UNL     1      27.882  22.419  29.943  0.00  0.00    +0.000 C 
ATOM     20  C   UNL     1      28.723  23.295  29.361  0.00  0.00    +0.000 C 
ENDBRANCH  18  20
ENDBRANCH   1  18
TORSDOF 2
ENDMDL
MODEL 3
REMARK VINA RESULT:      -6.7     19.208     21.768
REMARK  Name = 
REMARK  2 active torsions:
REMARK  status: ('A' for Active; 'I' for Inactive)
REMARK    1  A    between atoms: C_2  and  C_3
REMARK    2  A    between atoms: C_3  and  C_4
REMARK                            x       y       z     vdW  Elec       q    Type
REMARK                         _______ _______ _______ _____ _____    ______ ____
ROOT
ATOM      1  C   UNL     1      28.064  22.556  28.804  0.00  0.00    +0.000 A 
ATOM      2  C   UNL     1      27.462  22.719  27.573  0.00  0.00    +0.000 A 
ATOM      3  C   UNL     1      28.197  22.982  26.433  0.00  0.00    +0.000 A 
ATOM      4  C   UNL     1      29.569  23.085  26.536  0.00  0.00    +0.000 A 
ATOM      5  O   UNL     1      30.233  23.333  25.442  0.00  0.00    +0.000 OA
ATOM      6  C   UNL     1      29.682  23.490  24.264  0.00  0.00    +0.000 A 
ATOM      7  O   UNL     1      30.400  23.727  23.270  0.00  0.00    +0.000 OA
ATOM      8  C   UNL     1      28.321  23.402  24.088  0.00  0.00    +0.000 A 
ATOM      9  C   UNL     1      27.694  23.558  22.872  0.00  0.00    +0.000 A 
ATOM     10  C   UNL     1      26.333  23.455  22.776  0.00  0.00    +0.000 A 
ATOM     11  C   UNL     1      25.577  23.194  23.897  0.00  0.00    +0.000 A 
ATOM     12  C   UNL     1      26.196  23.038  25.108  0.00  0.00    +0.000 A 
ATOM     13  C   UNL     1      27.556  23.140  25.205  0.00  0.00    +0.000 A 
ATOM     14  C   UNL     1      30.186  22.926  27.759  0.00  0.00    +0.000 A 
ATOM     15  C   UNL     1      31.668  23.043  27.830  0.00  0.00    +0.000 C 
ATOM     16  C   UNL     1      29.432  22.658  28.910  0.00  0.00    +0.000 A 
ATOM     17  O   UNL     1      30.133  22.511  30.102  0.00  0.00    +0.000 OA
ENDROOT
BRANCH   1  18
ATOM     18  C   UNL     1      27.269  22.280  30.018  0.00  0.00    +0.000 C 
BRANCH  18  20
ATOM     19  C   UNL     1      26.472  24.439  30.827  0.00  0.00    +0.000 C 
ATOM     20  C   UNL     1      26.171  23.288  30.194  0.00  0.00    +0.000 C 
ENDBRANCH  18  20
ENDBRANCH   1  18
TORSDOF 2
ENDMDL
MODEL 4
REMARK VINA RESULT:      -6.6     21.297     23.253
REMARK  Name = 
REMARK  2 active torsions:
REMARK  status: ('A' for Active; 'I' for Inactive)
REMARK    1  A    between atoms: C_2  and  C_3
REMARK    2  A    between atoms: C_3  and  C_4
REMARK                            x       y       z     vdW  Elec       q    Type
REMARK                         _______ _______ _______ _____ _____    ______ ____
ROOT
ATOM      1  C   UNL     1      18.435  -8.306  27.176  0.00  0.00    +0.000 A 
ATOM      2  C   UNL     1      19.581  -8.918  26.708  0.00  0.00    +0.000 A 
ATOM      3  C   UNL     1      20.557  -8.212  26.030  0.00  0.00    +0.000 A 
ATOM      4  C   UNL     1      20.375  -6.861  25.820  0.00  0.00    +0.000 A 
ATOM      5  O   UNL     1      21.314  -6.225  25.178  0.00  0.00    +0.000 OA
ATOM      6  C   UNL     1      22.408  -6.786  24.726  0.00  0.00    +0.000 A 
ATOM      7  O   UNL     1      23.255  -6.095  24.121  0.00  0.00    +0.000 OA
ATOM      8  C   UNL     1      22.655  -8.127  24.899  0.00  0.00    +0.000 A 
ATOM      9  C   UNL     1      23.788  -8.763  24.444  0.00  0.00    +0.000 A 
ATOM     10  C   UNL     1      23.964 -10.104  24.656  0.00  0.00    +0.000 A 
ATOM     11  C   UNL     1      23.005 -10.830  25.328  0.00  0.00    +0.000 A 
ATOM     12  C   UNL     1      21.876 -10.202  25.783  0.00  0.00    +0.000 A 
ATOM     13  C   UNL     1      21.701  -8.862  25.571  0.00  0.00    +0.000 A 
ATOM     14  C   UNL     1      19.236  -6.235  26.281  0.00  0.00    +0.000 A 
ATOM     15  C   UNL     1      19.076  -4.775  26.035  0.00  0.00    +0.000 C 
ATOM     16  C   UNL     1      18.251  -6.959  26.968  0.00  0.00    +0.000 A 
ATOM     17  O   UNL     1      17.135  -6.250  27.399  0.00  0.00    +0.000 OA
ENDROOT
BRANCH   1  18
ATOM     18  C   UNL     1      17.395  -9.069  27.895  0.00  0.00    +0.000 C 
BRANCH  18  20
ATOM     19  C   UNL     1      18.398  -9.502  30.076  0.00  0.00    +0.000 C 
ATOM     20  C   UNL     1      18.000 -10.012  28.894  0.00  0.00    +0.000 C 
ENDBRANCH  18  20
ENDBRANCH   1  18
TORSDOF 2
ENDMDL
MODEL 5
REMARK VINA RESULT:      -6.5     22.166     23.901
REMARK  Name = 
REMARK  2 active torsions:
REMARK  status: ('A' for Active; 'I' for Inactive)
REMARK    1  A    between atoms: C_2  and  C_3
REMARK    2  A    between atoms: C_3  and  C_4
REMARK                            x       y       z     vdW  Elec       q    Type
REMARK                         _______ _______ _______ _____ _____    ______ ____
ROOT
ATOM      1  C   UNL     1      22.931  -8.027  23.824  0.00  0.00    +0.000 A 
ATOM      2  C   UNL     1      21.935  -7.317  24.464  0.00  0.00    +0.000 A 
ATOM      3  C   UNL     1      21.053  -7.925  25.336  0.00  0.00    +0.000 A 
ATOM      4  C   UNL     1      21.176  -9.280  25.568  0.00  0.00    +0.000 A 
ATOM      5  O   UNL     1      20.328  -9.823  26.395  0.00  0.00    +0.000 OA
ATOM      6  C   UNL     1      19.377  -9.167  27.013  0.00  0.00    +0.000 A 
ATOM      7  O   UNL     1      18.610  -9.774  27.790  0.00  0.00    +0.000 OA
ATOM      8  C   UNL     1      19.196  -7.817  26.829  0.00  0.00    +0.000 A 
ATOM      9  C   UNL     1      18.213  -7.082  27.454  0.00  0.00    +0.000 A 
ATOM     10  C   UNL     1      18.096  -5.739  27.221  0.00  0.00    +0.000 A 
ATOM     11  C   UNL     1      18.963  -5.109  26.356  0.00  0.00    +0.000 A 
ATOM     12  C   UNL     1      19.942  -5.835  25.731  0.00  0.00    +0.000 A 
ATOM     13  C   UNL     1      20.059  -7.177  25.965  0.00  0.00    +0.000 A 
ATOM     14  C   UNL     1      22.164 -10.004  24.936  0.00  0.00    +0.000 A 
ATOM     15  C   UNL     1      22.265 -11.464  25.212  0.00  0.00    +0.000 C 
ATOM     16  C   UNL     1      23.056  -9.378  24.053  0.00  0.00    +0.000 A 
ATOM     17  O   UNL     1      24.023 -10.182  23.459  0.00  0.00    +0.000 OA
ENDROOT
BRANCH   1  18
ATOM     18  C   UNL     1      23.867  -7.369  22.889  0.00  0.00    +0.000 C 
BRANCH  18  20
ATOM     19  C   UNL     1      26.280  -7.486  23.223  0.00  0.00    +0.000 C 
ATOM     20  C   UNL     1      25.115  -6.920  23.592  0.00  0.00    +0.000 C 
ENDBRANCH  18  20
ENDBRANCH   1  18
TORSDOF 2
ENDMDL
MODEL 6
REMARK VINA RESULT:      -6.5     19.251     22.144
REMARK  Name = 
REMARK  2 active torsions:
REMARK  status: ('A' for Active; 'I' for Inactive)
REMARK    1  A    between atoms: C_2  and  C_3
REMARK    2  A    between atoms: C_3  and  C_4
REMARK                            x       y       z     vdW  Elec       q    Type
REMARK                         _______ _______ _______ _____ _____    ______ ____
ROOT
ATOM      1  C   UNL     1      30.093  22.805  25.419  0.00  0.00    +0.000 A 
ATOM      2  C   UNL     1      30.294  22.735  26.783  0.00  0.00    +0.000 A 
ATOM      3  C   UNL     1      29.238  22.728  27.674  0.00  0.00    +0.000 A 
ATOM      4  C   UNL     1      27.951  22.793  27.181  0.00  0.00    +0.000 A 
ATOM      5  O   UNL     1      26.979  22.784  28.048  0.00  0.00    +0.000 OA
ATOM      6  C   UNL     1      27.148  22.717  29.346  0.00  0.00    +0.000 A 
ATOM      7  O   UNL     1      26.153  22.713  30.101  0.00  0.00    +0.000 OA
ATOM      8  C   UNL     1      28.401  22.650  29.907  0.00  0.00    +0.000 A 
ATOM      9  C   UNL     1      28.632  22.578  31.262  0.00  0.00    +0.000 A 
ATOM     10  C   UNL     1      29.911  22.513  31.746  0.00  0.00    +0.000 A 
ATOM     11  C   UNL     1      30.980  22.520  30.878  0.00  0.00    +0.000 A 
ATOM     12  C   UNL     1      30.756  22.591  29.529  0.00  0.00    +0.000 A 
ATOM     13  C   UNL     1      29.478  22.656  29.046  0.00  0.00    +0.000 A 
ATOM     14  C   UNL     1      27.733  22.864  25.822  0.00  0.00    +0.000 A 
ATOM     15  C   UNL     1      26.330  22.933  25.328  0.00  0.00    +0.000 C 
ATOM     16  C   UNL     1      28.810  22.870  24.924  0.00  0.00    +0.000 A 
ATOM     17  O   UNL     1      28.502  22.944  23.570  0.00  0.00    +0.000 OA
ENDROOT
BRANCH   1  18
ATOM     18  C   UNL     1      31.227  22.818  24.473  0.00  0.00    +0.000 C 
BRANCH  18  20
ATOM     19  C   UNL     1      33.208  24.201  24.813  0.00  0.00    +0.000 C 
ATOM     20  C   UNL     1      31.910  24.155  24.456  0.00  0.00    +0.000 C 
ENDBRANCH  18  20
ENDBRANCH   1  18
TORSDOF 2
ENDMDL
MODEL 7
REMARK VINA RESULT:      -6.4     20.670     22.977
REMARK  Name = 
REMARK  2 active torsions:
REMARK  status: ('A' for Active; 'I' for Inactive)
REMARK    1  A    between atoms: C_2  and  C_3
REMARK    2  A    between atoms: C_3  and  C_4
REMARK                            x       y       z     vdW  Elec       q    Type
REMARK                         _______ _______ _______ _____ _____    ______ ____
ROOT
ATOM      1  C   UNL     1      33.751  -4.636  33.232  0.00  0.00    +0.000 A 
ATOM      2  C   UNL     1      33.825  -3.265  33.094  0.00  0.00    +0.000 A 
ATOM      3  C   UNL     1      33.538  -2.412  34.143  0.00  0.00    +0.000 A 
ATOM      4  C   UNL     1      33.169  -2.953  35.358  0.00  0.00    +0.000 A 
ATOM      5  O   UNL     1      32.906  -2.121  36.326  0.00  0.00    +0.000 OA
ATOM      6  C   UNL     1      32.971  -0.817  36.217  0.00  0.00    +0.000 A 
ATOM      7  O   UNL     1      32.700  -0.099  37.202  0.00  0.00    +0.000 OA
ATOM      8  C   UNL     1      33.331  -0.210  35.038  0.00  0.00    +0.000 A 
ATOM      9  C   UNL     1      33.414   1.154  34.871  0.00  0.00    +0.000 A 
ATOM     10  C   UNL     1      33.782   1.685  33.665  0.00  0.00    +0.000 A 
ATOM     11  C   UNL     1      34.072   0.857  32.603  0.00  0.00    +0.000 A 
ATOM     12  C   UNL     1      33.991  -0.501  32.763  0.00  0.00    +0.000 A 
ATOM     13  C   UNL     1      33.624  -1.031  33.969  0.00  0.00    +0.000 A 
ATOM     14  C   UNL     1      33.090  -4.321  35.511  0.00  0.00    +0.000 A 
ATOM     15  C   UNL     1      32.688  -4.867  36.837  0.00  0.00    +0.000 C 
ATOM     16  C   UNL     1      33.383  -5.179  34.441  0.00  0.00    +0.000 A 
ATOM     17  O   UNL     1      33.279  -6.544  34.682  0.00  0.00    +0.000 OA
ENDROOT
BRANCH   1  18
ATOM     18  C   UNL     1      34.054  -5.540  32.103  0.00  0.00    +0.000 C 
BRANCH  18  20
ATOM     19  C   UNL     1      33.828  -5.435  29.677  0.00  0.00    +0.000 C 
ATOM     20  C   UNL     1      33.278  -5.160  30.875  0.00  0.00    +0.000 C 
ENDBRANCH  18  20
ENDBRANCH   1  18
TORSDOF 2
ENDMDL
MODEL 8
REMARK VINA RESULT:      -6.4     19.422     20.524
REMARK  Name = 
REMARK  2 active torsions:
REMARK  status: ('A' for Active; 'I' for Inactive)
REMARK    1  A    between atoms: C_2  and  C_3
REMARK    2  A    between atoms: C_3  and  C_4
REMARK                            x       y       z     vdW  Elec       q    Type
REMARK                         _______ _______ _______ _____ _____    ______ ____
ROOT
ATOM      1  C   UNL     1      33.860   0.011  37.401  0.00  0.00    +0.000 A 
ATOM      2  C   UNL     1      33.877   1.366  37.142  0.00  0.00    +0.000 A 
ATOM      3  C   UNL     1      33.829   1.862  35.853  0.00  0.00    +0.000 A 
ATOM      4  C   UNL     1      33.761   0.972  34.801  0.00  0.00    +0.000 A 
ATOM      5  O   UNL     1      33.717   1.472  33.599  0.00  0.00    +0.000 OA
ATOM      6  C   UNL     1      33.731   2.755  33.332  0.00  0.00    +0.000 A 
ATOM      7  O   UNL     1      33.685   3.142  32.145  0.00  0.00    +0.000 OA
ATOM      8  C   UNL     1      33.797   3.698  34.330  0.00  0.00    +0.000 A 
ATOM      9  C   UNL     1      33.815   5.055  34.103  0.00  0.00    +0.000 A 
ATOM     10  C   UNL     1      33.880   5.934  35.150  0.00  0.00    +0.000 A 
ATOM     11  C   UNL     1      33.930   5.465  36.444  0.00  0.00    +0.000 A 
ATOM     12  C   UNL     1      33.914   4.115  36.676  0.00  0.00    +0.000 A 
ATOM     13  C   UNL     1      33.847   3.238  35.629  0.00  0.00    +0.000 A 
ATOM     14  C   UNL     1      33.744  -0.385  35.042  0.00  0.00    +0.000 A 
ATOM     15  C   UNL     1      33.671  -1.314  33.881  0.00  0.00    +0.000 C 
ATOM     16  C   UNL     1      33.793  -0.880  36.354  0.00  0.00    +0.000 A 
ATOM     17  O   UNL     1      33.771  -2.261  36.507  0.00  0.00    +0.000 OA
ENDROOT
BRANCH   1  18
ATOM     18  C   UNL     1      33.917  -0.510  38.782  0.00  0.00    +0.000 C 
BRANCH  18  20
ATOM     19  C   UNL     1      31.981  -0.041  40.189  0.00  0.00    +0.000 C 
ATOM     20  C   UNL     1      33.176   0.383  39.734  0.00  0.00    +0.000 C 
ENDBRANCH  18  20
ENDBRANCH   1  18
TORSDOF 2
ENDMDL
MODEL 9
REMARK VINA RESULT:      -6.4     21.062     24.277
REMARK  Name = 
REMARK  2 active torsions:
REMARK  status: ('A' for Active; 'I' for Inactive)
REMARK    1  A    between atoms: C_2  and  C_3
REMARK    2  A    between atoms: C_3  and  C_4
REMARK                            x       y       z     vdW  Elec       q    Type
REMARK                         _______ _______ _______ _____ _____    ______ ____
ROOT
ATOM      1  C   UNL     1      28.845  24.312  22.405  0.00  0.00    +0.000 A 
ATOM      2  C   UNL     1      29.675  24.104  23.488  0.00  0.00    +0.000 A 
ATOM      3  C   UNL     1      29.211  23.547  24.665  0.00  0.00    +0.000 A 
ATOM      4  C   UNL     1      27.880  23.193  24.752  0.00  0.00    +0.000 A 
ATOM      5  O   UNL     1      27.474  22.671  25.875  0.00  0.00    +0.000 OA
ATOM      6  C   UNL     1      28.245  22.464  26.914  0.00  0.00    +0.000 A 
ATOM      7  O   UNL     1      27.766  21.957  27.950  0.00  0.00    +0.000 OA
ATOM      8  C   UNL     1      29.580  22.793  26.898  0.00  0.00    +0.000 A 
ATOM      9  C   UNL     1      30.432  22.596  27.961  0.00  0.00    +0.000 A 
ATOM     10  C   UNL     1      31.751  22.949  27.869  0.00  0.00    +0.000 A 
ATOM     11  C   UNL     1      32.238  23.506  26.708  0.00  0.00    +0.000 A 
ATOM     12  C   UNL     1      31.395  23.704  25.646  0.00  0.00    +0.000 A 
ATOM     13  C   UNL     1      30.078  23.351  25.739  0.00  0.00    +0.000 A 
ATOM     14  C   UNL     1      27.038  23.395  23.680  0.00  0.00    +0.000 A 
ATOM     15  C   UNL     1      25.608  22.999  23.812  0.00  0.00    +0.000 C 
ATOM     16  C   UNL     1      27.518  23.959  22.489  0.00  0.00    +0.000 A 
ATOM     17  O   UNL     1      26.601  24.127  21.457  0.00  0.00    +0.000 OA
ENDROOT
BRANCH   1  18
ATOM     18  C   UNL     1      29.350  24.912  21.153  0.00  0.00    +0.000 C 
BRANCH  18  20
ATOM     19  C   UNL     1      29.627  27.093  20.096  0.00  0.00    +0.000 C 
ATOM     20  C   UNL     1      29.334  26.412  21.221  0.00  0.00    +0.000 C 
ENDBRANCH  18  20
ENDBRANCH   1  18
TORSDOF 2
ENDMDL
MODEL 10
REMARK VINA RESULT:      -6.4     21.813     23.478
REMARK  Name = 
REMARK  2 active torsions:
REMARK  status: ('A' for Active; 'I' for Inactive)
REMARK    1  A    between atoms: C_2  and  C_3
REMARK    2  A    between atoms: C_3  and  C_4
REMARK                            x       y       z     vdW  Elec       q    Type
REMARK                         _______ _______ _______ _____ _____    ______ ____
ROOT
ATOM      1  C   UNL     1      22.988  -9.720  25.265  0.00  0.00    +0.000 A 
ATOM      2  C   UNL     1      21.757  -9.552  25.865  0.00  0.00    +0.000 A 
ATOM      3  C   UNL     1      21.101  -8.335  25.852  0.00  0.00    +0.000 A 
ATOM      4  C   UNL     1      21.701  -7.264  25.222  0.00  0.00    +0.000 A 
ATOM      5  O   UNL     1      21.056  -6.132  25.229  0.00  0.00    +0.000 OA
ATOM      6  C   UNL     1      19.887  -5.951  25.791  0.00  0.00    +0.000 A 
ATOM      7  O   UNL     1      19.344  -4.827  25.746  0.00  0.00    +0.000 OA
ATOM      8  C   UNL     1      19.232  -6.973  26.436  0.00  0.00    +0.000 A 
ATOM      9  C   UNL     1      18.003  -6.836  27.041  0.00  0.00    +0.000 A 
ATOM     10  C   UNL     1      17.413  -7.902  27.663  0.00  0.00    +0.000 A 
ATOM     11  C   UNL     1      18.045  -9.125  27.691  0.00  0.00    +0.000 A 
ATOM     12  C   UNL     1      19.268  -9.267  27.090  0.00  0.00    +0.000 A 
ATOM     13  C   UNL     1      19.857  -8.202  26.467  0.00  0.00    +0.000 A 
ATOM     14  C   UNL     1      22.932  -7.415  24.620  0.00  0.00    +0.000 A 
ATOM     15  C   UNL     1      23.546  -6.236  23.950  0.00  0.00    +0.000 C 
ATOM     16  C   UNL     1      23.589  -8.654  24.636  0.00  0.00    +0.000 A 
ATOM     17  O   UNL     1      24.826  -8.719  24.004  0.00  0.00    +0.000 OA
ENDROOT
BRANCH   1  18
ATOM     18  C   UNL     1      23.684 -11.023  25.288  0.00  0.00    +0.000 C 
BRANCH  18  20
ATOM     19  C   UNL     1      25.758 -11.375  26.523  0.00  0.00    +0.000 C 
ATOM     20  C   UNL     1      24.420 -11.227  26.580  0.00  0.00    +0.000 C 
ENDBRANCH  18  20
ENDBRANCH   1  18
TORSDOF 2
ENDMDL
