MODEL 1
REMARK VINA RESULT:      -6.1      0.000      0.000
REMARK  Name = 
REMARK  3 active torsions:
REMARK  status: ('A' for Active; 'I' for Inactive)
REMARK    1  A    between atoms: C_7  and  N_8
REMARK    2  A    between atoms: N_8  and  C_9
REMARK    3  A    between atoms: C_13  and  C_14
REMARK                            x       y       z     vdW  Elec       q    Type
REMARK                         _______ _______ _______ _____ _____    ______ ____
ROOT
ATOM      1  C   UNL     1      24.348  26.013  28.390  0.00  0.00    +0.000 C 
ATOM      2  C   UNL     1      25.437  25.047  28.564  0.00  0.00    +0.000 A 
ATOM      3  C   UNL     1      25.657  24.519  29.775  0.00  0.00    +0.000 A 
ATOM      4  C   UNL     1      26.688  23.591  29.966  0.00  0.00    +0.000 A 
ATOM      5  C   UNL     1      27.438  23.253  28.876  0.00  0.00    +0.000 A 
ATOM      6  N   UNL     1      27.168  23.829  27.629  0.00  0.00    +0.000 N 
ATOM      7  C   UNL     1      27.792  23.673  26.443  0.00  0.00    +0.000 A 
ATOM      8  C   UNL     1      27.209  24.464  25.507  0.00  0.00    +0.000 A 
ATOM      9  N   UNL     1      26.201  25.105  26.146  0.00  0.00    +0.000 NA
ATOM     10  C   UNL     1      26.203  24.696  27.472  0.00  0.00    +0.000 A 
ENDROOT
BRANCH   8  11
ATOM     11  C   UNL     1      27.518  24.562  24.081  0.00  0.00    +0.000 A 
ATOM     12  C   UNL     1      28.474  25.543  23.755  0.00  0.00    +0.000 A 
ATOM     13  C   UNL     1      28.853  25.923  22.455  0.00  0.00    +0.000 A 
ATOM     14  C   UNL     1      28.164  25.208  21.444  0.00  0.00    +0.000 A 
ATOM     15  C   UNL     1      27.249  24.259  21.739  0.00  0.00    +0.000 A 
ATOM     16  C   UNL     1      26.930  23.946  23.046  0.00  0.00    +0.000 A 
ATOM     17  O   UNL     1      25.991  22.974  23.267  0.00  0.00    +0.000 OA
ENDBRANCH   8  11
BRANCH   7  18
ATOM     18  N   UNL     1      28.768  22.724  26.099  0.00  0.00    +0.000 NA
BRANCH  18  19
ATOM     19  C   UNL     1      30.177  22.818  26.078  0.00  0.00    +0.000 C 
ATOM     20  C   UNL     1      30.854  22.654  24.759  0.00  0.00    +0.000 C 
ATOM     21  C   UNL     1      30.730  21.905  27.164  0.00  0.00    +0.000 C 
ATOM     22  C   UNL     1      30.488  24.249  26.614  0.00  0.00    +0.000 C 
ENDBRANCH  18  19
ENDBRANCH   7  18
TORSDOF 3
ENDMDL
MODEL 2
REMARK VINA RESULT:      -6.0      2.126      5.709
REMARK  Name = 
REMARK  3 active torsions:
REMARK  status: ('A' for Active; 'I' for Inactive)
REMARK    1  A    between atoms: C_7  and  N_8
REMARK    2  A    between atoms: N_8  and  C_9
REMARK    3  A    between atoms: C_13  and  C_14
REMARK                            x       y       z     vdW  Elec       q    Type
REMARK                         _______ _______ _______ _____ _____    ______ ____
ROOT
ATOM      1  C   UNL     1      28.591  23.924  22.015  0.00  0.00    +0.000 C 
ATOM      2  C   UNL     1      27.710  23.588  23.138  0.00  0.00    +0.000 A 
ATOM      3  C   UNL     1      26.394  23.459  22.921  0.00  0.00    +0.000 A 
ATOM      4  C   UNL     1      25.532  23.135  23.977  0.00  0.00    +0.000 A 
ATOM      5  C   UNL     1      26.090  22.954  25.210  0.00  0.00    +0.000 A 
ATOM      6  N   UNL     1      27.471  23.095  25.386  0.00  0.00    +0.000 N 
ATOM      7  C   UNL     1      28.222  23.000  26.503  0.00  0.00    +0.000 A 
ATOM      8  C   UNL     1      29.522  23.255  26.209  0.00  0.00    +0.000 A 
ATOM      9  N   UNL     1      29.554  23.501  24.876  0.00  0.00    +0.000 NA
ATOM     10  C   UNL     1      28.258  23.402  24.390  0.00  0.00    +0.000 A 
ENDROOT
BRANCH   8  11
ATOM     11  C   UNL     1      30.682  23.197  27.096  0.00  0.00    +0.000 A 
ATOM     12  C   UNL     1      30.969  21.916  27.603  0.00  0.00    +0.000 A 
ATOM     13  C   UNL     1      31.947  21.611  28.567  0.00  0.00    +0.000 A 
ATOM     14  C   UNL     1      32.658  22.752  29.016  0.00  0.00    +0.000 A 
ATOM     15  C   UNL     1      32.401  23.987  28.537  0.00  0.00    +0.000 A 
ATOM     16  C   UNL     1      31.419  24.204  27.589  0.00  0.00    +0.000 A 
ATOM     17  O   UNL     1      31.214  25.484  27.151  0.00  0.00    +0.000 OA
ENDBRANCH   8  11
BRANCH   7  18
ATOM     18  N   UNL     1      27.833  22.528  27.767  0.00  0.00    +0.000 NA
BRANCH  18  19
ATOM     19  C   UNL     1      27.217  23.194  28.849  0.00  0.00    +0.000 C 
ATOM     20  C   UNL     1      25.964  23.950  28.563  0.00  0.00    +0.000 C 
ATOM     21  C   UNL     1      28.277  24.021  29.563  0.00  0.00    +0.000 C 
ATOM     22  C   UNL     1      26.886  22.066  29.874  0.00  0.00    +0.000 C 
ENDBRANCH  18  19
ENDBRANCH   7  18
TORSDOF 3
ENDMDL
MODEL 3
REMARK VINA RESULT:      -5.9      2.643      4.690
REMARK  Name = 
REMARK  3 active torsions:
REMARK  status: ('A' for Active; 'I' for Inactive)
REMARK    1  A    between atoms: C_7  and  N_8
REMARK    2  A    between atoms: N_8  and  C_9
REMARK    3  A    between atoms: C_13  and  C_14
REMARK                            x       y       z     vdW  Elec       q    Type
REMARK                         _______ _______ _______ _____ _____    ______ ____
ROOT
ATOM      1  C   UNL     1      26.887  23.878  21.798  0.00  0.00    +0.000 C 
ATOM      2  C   UNL     1      26.857  23.745  23.258  0.00  0.00    +0.000 A 
ATOM      3  C   UNL     1      25.733  23.326  23.854  0.00  0.00    +0.000 A 
ATOM      4  C   UNL     1      25.682  23.187  25.246  0.00  0.00    +0.000 A 
ATOM      5  C   UNL     1      26.813  23.487  25.950  0.00  0.00    +0.000 A 
ATOM      6  N   UNL     1      27.964  23.917  25.282  0.00  0.00    +0.000 N 
ATOM      7  C   UNL     1      29.164  24.297  25.769  0.00  0.00    +0.000 A 
ATOM      8  C   UNL     1      29.977  24.677  24.750  0.00  0.00    +0.000 A 
ATOM      9  N   UNL     1      29.248  24.513  23.619  0.00  0.00    +0.000 NA
ATOM     10  C   UNL     1      27.992  24.044  23.982  0.00  0.00    +0.000 A 
ENDROOT
BRANCH   8  11
ATOM     11  C   UNL     1      31.376  25.095  24.812  0.00  0.00    +0.000 A 
ATOM     12  C   UNL     1      32.305  24.080  24.519  0.00  0.00    +0.000 A 
ATOM     13  C   UNL     1      33.703  24.185  24.629  0.00  0.00    +0.000 A 
ATOM     14  C   UNL     1      34.130  25.458  25.082  0.00  0.00    +0.000 A 
ATOM     15  C   UNL     1      33.253  26.447  25.362  0.00  0.00    +0.000 A 
ATOM     16  C   UNL     1      31.891  26.262  25.230  0.00  0.00    +0.000 A 
ATOM     17  O   UNL     1      31.063  27.309  25.533  0.00  0.00    +0.000 OA
ENDBRANCH   8  11
BRANCH   7  18
ATOM     18  N   UNL     1      29.644  24.166  27.081  0.00  0.00    +0.000 NA
BRANCH  18  19
ATOM     19  C   UNL     1      30.359  23.116  27.699  0.00  0.00    +0.000 C 
ATOM     20  C   UNL     1      31.771  23.390  28.094  0.00  0.00    +0.000 C 
ATOM     21  C   UNL     1      30.197  21.865  26.847  0.00  0.00    +0.000 C 
ATOM     22  C   UNL     1      29.546  22.785  28.988  0.00  0.00    +0.000 C 
ENDBRANCH  18  19
ENDBRANCH   7  18
TORSDOF 3
ENDMDL
MODEL 4
REMARK VINA RESULT:      -5.8     16.194     18.192
REMARK  Name = 
REMARK  3 active torsions:
REMARK  status: ('A' for Active; 'I' for Inactive)
REMARK    1  A    between atoms: C_7  and  N_8
REMARK    2  A    between atoms: N_8  and  C_9
REMARK    3  A    between atoms: C_13  and  C_14
REMARK                            x       y       z     vdW  Elec       q    Type
REMARK                         _______ _______ _______ _____ _____    ______ ____
ROOT
ATOM      1  C   UNL     1       9.823  26.125  16.818  0.00  0.00    +0.000 C 
ATOM      2  C   UNL     1       9.225  25.169  17.755  0.00  0.00    +0.000 A 
ATOM      3  C   UNL     1       7.916  24.895  17.664  0.00  0.00    +0.000 A 
ATOM      4  C   UNL     1       7.323  23.983  18.546  0.00  0.00    +0.000 A 
ATOM      5  C   UNL     1       8.129  23.395  19.478  0.00  0.00    +0.000 A 
ATOM      6  N   UNL     1       9.491  23.711  19.531  0.00  0.00    +0.000 N 
ATOM      7  C   UNL     1      10.452  23.286  20.378  0.00  0.00    +0.000 A 
ATOM      8  C   UNL     1      11.630  23.891  20.080  0.00  0.00    +0.000 A 
ATOM      9  N   UNL     1      11.372  24.694  19.019  0.00  0.00    +0.000 NA
ATOM     10  C   UNL     1      10.026  24.567  18.702  0.00  0.00    +0.000 A 
ENDROOT
BRANCH   8  11
ATOM     11  C   UNL     1      12.940  23.679  20.693  0.00  0.00    +0.000 A 
ATOM     12  C   UNL     1      13.635  22.551  20.216  0.00  0.00    +0.000 A 
ATOM     13  C   UNL     1      14.849  22.056  20.724  0.00  0.00    +0.000 A 
ATOM     14  C   UNL     1      15.348  22.817  21.811  0.00  0.00    +0.000 A 
ATOM     15  C   UNL     1      14.699  23.906  22.277  0.00  0.00    +0.000 A 
ATOM     16  C   UNL     1      13.505  24.327  21.723  0.00  0.00    +0.000 A 
ATOM     17  O   UNL     1      12.904  25.438  22.249  0.00  0.00    +0.000 OA
ENDBRANCH   8  11
BRANCH   7  18
ATOM     18  N   UNL     1      10.377  22.245  21.317  0.00  0.00    +0.000 NA
BRANCH  18  19
ATOM     19  C   UNL     1      10.155  20.861  21.141  0.00  0.00    +0.000 C 
ATOM     20  C   UNL     1      10.204  20.332  19.748  0.00  0.00    +0.000 C 
ATOM     21  C   UNL     1       8.885  20.486  21.891  0.00  0.00    +0.000 C 
ATOM     22  C   UNL     1      11.283  20.170  21.968  0.00  0.00    +0.000 C 
ENDBRANCH  18  19
ENDBRANCH   7  18
TORSDOF 3
ENDMDL
MODEL 5
REMARK VINA RESULT:      -5.7      1.478      2.146
REMARK  Name = 
REMARK  3 active torsions:
REMARK  status: ('A' for Active; 'I' for Inactive)
REMARK    1  A    between atoms: C_7  and  N_8
REMARK    2  A    between atoms: N_8  and  C_9
REMARK    3  A    between atoms: C_13  and  C_14
REMARK                            x       y       z     vdW  Elec       q    Type
REMARK                         _______ _______ _______ _____ _____    ______ ____
ROOT
ATOM      1  C   UNL     1      22.957  26.551  25.478  0.00  0.00    +0.000 C 
ATOM      2  C   UNL     1      24.052  26.129  26.358  0.00  0.00    +0.000 A 
ATOM      3  C   UNL     1      23.837  26.049  27.677  0.00  0.00    +0.000 A 
ATOM      4  C   UNL     1      24.866  25.645  28.537  0.00  0.00    +0.000 A 
ATOM      5  C   UNL     1      26.071  25.336  27.974  0.00  0.00    +0.000 A 
ATOM      6  N   UNL     1      26.245  25.430  26.589  0.00  0.00    +0.000 N 
ATOM      7  C   UNL     1      27.341  25.214  25.831  0.00  0.00    +0.000 A 
ATOM      8  C   UNL     1      27.058  25.467  24.528  0.00  0.00    +0.000 A 
ATOM      9  N   UNL     1      25.755  25.838  24.501  0.00  0.00    +0.000 NA
ATOM     10  C   UNL     1      25.274  25.813  25.803  0.00  0.00    +0.000 A 
ENDROOT
BRANCH   8  11
ATOM     11  C   UNL     1      27.925  25.301  23.362  0.00  0.00    +0.000 A 
ATOM     12  C   UNL     1      28.502  26.493  22.887  0.00  0.00    +0.000 A 
ATOM     13  C   UNL     1      29.268  26.626  21.715  0.00  0.00    +0.000 A 
ATOM     14  C   UNL     1      29.422  25.407  21.009  0.00  0.00    +0.000 A 
ATOM     15  C   UNL     1      28.881  24.252  21.454  0.00  0.00    +0.000 A 
ATOM     16  C   UNL     1      28.137  24.205  22.618  0.00  0.00    +0.000 A 
ATOM     17  O   UNL     1      27.618  23.000  23.005  0.00  0.00    +0.000 OA
ENDBRANCH   8  11
BRANCH   7  18
ATOM     18  N   UNL     1      28.558  24.632  26.219  0.00  0.00    +0.000 NA
BRANCH  18  19
ATOM     19  C   UNL     1      28.872  23.300  26.568  0.00  0.00    +0.000 C 
ATOM     20  C   UNL     1      27.796  22.280  26.410  0.00  0.00    +0.000 C 
ATOM     21  C   UNL     1      29.504  23.308  27.953  0.00  0.00    +0.000 C 
ATOM     22  C   UNL     1      30.056  22.912  25.631  0.00  0.00    +0.000 C 
ENDBRANCH  18  19
ENDBRANCH   7  18
TORSDOF 3
ENDMDL
MODEL 6
REMARK VINA RESULT:      -5.6     34.096     35.219
REMARK  Name = 
REMARK  3 active torsions:
REMARK  status: ('A' for Active; 'I' for Inactive)
REMARK    1  A    between atoms: C_7  and  N_8
REMARK    2  A    between atoms: N_8  and  C_9
REMARK    3  A    between atoms: C_13  and  C_14
REMARK                            x       y       z     vdW  Elec       q    Type
REMARK                         _______ _______ _______ _____ _____    ______ ____
ROOT
ATOM      1  C   UNL     1      17.352 -10.421  31.701  0.00  0.00    +0.000 C 
ATOM      2  C   UNL     1      16.757 -10.908  30.452  0.00  0.00    +0.000 A 
ATOM      3  C   UNL     1      15.939 -11.968  30.487  0.00  0.00    +0.000 A 
ATOM      4  C   UNL     1      15.355 -12.449  29.308  0.00  0.00    +0.000 A 
ATOM      5  C   UNL     1      15.649 -11.792  28.148  0.00  0.00    +0.000 A 
ATOM      6  N   UNL     1      16.506 -10.686  28.163  0.00  0.00    +0.000 N 
ATOM      7  C   UNL     1      16.959  -9.920  27.148  0.00  0.00    +0.000 A 
ATOM      8  C   UNL     1      17.809  -8.975  27.626  0.00  0.00    +0.000 A 
ATOM      9  N   UNL     1      17.862  -9.175  28.966  0.00  0.00    +0.000 NA
ATOM     10  C   UNL     1      17.045 -10.254  29.272  0.00  0.00    +0.000 A 
ENDROOT
BRANCH   8  11
ATOM     11  C   UNL     1      18.475  -7.899  26.894  0.00  0.00    +0.000 A 
ATOM     12  C   UNL     1      19.732  -8.243  26.363  0.00  0.00    +0.000 A 
ATOM     13  C   UNL     1      20.627  -7.362  25.730  0.00  0.00    +0.000 A 
ATOM     14  C   UNL     1      20.144  -6.031  25.663  0.00  0.00    +0.000 A 
ATOM     15  C   UNL     1      18.937  -5.685  26.162  0.00  0.00    +0.000 A 
ATOM     16  C   UNL     1      18.116  -6.613  26.774  0.00  0.00    +0.000 A 
ATOM     17  O   UNL     1      16.908  -6.188  27.257  0.00  0.00    +0.000 OA
ENDBRANCH   8  11
BRANCH   7  18
ATOM     18  N   UNL     1      16.521  -9.907  25.815  0.00  0.00    +0.000 NA
BRANCH  18  19
ATOM     19  C   UNL     1      15.264  -9.579  25.261  0.00  0.00    +0.000 C 
ATOM     20  C   UNL     1      14.422  -8.601  26.008  0.00  0.00    +0.000 C 
ATOM     21  C   UNL     1      14.539 -10.876  24.927  0.00  0.00    +0.000 C 
ATOM     22  C   UNL     1      15.591  -8.975  23.861  0.00  0.00    +0.000 C 
ENDBRANCH  18  19
ENDBRANCH   7  18
TORSDOF 3
ENDMDL
MODEL 7
REMARK VINA RESULT:      -5.4      1.585      3.857
REMARK  Name = 
REMARK  3 active torsions:
REMARK  status: ('A' for Active; 'I' for Inactive)
REMARK    1  A    between atoms: C_7  and  N_8
REMARK    2  A    between atoms: N_8  and  C_9
REMARK    3  A    between atoms: C_13  and  C_14
REMARK                            x       y       z     vdW  Elec       q    Type
REMARK                         _______ _______ _______ _____ _____    ______ ____
ROOT
ATOM      1  C   UNL     1      31.783  22.199  28.261  0.00  0.00    +0.000 C 
ATOM      2  C   UNL     1      30.444  22.763  28.456  0.00  0.00    +0.000 A 
ATOM      3  C   UNL     1      29.866  22.678  29.662  0.00  0.00    +0.000 A 
ATOM      4  C   UNL     1      28.590  23.212  29.873  0.00  0.00    +0.000 A 
ATOM      5  C   UNL     1      27.978  23.818  28.813  0.00  0.00    +0.000 A 
ATOM      6  N   UNL     1      28.623  23.885  27.573  0.00  0.00    +0.000 N 
ATOM      7  C   UNL     1      28.201  24.395  26.397  0.00  0.00    +0.000 A 
ATOM      8  C   UNL     1      29.148  24.205  25.444  0.00  0.00    +0.000 A 
ATOM      9  N   UNL     1      30.172  23.571  26.067  0.00  0.00    +0.000 NA
ATOM     10  C   UNL     1      29.814  23.378  27.394  0.00  0.00    +0.000 A 
ENDROOT
BRANCH   8  11
ATOM     11  C   UNL     1      29.140  24.653  24.053  0.00  0.00    +0.000 A 
ATOM     12  C   UNL     1      29.494  26.003  23.870  0.00  0.00    +0.000 A 
ATOM     13  C   UNL     1      29.444  26.711  22.656  0.00  0.00    +0.000 A 
ATOM     14  C   UNL     1      28.984  25.922  21.572  0.00  0.00    +0.000 A 
ATOM     15  C   UNL     1      28.646  24.623  21.727  0.00  0.00    +0.000 A 
ATOM     16  C   UNL     1      28.721  24.001  22.958  0.00  0.00    +0.000 A 
ATOM     17  O   UNL     1      28.360  22.683  23.039  0.00  0.00    +0.000 OA
ENDBRANCH   8  11
BRANCH   7  18
ATOM     18  N   UNL     1      27.065  25.184  26.157  0.00  0.00    +0.000 NA
BRANCH  18  19
ATOM     19  C   UNL     1      25.769  24.824  25.724  0.00  0.00    +0.000 C 
ATOM     20  C   UNL     1      25.602  23.475  25.112  0.00  0.00    +0.000 C 
ATOM     21  C   UNL     1      25.226  25.955  24.861  0.00  0.00    +0.000 C 
ATOM     22  C   UNL     1      24.887  24.893  27.008  0.00  0.00    +0.000 C 
ENDBRANCH  18  19
ENDBRANCH   7  18
TORSDOF 3
ENDMDL
MODEL 8
REMARK VINA RESULT:      -5.4     33.971     35.057
REMARK  Name = 
REMARK  3 active torsions:
REMARK  status: ('A' for Active; 'I' for Inactive)
REMARK    1  A    between atoms: C_7  and  N_8
REMARK    2  A    between atoms: N_8  and  C_9
REMARK    3  A    between atoms: C_13  and  C_14
REMARK                            x       y       z     vdW  Elec       q    Type
REMARK                         _______ _______ _______ _____ _____    ______ ____
ROOT
ATOM      1  C   UNL     1      13.622 -10.263  25.262  0.00  0.00    +0.000 C 
ATOM      2  C   UNL     1      14.374 -10.642  26.463  0.00  0.00    +0.000 A 
ATOM      3  C   UNL     1      13.928 -11.651  27.223  0.00  0.00    +0.000 A 
ATOM      4  C   UNL     1      14.630 -12.034  28.373  0.00  0.00    +0.000 A 
ATOM      5  C   UNL     1      15.772 -11.347  28.669  0.00  0.00    +0.000 A 
ATOM      6  N   UNL     1      16.200 -10.302  27.842  0.00  0.00    +0.000 N 
ATOM      7  C   UNL     1      17.260  -9.476  27.960  0.00  0.00    +0.000 A 
ATOM      8  C   UNL     1      17.262  -8.579  26.940  0.00  0.00    +0.000 A 
ATOM      9  N   UNL     1      16.179  -8.882  26.185  0.00  0.00    +0.000 NA
ATOM     10  C   UNL     1      15.529  -9.957  26.776  0.00  0.00    +0.000 A 
ENDROOT
BRANCH   8  11
ATOM     11  C   UNL     1      18.255  -7.550  26.638  0.00  0.00    +0.000 A 
ATOM     12  C   UNL     1      17.884  -6.248  27.021  0.00  0.00    +0.000 A 
ATOM     13  C   UNL     1      18.597  -5.070  26.735  0.00  0.00    +0.000 A 
ATOM     14  C   UNL     1      19.781  -5.304  25.991  0.00  0.00    +0.000 A 
ATOM     15  C   UNL     1      20.156  -6.548  25.621  0.00  0.00    +0.000 A 
ATOM     16  C   UNL     1      19.396  -7.656  25.940  0.00  0.00    +0.000 A 
ATOM     17  O   UNL     1      19.839  -8.884  25.530  0.00  0.00    +0.000 OA
ENDBRANCH   8  11
BRANCH   7  18
ATOM     18  N   UNL     1      18.341  -9.579  28.849  0.00  0.00    +0.000 NA
BRANCH  18  19
ATOM     19  C   UNL     1      19.412 -10.500  28.894  0.00  0.00    +0.000 C 
ATOM     20  C   UNL     1      20.787  -9.943  29.047  0.00  0.00    +0.000 C 
ATOM     21  C   UNL     1      19.268 -11.453  27.715  0.00  0.00    +0.000 C 
ATOM     22  C   UNL     1      19.108 -11.402  30.129  0.00  0.00    +0.000 C 
ENDBRANCH  18  19
ENDBRANCH   7  18
TORSDOF 3
ENDMDL
MODEL 9
REMARK VINA RESULT:      -5.3     32.545     33.787
REMARK  Name = 
REMARK  3 active torsions:
REMARK  status: ('A' for Active; 'I' for Inactive)
REMARK    1  A    between atoms: C_7  and  N_8
REMARK    2  A    between atoms: N_8  and  C_9
REMARK    3  A    between atoms: C_13  and  C_14
REMARK                            x       y       z     vdW  Elec       q    Type
REMARK                         _______ _______ _______ _____ _____    ______ ____
ROOT
ATOM      1  C   UNL     1      16.638  -7.779  26.187  0.00  0.00    +0.000 C 
ATOM      2  C   UNL     1      17.709  -8.400  26.972  0.00  0.00    +0.000 A 
ATOM      3  C   UNL     1      17.429  -8.894  28.186  0.00  0.00    +0.000 A 
ATOM      4  C   UNL     1      18.434  -9.496  28.953  0.00  0.00    +0.000 A 
ATOM      5  C   UNL     1      19.686  -9.559  28.411  0.00  0.00    +0.000 A 
ATOM      6  N   UNL     1      19.929  -9.032  27.137  0.00  0.00    +0.000 N 
ATOM      7  C   UNL     1      21.076  -8.953  26.431  0.00  0.00    +0.000 A 
ATOM      8  C   UNL     1      20.848  -8.322  25.250  0.00  0.00    +0.000 A 
ATOM      9  N   UNL     1      19.526  -8.023  25.244  0.00  0.00    +0.000 NA
ATOM     10  C   UNL     1      18.979  -8.471  26.438  0.00  0.00    +0.000 A 
ENDROOT
BRANCH   8  11
ATOM     11  C   UNL     1      21.786  -8.079  24.155  0.00  0.00    +0.000 A 
ATOM     12  C   UNL     1      21.558  -8.857  23.006  0.00  0.00    +0.000 A 
ATOM     13  C   UNL     1      22.384  -8.907  21.868  0.00  0.00    +0.000 A 
ATOM     14  C   UNL     1      23.524  -8.071  21.971  0.00  0.00    +0.000 A 
ATOM     15  C   UNL     1      23.754  -7.312  23.064  0.00  0.00    +0.000 A 
ATOM     16  C   UNL     1      22.893  -7.322  24.145  0.00  0.00    +0.000 A 
ATOM     17  O   UNL     1      23.194  -6.528  25.218  0.00  0.00    +0.000 OA
ENDBRANCH   8  11
BRANCH   7  18
ATOM     18  N   UNL     1      22.306  -9.568  26.710  0.00  0.00    +0.000 NA
BRANCH  18  19
ATOM     19  C   UNL     1      22.745 -10.892  26.487  0.00  0.00    +0.000 C 
ATOM     20  C   UNL     1      21.877 -11.768  25.649  0.00  0.00    +0.000 C 
ATOM     21  C   UNL     1      23.109 -11.504  27.834  0.00  0.00    +0.000 C 
ATOM     22  C   UNL     1      24.123 -10.740  25.774  0.00  0.00    +0.000 C 
ENDBRANCH  18  19
ENDBRANCH   7  18
TORSDOF 3
ENDMDL
MODEL 10
REMARK VINA RESULT:      -5.2      1.798      5.373
REMARK  Name = 
REMARK  3 active torsions:
REMARK  status: ('A' for Active; 'I' for Inactive)
REMARK    1  A    between atoms: C_7  and  N_8
REMARK    2  A    between atoms: N_8  and  C_9
REMARK    3  A    between atoms: C_13  and  C_14
REMARK                            x       y       z     vdW  Elec       q    Type
REMARK                         _______ _______ _______ _____ _____    ______ ____
ROOT
ATOM      1  C   UNL     1      27.153  28.581  21.655  0.00  0.00    +0.000 C 
ATOM      2  C   UNL     1      27.907  27.324  21.660  0.00  0.00    +0.000 A 
ATOM      3  C   UNL     1      28.696  27.030  20.617  0.00  0.00    +0.000 A 
ATOM      4  C   UNL     1      29.430  25.838  20.600  0.00  0.00    +0.000 A 
ATOM      5  C   UNL     1      29.308  25.009  21.679  0.00  0.00    +0.000 A 
ATOM      6  N   UNL     1      28.474  25.361  22.746  0.00  0.00    +0.000 N 
ATOM      7  C   UNL     1      28.178  24.691  23.879  0.00  0.00    +0.000 A 
ATOM      8  C   UNL     1      27.284  25.400  24.615  0.00  0.00    +0.000 A 
ATOM      9  N   UNL     1      27.044  26.531  23.909  0.00  0.00    +0.000 NA
ATOM     10  C   UNL     1      27.795  26.477  22.743  0.00  0.00    +0.000 A 
ENDROOT
BRANCH   8  11
ATOM     11  C   UNL     1      26.741  25.084  25.935  0.00  0.00    +0.000 A 
ATOM     12  C   UNL     1      27.186  25.929  26.969  0.00  0.00    +0.000 A 
ATOM     13  C   UNL     1      26.915  25.767  28.339  0.00  0.00    +0.000 A 
ATOM     14  C   UNL     1      26.121  24.626  28.618  0.00  0.00    +0.000 A 
ATOM     15  C   UNL     1      25.680  23.808  27.638  0.00  0.00    +0.000 A 
ATOM     16  C   UNL     1      25.993  24.036  26.312  0.00  0.00    +0.000 A 
ATOM     17  O   UNL     1      25.512  23.162  25.375  0.00  0.00    +0.000 OA
ENDBRANCH   8  11
BRANCH   7  18
ATOM     18  N   UNL     1      28.795  23.536  24.386  0.00  0.00    +0.000 NA
BRANCH  18  19
ATOM     19  C   UNL     1      29.958  23.384  25.172  0.00  0.00    +0.000 C 
ATOM     20  C   UNL     1      30.665  24.626  25.595  0.00  0.00    +0.000 C 
ATOM     21  C   UNL     1      30.865  22.371  24.486  0.00  0.00    +0.000 C 
ATOM     22  C   UNL     1      29.478  22.632  26.451  0.00  0.00    +0.000 C 
ENDBRANCH  18  19
ENDBRANCH   7  18
TORSDOF 3
ENDMDL
