MODEL 1
REMARK VINA RESULT:      -7.0      0.000      0.000
REMARK  Name = 
REMARK  7 active torsions:
REMARK  status: ('A' for Active; 'I' for Inactive)
REMARK    1  A    between atoms: C_2  and  O_3
REMARK    2  A    between atoms: O_3  and  C_4
REMARK    3  A    between atoms: C_9  and  N_10
REMARK    4  A    between atoms: C_11  and  C_13
REMARK    5  A    between atoms: C_14  and  N_15
REMARK    6  A    between atoms: N_15  and  C_16
REMARK    7  A    between atoms: C_16  and  C_17
REMARK                            x       y       z     vdW  Elec       q    Type
REMARK                         _______ _______ _______ _____ _____    ______ ____
ROOT
ATOM      1  C   UNL     1      39.408  -1.097  14.628  0.00  0.00    +0.000 A 
ATOM      2  C   UNL     1      38.996  -2.355  15.002  0.00  0.00    +0.000 A 
ATOM      3  S   UNL     1      40.459  -3.232  15.086  0.00  0.00    +0.000 S 
ATOM      4  C   UNL     1      41.547  -1.987  14.646  0.00  0.00    +0.000 A 
ATOM      5  C   UNL     1      40.716  -0.914  14.446  0.00  0.00    +0.000 A 
ATOM      6  C   UNL     1      41.587   0.274  14.038  0.00  0.00    +0.000 C 
ATOM      7  C   UNL     1      42.090  -0.148  12.712  0.00  0.00    +0.000 C 
ATOM      8  C   UNL     1      43.209  -1.329  12.866  0.00  0.00    +0.000 C 
ATOM      9  C   UNL     1      42.202  -2.504  12.310  0.00  0.00    +0.000 C 
ATOM     10  C   UNL     1      42.976  -1.721  14.434  0.00  0.00    +0.000 C 
ENDROOT
BRANCH   1  12
ATOM     11  N   UNL     1      37.866   0.729  15.527  0.00  0.00    +0.000 NA
ATOM     12  C   UNL     1      38.428   0.003  14.437  0.00  0.00    +0.000 C 
ATOM     13  O   UNL     1      38.039   0.352  13.295  0.00  0.00    +0.000 OA
BRANCH  11  19
ATOM     14  C   UNL     1      37.357   3.080  15.388  0.00  0.00    +0.000 A 
ATOM     15  C   UNL     1      36.469   4.129  15.177  0.00  0.00    +0.000 A 
ATOM     16  C   UNL     1      35.140   3.912  14.879  0.00  0.00    +0.000 A 
ATOM     17  C   UNL     1      34.723   2.599  14.798  0.00  0.00    +0.000 A 
ATOM     18  C   UNL     1      35.602   1.536  15.008  0.00  0.00    +0.000 A 
ATOM     19  C   UNL     1      36.930   1.776  15.305  0.00  0.00    +0.000 A 
BRANCH  14  20
ATOM     20  O   UNL     1      38.695   3.280  15.687  0.00  0.00    +0.000 OA
BRANCH  20  22
ATOM     21  C   UNL     1      39.794   3.448  13.526  0.00  0.00    +0.000 C 
ATOM     22  C   UNL     1      39.435   4.129  14.826  0.00  0.00    +0.000 C 
ENDBRANCH  20  22
ENDBRANCH  14  20
ENDBRANCH  11  19
ENDBRANCH   1  12
BRANCH   2  23
ATOM     23  N   UNL     1      37.640  -2.784  15.258  0.00  0.00    +0.000 NA
BRANCH  23  24
ATOM     24  C   UNL     1      37.264  -3.260  16.551  0.00  0.00    +0.000 C 
BRANCH  24  25
ATOM     25  C   UNL     1      36.893  -2.139  17.425  0.00  0.00    +0.000 A 
ATOM     26  C   UNL     1      35.625  -1.584  17.251  0.00  0.00    +0.000 A 
ATOM     27  C   UNL     1      35.246  -0.530  18.049  0.00  0.00    +0.000 A 
ATOM     28  C   UNL     1      36.127  -0.053  18.995  0.00  0.00    +0.000 A 
ATOM     29  N   UNL     1      37.351  -0.581  19.170  0.00  0.00    +0.000 NA
ATOM     30  C   UNL     1      37.712  -1.608  18.388  0.00  0.00    +0.000 A 
ENDBRANCH  24  25
ENDBRANCH  23  24
ENDBRANCH   2  23
TORSDOF 7
ENDMDL
MODEL 2
REMARK VINA RESULT:      -6.9      2.036      5.700
REMARK  Name = 
REMARK  7 active torsions:
REMARK  status: ('A' for Active; 'I' for Inactive)
REMARK    1  A    between atoms: C_2  and  O_3
REMARK    2  A    between atoms: O_3  and  C_4
REMARK    3  A    between atoms: C_9  and  N_10
REMARK    4  A    between atoms: C_11  and  C_13
REMARK    5  A    between atoms: C_14  and  N_15
REMARK    6  A    between atoms: N_15  and  C_16
REMARK    7  A    between atoms: C_16  and  C_17
REMARK                            x       y       z     vdW  Elec       q    Type
REMARK                         _______ _______ _______ _____ _____    ______ ____
ROOT
ATOM      1  C   UNL     1      36.773  -0.208  15.010  0.00  0.00    +0.000 A 
ATOM      2  C   UNL     1      36.961  -1.426  14.399  0.00  0.00    +0.000 A 
ATOM      3  S   UNL     1      35.972  -2.476  15.313  0.00  0.00    +0.000 S 
ATOM      4  C   UNL     1      35.352  -1.348  16.441  0.00  0.00    +0.000 A 
ATOM      5  C   UNL     1      35.948  -0.174  16.057  0.00  0.00    +0.000 A 
ATOM      6  C   UNL     1      35.467   0.921  17.009  0.00  0.00    +0.000 C 
ATOM      7  C   UNL     1      36.081   0.512  18.291  0.00  0.00    +0.000 C 
ATOM      8  C   UNL     1      35.325  -0.800  18.904  0.00  0.00    +0.000 C 
ATOM      9  C   UNL     1      36.570  -1.815  18.551  0.00  0.00    +0.000 C 
ATOM     10  C   UNL     1      34.451  -1.245  17.597  0.00  0.00    +0.000 C 
ENDROOT
BRANCH   1  12
ATOM     11  N   UNL     1      38.727   1.436  15.030  0.00  0.00    +0.000 NA
ATOM     12  C   UNL     1      37.467   1.009  14.517  0.00  0.00    +0.000 C 
ATOM     13  O   UNL     1      36.975   1.732  13.616  0.00  0.00    +0.000 OA
BRANCH  11  19
ATOM     14  C   UNL     1      39.247   3.778  15.244  0.00  0.00    +0.000 A 
ATOM     15  C   UNL     1      39.853   4.943  14.789  0.00  0.00    +0.000 A 
ATOM     16  C   UNL     1      40.588   4.976  13.621  0.00  0.00    +0.000 A 
ATOM     17  C   UNL     1      40.696   3.795  12.917  0.00  0.00    +0.000 A 
ATOM     18  C   UNL     1      40.092   2.618  13.361  0.00  0.00    +0.000 A 
ATOM     19  C   UNL     1      39.361   2.607  14.533  0.00  0.00    +0.000 A 
BRANCH  14  20
ATOM     20  O   UNL     1      38.506   3.727  16.414  0.00  0.00    +0.000 OA
BRANCH  20  22
ATOM     21  C   UNL     1      38.921   5.008  18.438  0.00  0.00    +0.000 C 
ATOM     22  C   UNL     1      38.258   4.954  17.081  0.00  0.00    +0.000 C 
ENDBRANCH  20  22
ENDBRANCH  14  20
ENDBRANCH  11  19
ENDBRANCH   1  12
BRANCH   2  23
ATOM     23  N   UNL     1      37.799  -1.703  13.254  0.00  0.00    +0.000 NA
BRANCH  23  24
ATOM     24  C   UNL     1      38.981  -2.492  13.398  0.00  0.00    +0.000 C 
BRANCH  24  25
ATOM     25  C   UNL     1      40.180  -1.664  13.209  0.00  0.00    +0.000 A 
ATOM     26  C   UNL     1      40.928  -1.353  14.345  0.00  0.00    +0.000 A 
ATOM     27  C   UNL     1      42.054  -0.576  14.205  0.00  0.00    +0.000 A 
ATOM     28  C   UNL     1      42.410  -0.127  12.952  0.00  0.00    +0.000 A 
ATOM     29  N   UNL     1      41.695  -0.421  11.852  0.00  0.00    +0.000 NA
ATOM     30  C   UNL     1      40.599  -1.179  11.996  0.00  0.00    +0.000 A 
ENDBRANCH  24  25
ENDBRANCH  23  24
ENDBRANCH   2  23
TORSDOF 7
ENDMDL
MODEL 3
REMARK VINA RESULT:      -6.9      1.805      3.087
REMARK  Name = 
REMARK  7 active torsions:
REMARK  status: ('A' for Active; 'I' for Inactive)
REMARK    1  A    between atoms: C_2  and  O_3
REMARK    2  A    between atoms: O_3  and  C_4
REMARK    3  A    between atoms: C_9  and  N_10
REMARK    4  A    between atoms: C_11  and  C_13
REMARK    5  A    between atoms: C_14  and  N_15
REMARK    6  A    between atoms: N_15  and  C_16
REMARK    7  A    between atoms: C_16  and  C_17
REMARK                            x       y       z     vdW  Elec       q    Type
REMARK                         _______ _______ _______ _____ _____    ______ ____
ROOT
ATOM      1  C   UNL     1      39.497  -0.969  14.243  0.00  0.00    +0.000 A 
ATOM      2  C   UNL     1      39.913  -1.924  15.142  0.00  0.00    +0.000 A 
ATOM      3  S   UNL     1      41.398  -2.453  14.487  0.00  0.00    +0.000 S 
ATOM      4  C   UNL     1      41.451  -1.455  13.096  0.00  0.00    +0.000 A 
ATOM      5  C   UNL     1      40.288  -0.734  13.196  0.00  0.00    +0.000 A 
ATOM      6  C   UNL     1      40.221   0.202  11.989  0.00  0.00    +0.000 C 
ATOM      7  C   UNL     1      40.058  -0.748  10.866  0.00  0.00    +0.000 C 
ATOM      8  C   UNL     1      41.453  -1.547  10.576  0.00  0.00    +0.000 C 
ATOM      9  C   UNL     1      40.898  -2.962  11.205  0.00  0.00    +0.000 C 
ATOM     10  C   UNL     1      42.282  -1.148  11.925  0.00  0.00    +0.000 C 
ENDROOT
BRANCH   1  12
ATOM     11  N   UNL     1      38.147   1.024  15.095  0.00  0.00    +0.000 NA
ATOM     12  C   UNL     1      38.218  -0.240  14.439  0.00  0.00    +0.000 C 
ATOM     13  O   UNL     1      37.123  -0.703  14.035  0.00  0.00    +0.000 OA
BRANCH  11  19
ATOM     14  C   UNL     1      36.166   1.447  16.398  0.00  0.00    +0.000 A 
ATOM     15  C   UNL     1      34.946   2.082  16.598  0.00  0.00    +0.000 A 
ATOM     16  C   UNL     1      34.430   2.977  15.682  0.00  0.00    +0.000 A 
ATOM     17  C   UNL     1      35.180   3.215  14.550  0.00  0.00    +0.000 A 
ATOM     18  C   UNL     1      36.406   2.585  14.335  0.00  0.00    +0.000 A 
ATOM     19  C   UNL     1      36.904   1.693  15.265  0.00  0.00    +0.000 A 
BRANCH  14  20
ATOM     20  O   UNL     1      36.700   0.547  17.307  0.00  0.00    +0.000 OA
BRANCH  20  22
ATOM     21  C   UNL     1      36.658  -0.676  19.407  0.00  0.00    +0.000 C 
ATOM     22  C   UNL     1      35.951   0.288  18.483  0.00  0.00    +0.000 C 
ENDBRANCH  20  22
ENDBRANCH  14  20
ENDBRANCH  11  19
ENDBRANCH   1  12
BRANCH   2  23
ATOM     23  N   UNL     1      39.227  -2.341  16.343  0.00  0.00    +0.000 NA
BRANCH  23  24
ATOM     24  C   UNL     1      38.649  -3.645  16.430  0.00  0.00    +0.000 C 
BRANCH  24  25
ATOM     25  C   UNL     1      37.249  -3.619  15.986  0.00  0.00    +0.000 A 
ATOM     26  C   UNL     1      36.333  -2.951  16.799  0.00  0.00    +0.000 A 
ATOM     27  C   UNL     1      35.012  -2.910  16.416  0.00  0.00    +0.000 A 
ATOM     28  C   UNL     1      34.633  -3.529  15.245  0.00  0.00    +0.000 A 
ATOM     29  N   UNL     1      35.509  -4.175  14.455  0.00  0.00    +0.000 NA
ATOM     30  C   UNL     1      36.793  -4.210  14.835  0.00  0.00    +0.000 A 
ENDBRANCH  24  25
ENDBRANCH  23  24
ENDBRANCH   2  23
TORSDOF 7
ENDMDL
MODEL 4
REMARK VINA RESULT:      -6.6      2.117      5.466
REMARK  Name = 
REMARK  7 active torsions:
REMARK  status: ('A' for Active; 'I' for Inactive)
REMARK    1  A    between atoms: C_2  and  O_3
REMARK    2  A    between atoms: O_3  and  C_4
REMARK    3  A    between atoms: C_9  and  N_10
REMARK    4  A    between atoms: C_11  and  C_13
REMARK    5  A    between atoms: C_14  and  N_15
REMARK    6  A    between atoms: N_15  and  C_16
REMARK    7  A    between atoms: C_16  and  C_17
REMARK                            x       y       z     vdW  Elec       q    Type
REMARK                         _______ _______ _______ _____ _____    ______ ____
ROOT
ATOM      1  C   UNL     1      37.152  -0.961  15.944  0.00  0.00    +0.000 A 
ATOM      2  C   UNL     1      36.426  -0.449  16.995  0.00  0.00    +0.000 A 
ATOM      3  S   UNL     1      35.782  -1.845  17.738  0.00  0.00    +0.000 S 
ATOM      4  C   UNL     1      36.447  -3.034  16.701  0.00  0.00    +0.000 A 
ATOM      5  C   UNL     1      37.158  -2.286  15.798  0.00  0.00    +0.000 A 
ATOM      6  C   UNL     1      37.801  -3.253  14.804  0.00  0.00    +0.000 C 
ATOM      7  C   UNL     1      36.624  -3.801  14.095  0.00  0.00    +0.000 C 
ATOM      8  C   UNL     1      35.796  -4.831  15.055  0.00  0.00    +0.000 C 
ATOM      9  C   UNL     1      34.550  -3.783  15.288  0.00  0.00    +0.000 C 
ATOM     10  C   UNL     1      36.496  -4.486  16.490  0.00  0.00    +0.000 C 
ENDROOT
BRANCH   1  12
ATOM     11  N   UNL     1      39.242   0.330  15.247  0.00  0.00    +0.000 NA
ATOM     12  C   UNL     1      37.891  -0.065  15.018  0.00  0.00    +0.000 C 
ATOM     13  O   UNL     1      37.361   0.394  13.977  0.00  0.00    +0.000 OA
BRANCH  11  19
ATOM     14  C   UNL     1      40.817   0.646  13.451  0.00  0.00    +0.000 A 
ATOM     15  C   UNL     1      41.496   1.455  12.548  0.00  0.00    +0.000 A 
ATOM     16  C   UNL     1      41.301   2.820  12.500  0.00  0.00    +0.000 A 
ATOM     17  C   UNL     1      40.395   3.353  13.394  0.00  0.00    +0.000 A 
ATOM     18  C   UNL     1      39.707   2.554  14.307  0.00  0.00    +0.000 A 
ATOM     19  C   UNL     1      39.918   1.189  14.338  0.00  0.00    +0.000 A 
BRANCH  14  20
ATOM     20  O   UNL     1      41.001  -0.727  13.513  0.00  0.00    +0.000 OA
BRANCH  20  22
ATOM     21  C   UNL     1      39.491  -1.772  11.921  0.00  0.00    +0.000 C 
ATOM     22  C   UNL     1      40.919  -1.450  12.296  0.00  0.00    +0.000 C 
ENDBRANCH  20  22
ENDBRANCH  14  20
ENDBRANCH  11  19
ENDBRANCH   1  12
BRANCH   2  23
ATOM     23  N   UNL     1      36.278   0.945  17.349  0.00  0.00    +0.000 NA
BRANCH  23  24
ATOM     24  C   UNL     1      35.196   1.714  16.822  0.00  0.00    +0.000 C 
BRANCH  24  25
ATOM     25  C   UNL     1      35.704   2.861  16.057  0.00  0.00    +0.000 A 
ATOM     26  C   UNL     1      34.984   3.243  14.924  0.00  0.00    +0.000 A 
ATOM     27  C   UNL     1      35.433   4.310  14.181  0.00  0.00    +0.000 A 
ATOM     28  C   UNL     1      36.578   4.968  14.575  0.00  0.00    +0.000 A 
ATOM     29  N   UNL     1      37.278   4.607  15.665  0.00  0.00    +0.000 NA
ATOM     30  C   UNL     1      36.833   3.566  16.383  0.00  0.00    +0.000 A 
ENDBRANCH  24  25
ENDBRANCH  23  24
ENDBRANCH   2  23
TORSDOF 7
ENDMDL
MODEL 5
REMARK VINA RESULT:      -6.6      1.982      4.792
REMARK  Name = 
REMARK  7 active torsions:
REMARK  status: ('A' for Active; 'I' for Inactive)
REMARK    1  A    between atoms: C_2  and  O_3
REMARK    2  A    between atoms: O_3  and  C_4
REMARK    3  A    between atoms: C_9  and  N_10
REMARK    4  A    between atoms: C_11  and  C_13
REMARK    5  A    between atoms: C_14  and  N_15
REMARK    6  A    between atoms: N_15  and  C_16
REMARK    7  A    between atoms: C_16  and  C_17
REMARK                            x       y       z     vdW  Elec       q    Type
REMARK                         _______ _______ _______ _____ _____    ______ ____
ROOT
ATOM      1  C   UNL     1      39.269  -1.186  13.620  0.00  0.00    +0.000 A 
ATOM      2  C   UNL     1      38.714  -0.819  12.416  0.00  0.00    +0.000 A 
ATOM      3  S   UNL     1      39.803  -1.470  11.272  0.00  0.00    +0.000 S 
ATOM      4  C   UNL     1      40.927  -2.184  12.347  0.00  0.00    +0.000 A 
ATOM      5  C   UNL     1      40.403  -1.885  13.578  0.00  0.00    +0.000 A 
ATOM      6  C   UNL     1      41.338  -2.476  14.634  0.00  0.00    +0.000 C 
ATOM      7  C   UNL     1      42.560  -1.659  14.462  0.00  0.00    +0.000 C 
ATOM      8  C   UNL     1      43.337  -2.061  13.082  0.00  0.00    +0.000 C 
ATOM      9  C   UNL     1      42.899  -0.679  12.306  0.00  0.00    +0.000 C 
ATOM     10  C   UNL     1      42.175  -2.959  12.367  0.00  0.00    +0.000 C 
ENDROOT
BRANCH   1  12
ATOM     11  N   UNL     1      37.582  -1.588  15.494  0.00  0.00    +0.000 NA
ATOM     12  C   UNL     1      38.623  -0.813  14.904  0.00  0.00    +0.000 C 
ATOM     13  O   UNL     1      38.963   0.213  15.542  0.00  0.00    +0.000 OA
BRANCH  11  19
ATOM     14  C   UNL     1      37.539  -1.646  17.902  0.00  0.00    +0.000 A 
ATOM     15  C   UNL     1      36.984  -1.287  19.125  0.00  0.00    +0.000 A 
ATOM     16  C   UNL     1      35.871  -0.475  19.211  0.00  0.00    +0.000 A 
ATOM     17  C   UNL     1      35.327  -0.033  18.024  0.00  0.00    +0.000 A 
ATOM     18  C   UNL     1      35.872  -0.386  16.789  0.00  0.00    +0.000 A 
ATOM     19  C   UNL     1      36.987  -1.199  16.725  0.00  0.00    +0.000 A 
BRANCH  14  20
ATOM     20  O   UNL     1      38.657  -2.460  17.797  0.00  0.00    +0.000 OA
BRANCH  20  22
ATOM     21  C   UNL     1      38.235  -4.764  17.149  0.00  0.00    +0.000 C 
ATOM     22  C   UNL     1      38.538  -3.793  18.266  0.00  0.00    +0.000 C 
ENDBRANCH  20  22
ENDBRANCH  14  20
ENDBRANCH  11  19
ENDBRANCH   1  12
BRANCH   2  23
ATOM     23  N   UNL     1      37.495  -0.069  12.215  0.00  0.00    +0.000 NA
BRANCH  23  24
ATOM     24  C   UNL     1      37.547   1.325  11.907  0.00  0.00    +0.000 C 
BRANCH  24  25
ATOM     25  C   UNL     1      37.449   2.128  13.133  0.00  0.00    +0.000 A 
ATOM     26  C   UNL     1      38.518   2.973  13.432  0.00  0.00    +0.000 A 
ATOM     27  C   UNL     1      38.462   3.736  14.575  0.00  0.00    +0.000 A 
ATOM     28  C   UNL     1      37.354   3.644  15.390  0.00  0.00    +0.000 A 
ATOM     29  N   UNL     1      36.319   2.833  15.110  0.00  0.00    +0.000 NA
ATOM     30  C   UNL     1      36.382   2.093  13.994  0.00  0.00    +0.000 A 
ENDBRANCH  24  25
ENDBRANCH  23  24
ENDBRANCH   2  23
TORSDOF 7
ENDMDL
MODEL 6
REMARK VINA RESULT:      -6.6      2.146      5.779
REMARK  Name = 
REMARK  7 active torsions:
REMARK  status: ('A' for Active; 'I' for Inactive)
REMARK    1  A    between atoms: C_2  and  O_3
REMARK    2  A    between atoms: O_3  and  C_4
REMARK    3  A    between atoms: C_9  and  N_10
REMARK    4  A    between atoms: C_11  and  C_13
REMARK    5  A    between atoms: C_14  and  N_15
REMARK    6  A    between atoms: N_15  and  C_16
REMARK    7  A    between atoms: C_16  and  C_17
REMARK                            x       y       z     vdW  Elec       q    Type
REMARK                         _______ _______ _______ _____ _____    ______ ____
ROOT
ATOM      1  C   UNL     1      36.765  -0.202  15.025  0.00  0.00    +0.000 A 
ATOM      2  C   UNL     1      36.920  -1.433  14.431  0.00  0.00    +0.000 A 
ATOM      3  S   UNL     1      35.906  -2.443  15.363  0.00  0.00    +0.000 S 
ATOM      4  C   UNL     1      35.317  -1.283  16.475  0.00  0.00    +0.000 A 
ATOM      5  C   UNL     1      35.943  -0.131  16.072  0.00  0.00    +0.000 A 
ATOM      6  C   UNL     1      35.493   0.991  17.008  0.00  0.00    +0.000 C 
ATOM      7  C   UNL     1      36.097   0.585  18.296  0.00  0.00    +0.000 C 
ATOM      8  C   UNL     1      35.309  -0.698  18.929  0.00  0.00    +0.000 C 
ATOM      9  C   UNL     1      36.527  -1.750  18.590  0.00  0.00    +0.000 C 
ATOM     10  C   UNL     1      34.421  -1.139  17.630  0.00  0.00    +0.000 C 
ENDROOT
BRANCH   1  12
ATOM     11  N   UNL     1      38.780   1.366  14.987  0.00  0.00    +0.000 NA
ATOM     12  C   UNL     1      37.489   0.989  14.513  0.00  0.00    +0.000 C 
ATOM     13  O   UNL     1      36.999   1.733  13.628  0.00  0.00    +0.000 OA
BRANCH  11  19
ATOM     14  C   UNL     1      40.360   2.356  13.462  0.00  0.00    +0.000 A 
ATOM     15  C   UNL     1      41.028   3.456  12.935  0.00  0.00    +0.000 A 
ATOM     16  C   UNL     1      40.802   4.737  13.397  0.00  0.00    +0.000 A 
ATOM     17  C   UNL     1      39.880   4.882  14.412  0.00  0.00    +0.000 A 
ATOM     18  C   UNL     1      39.203   3.788  14.951  0.00  0.00    +0.000 A 
ATOM     19  C   UNL     1      39.443   2.514  14.474  0.00  0.00    +0.000 A 
BRANCH  14  20
ATOM     20  O   UNL     1      40.573   1.063  13.010  0.00  0.00    +0.000 OA
BRANCH  20  22
ATOM     21  C   UNL     1      39.216   0.573  11.054  0.00  0.00    +0.000 C 
ATOM     22  C   UNL     1      40.593   0.859  11.607  0.00  0.00    +0.000 C 
ENDBRANCH  20  22
ENDBRANCH  14  20
ENDBRANCH  11  19
ENDBRANCH   1  12
BRANCH   2  23
ATOM     23  N   UNL     1      37.749  -1.748  13.290  0.00  0.00    +0.000 NA
BRANCH  23  24
ATOM     24  C   UNL     1      38.516  -2.953  13.264  0.00  0.00    +0.000 C 
BRANCH  24  25
ATOM     25  C   UNL     1      39.953  -2.649  13.255  0.00  0.00    +0.000 A 
ATOM     26  C   UNL     1      40.511  -2.160  14.436  0.00  0.00    +0.000 A 
ATOM     27  C   UNL     1      41.853  -1.860  14.463  0.00  0.00    +0.000 A 
ATOM     28  C   UNL     1      42.606  -2.050  13.325  0.00  0.00    +0.000 A 
ATOM     29  N   UNL     1      42.077  -2.521  12.182  0.00  0.00    +0.000 NA
ATOM     30  C   UNL     1      40.769  -2.811  12.165  0.00  0.00    +0.000 A 
ENDBRANCH  24  25
ENDBRANCH  23  24
ENDBRANCH   2  23
TORSDOF 7
ENDMDL
MODEL 7
REMARK VINA RESULT:      -6.4      1.756      2.785
REMARK  Name = 
REMARK  7 active torsions:
REMARK  status: ('A' for Active; 'I' for Inactive)
REMARK    1  A    between atoms: C_2  and  O_3
REMARK    2  A    between atoms: O_3  and  C_4
REMARK    3  A    between atoms: C_9  and  N_10
REMARK    4  A    between atoms: C_11  and  C_13
REMARK    5  A    between atoms: C_14  and  N_15
REMARK    6  A    between atoms: N_15  and  C_16
REMARK    7  A    between atoms: C_16  and  C_17
REMARK                            x       y       z     vdW  Elec       q    Type
REMARK                         _______ _______ _______ _____ _____    ______ ____
ROOT
ATOM      1  C   UNL     1      39.541   0.275  14.604  0.00  0.00    +0.000 A 
ATOM      2  C   UNL     1      39.174  -0.917  15.183  0.00  0.00    +0.000 A 
ATOM      3  S   UNL     1      40.503  -1.936  14.847  0.00  0.00    +0.000 S 
ATOM      4  C   UNL     1      41.482  -0.828  13.985  0.00  0.00    +0.000 A 
ATOM      5  C   UNL     1      40.724   0.315  13.990  0.00  0.00    +0.000 A 
ATOM      6  C   UNL     1      41.505   1.390  13.233  0.00  0.00    +0.000 C 
ATOM      7  C   UNL     1      41.501   0.863  11.851  0.00  0.00    +0.000 C 
ATOM      8  C   UNL     1      42.505  -0.418  11.716  0.00  0.00    +0.000 C 
ATOM      9  C   UNL     1      41.276  -1.506  11.607  0.00  0.00    +0.000 C 
ATOM     10  C   UNL     1      42.776  -0.720  13.298  0.00  0.00    +0.000 C 
ENDROOT
BRANCH   1  12
ATOM     11  N   UNL     1      37.512   1.611  13.815  0.00  0.00    +0.000 NA
ATOM     12  C   UNL     1      38.648   1.461  14.664  0.00  0.00    +0.000 C 
ATOM     13  O   UNL     1      38.848   2.400  15.472  0.00  0.00    +0.000 OA
BRANCH  11  19
ATOM     14  C   UNL     1      35.551   2.708  14.685  0.00  0.00    +0.000 A 
ATOM     15  C   UNL     1      34.714   3.812  14.793  0.00  0.00    +0.000 A 
ATOM     16  C   UNL     1      34.975   4.993  14.130  0.00  0.00    +0.000 A 
ATOM     17  C   UNL     1      36.110   5.034  13.347  0.00  0.00    +0.000 A 
ATOM     18  C   UNL     1      36.959   3.934  13.228  0.00  0.00    +0.000 A 
ATOM     19  C   UNL     1      36.680   2.760  13.902  0.00  0.00    +0.000 A 
BRANCH  14  20
ATOM     20  O   UNL     1      35.306   1.513  15.345  0.00  0.00    +0.000 OA
BRANCH  20  22
ATOM     21  C   UNL     1      35.957   1.073  17.645  0.00  0.00    +0.000 C 
ATOM     22  C   UNL     1      34.898   1.591  16.701  0.00  0.00    +0.000 C 
ENDBRANCH  20  22
ENDBRANCH  14  20
ENDBRANCH  11  19
ENDBRANCH   1  12
BRANCH   2  23
ATOM     23  N   UNL     1      37.950  -1.194  15.899  0.00  0.00    +0.000 NA
BRANCH  23  24
ATOM     24  C   UNL     1      37.508  -2.540  16.083  0.00  0.00    +0.000 C 
BRANCH  24  25
ATOM     25  C   UNL     1      37.977  -3.065  17.372  0.00  0.00    +0.000 A 
ATOM     26  C   UNL     1      37.813  -2.250  18.492  0.00  0.00    +0.000 A 
ATOM     27  C   UNL     1      38.245  -2.708  19.715  0.00  0.00    +0.000 A 
ATOM     28  C   UNL     1      38.826  -3.954  19.799  0.00  0.00    +0.000 A 
ATOM     29  N   UNL     1      38.989  -4.746  18.724  0.00  0.00    +0.000 NA
ATOM     30  C   UNL     1      38.565  -4.293  17.537  0.00  0.00    +0.000 A 
ENDBRANCH  24  25
ENDBRANCH  23  24
ENDBRANCH   2  23
TORSDOF 7
ENDMDL
MODEL 8
REMARK VINA RESULT:      -6.4      1.965      4.799
REMARK  Name = 
REMARK  7 active torsions:
REMARK  status: ('A' for Active; 'I' for Inactive)
REMARK    1  A    between atoms: C_2  and  O_3
REMARK    2  A    between atoms: O_3  and  C_4
REMARK    3  A    between atoms: C_9  and  N_10
REMARK    4  A    between atoms: C_11  and  C_13
REMARK    5  A    between atoms: C_14  and  N_15
REMARK    6  A    between atoms: N_15  and  C_16
REMARK    7  A    between atoms: C_16  and  C_17
REMARK                            x       y       z     vdW  Elec       q    Type
REMARK                         _______ _______ _______ _____ _____    ______ ____
ROOT
ATOM      1  C   UNL     1      39.527  -0.377  13.754  0.00  0.00    +0.000 A 
ATOM      2  C   UNL     1      39.886   0.885  14.168  0.00  0.00    +0.000 A 
ATOM      3  S   UNL     1      41.480   1.047  13.577  0.00  0.00    +0.000 S 
ATOM      4  C   UNL     1      41.647  -0.482  12.827  0.00  0.00    +0.000 A 
ATOM      5  C   UNL     1      40.433  -1.073  13.068  0.00  0.00    +0.000 A 
ATOM      6  C   UNL     1      40.465  -2.467  12.441  0.00  0.00    +0.000 C 
ATOM      7  C   UNL     1      41.470  -3.162  13.275  0.00  0.00    +0.000 C 
ATOM      8  C   UNL     1      42.976  -2.624  12.940  0.00  0.00    +0.000 C 
ATOM      9  C   UNL     1      43.107  -1.788  14.350  0.00  0.00    +0.000 C 
ATOM     10  C   UNL     1      42.601  -1.297  12.063  0.00  0.00    +0.000 C 
ENDROOT
BRANCH   1  12
ATOM     11  N   UNL     1      37.942  -1.771  15.191  0.00  0.00    +0.000 NA
ATOM     12  C   UNL     1      38.184  -0.929  14.066  0.00  0.00    +0.000 C 
ATOM     13  O   UNL     1      37.183  -0.683  13.349  0.00  0.00    +0.000 OA
BRANCH  11  19
ATOM     14  C   UNL     1      35.930  -1.770  16.517  0.00  0.00    +0.000 A 
ATOM     15  C   UNL     1      34.657  -2.245  16.808  0.00  0.00    +0.000 A 
ATOM     16  C   UNL     1      34.058  -3.237  16.057  0.00  0.00    +0.000 A 
ATOM     17  C   UNL     1      34.783  -3.742  14.997  0.00  0.00    +0.000 A 
ATOM     18  C   UNL     1      36.062  -3.276  14.694  0.00  0.00    +0.000 A 
ATOM     19  C   UNL     1      36.642  -2.282  15.458  0.00  0.00    +0.000 A 
BRANCH  14  20
ATOM     20  O   UNL     1      36.546  -0.775  17.259  0.00  0.00    +0.000 OA
BRANCH  20  22
ATOM     21  C   UNL     1      37.679  -1.948  19.061  0.00  0.00    +0.000 C 
ATOM     22  C   UNL     1      36.611  -0.956  18.664  0.00  0.00    +0.000 C 
ENDBRANCH  20  22
ENDBRANCH  14  20
ENDBRANCH  11  19
ENDBRANCH   1  12
BRANCH   2  23
ATOM     23  N   UNL     1      39.074   1.817  14.916  0.00  0.00    +0.000 NA
BRANCH  23  24
ATOM     24  C   UNL     1      38.482   2.944  14.266  0.00  0.00    +0.000 C 
BRANCH  24  25
ATOM     25  C   UNL     1      37.064   3.063  14.632  0.00  0.00    +0.000 A 
ATOM     26  C   UNL     1      36.527   2.064  15.443  0.00  0.00    +0.000 A 
ATOM     27  C   UNL     1      35.201   2.142  15.802  0.00  0.00    +0.000 A 
ATOM     28  C   UNL     1      34.444   3.201  15.350  0.00  0.00    +0.000 A 
ATOM     29  N   UNL     1      34.953   4.168  14.567  0.00  0.00    +0.000 NA
ATOM     30  C   UNL     1      36.246   4.085  14.223  0.00  0.00    +0.000 A 
ENDBRANCH  24  25
ENDBRANCH  23  24
ENDBRANCH   2  23
TORSDOF 7
ENDMDL
MODEL 9
REMARK VINA RESULT:      -6.2      2.110      5.056
REMARK  Name = 
REMARK  7 active torsions:
REMARK  status: ('A' for Active; 'I' for Inactive)
REMARK    1  A    between atoms: C_2  and  O_3
REMARK    2  A    between atoms: O_3  and  C_4
REMARK    3  A    between atoms: C_9  and  N_10
REMARK    4  A    between atoms: C_11  and  C_13
REMARK    5  A    between atoms: C_14  and  N_15
REMARK    6  A    between atoms: N_15  and  C_16
REMARK    7  A    between atoms: C_16  and  C_17
REMARK                            x       y       z     vdW  Elec       q    Type
REMARK                         _______ _______ _______ _____ _____    ______ ____
ROOT
ATOM      1  C   UNL     1      39.600   0.396  13.599  0.00  0.00    +0.000 A 
ATOM      2  C   UNL     1      39.844   1.709  13.271  0.00  0.00    +0.000 A 
ATOM      3  S   UNL     1      41.388   1.646  12.544  0.00  0.00    +0.000 S 
ATOM      4  C   UNL     1      41.681  -0.035  12.678  0.00  0.00    +0.000 A 
ATOM      5  C   UNL     1      40.545  -0.493  13.294  0.00  0.00    +0.000 A 
ATOM      6  C   UNL     1      40.695  -2.004  13.474  0.00  0.00    +0.000 C 
ATOM      7  C   UNL     1      41.798  -2.094  14.456  0.00  0.00    +0.000 C 
ATOM      8  C   UNL     1      43.226  -1.709  13.761  0.00  0.00    +0.000 C 
ATOM      9  C   UNL     1      43.326  -0.254  14.521  0.00  0.00    +0.000 C 
ATOM     10  C   UNL     1      42.683  -1.063  12.363  0.00  0.00    +0.000 C 
ENDROOT
BRANCH   1  12
ATOM     11  N   UNL     1      38.151   0.082  15.679  0.00  0.00    +0.000 NA
ATOM     12  C   UNL     1      38.334  -0.002  14.267  0.00  0.00    +0.000 C 
ATOM     13  O   UNL     1      37.351  -0.437  13.619  0.00  0.00    +0.000 OA
BRANCH  11  19
ATOM     14  C   UNL     1      36.797  -1.590  16.762  0.00  0.00    +0.000 A 
ATOM     15  C   UNL     1      35.613  -2.007  17.359  0.00  0.00    +0.000 A 
ATOM     16  C   UNL     1      34.529  -1.164  17.497  0.00  0.00    +0.000 A 
ATOM     17  C   UNL     1      34.669   0.120  17.013  0.00  0.00    +0.000 A 
ATOM     18  C   UNL     1      35.851   0.552  16.411  0.00  0.00    +0.000 A 
ATOM     19  C   UNL     1      36.925  -0.308  16.283  0.00  0.00    +0.000 A 
BRANCH  14  20
ATOM     20  O   UNL     1      37.896  -2.422  16.616  0.00  0.00    +0.000 OA
BRANCH  20  22
ATOM     21  C   UNL     1      38.016  -4.829  16.932  0.00  0.00    +0.000 C 
ATOM     22  C   UNL     1      37.680  -3.684  16.005  0.00  0.00    +0.000 C 
ENDBRANCH  20  22
ENDBRANCH  14  20
ENDBRANCH  11  19
ENDBRANCH   1  12
BRANCH   2  23
ATOM     23  N   UNL     1      38.970   2.838  13.499  0.00  0.00    +0.000 NA
BRANCH  23  24
ATOM     24  C   UNL     1      39.506   4.093  13.922  0.00  0.00    +0.000 C 
BRANCH  24  25
ATOM     25  C   UNL     1      39.167   4.350  15.328  0.00  0.00    +0.000 A 
ATOM     26  C   UNL     1      39.868   5.366  15.979  0.00  0.00    +0.000 A 
ATOM     27  C   UNL     1      39.580   5.632  17.297  0.00  0.00    +0.000 A 
ATOM     28  C   UNL     1      38.610   4.890  17.935  0.00  0.00    +0.000 A 
ATOM     29  N   UNL     1      37.929   3.910  17.316  0.00  0.00    +0.000 NA
ATOM     30  C   UNL     1      38.216   3.657  16.031  0.00  0.00    +0.000 A 
ENDBRANCH  24  25
ENDBRANCH  23  24
ENDBRANCH   2  23
TORSDOF 7
ENDMDL
MODEL 10
REMARK VINA RESULT:      -6.2      2.056      4.786
REMARK  Name = 
REMARK  7 active torsions:
REMARK  status: ('A' for Active; 'I' for Inactive)
REMARK    1  A    between atoms: C_2  and  O_3
REMARK    2  A    between atoms: O_3  and  C_4
REMARK    3  A    between atoms: C_9  and  N_10
REMARK    4  A    between atoms: C_11  and  C_13
REMARK    5  A    between atoms: C_14  and  N_15
REMARK    6  A    between atoms: N_15  and  C_16
REMARK    7  A    between atoms: C_16  and  C_17
REMARK                            x       y       z     vdW  Elec       q    Type
REMARK                         _______ _______ _______ _____ _____    ______ ____
ROOT
ATOM      1  C   UNL     1      39.643   0.335  13.716  0.00  0.00    +0.000 A 
ATOM      2  C   UNL     1      39.796   1.691  13.545  0.00  0.00    +0.000 A 
ATOM      3  S   UNL     1      41.338   1.819  12.822  0.00  0.00    +0.000 S 
ATOM      4  C   UNL     1      41.745   0.158  12.758  0.00  0.00    +0.000 A 
ATOM      5  C   UNL     1      40.645  -0.446  13.312  0.00  0.00    +0.000 A 
ATOM      6  C   UNL     1      40.899  -1.954  13.313  0.00  0.00    +0.000 C 
ATOM      7  C   UNL     1      42.010  -2.083  14.281  0.00  0.00    +0.000 C 
ATOM      8  C   UNL     1      43.405  -1.523  13.642  0.00  0.00    +0.000 C 
ATOM      9  C   UNL     1      43.410  -0.165  14.569  0.00  0.00    +0.000 C 
ATOM     10  C   UNL     1      42.813  -0.755  12.328  0.00  0.00    +0.000 C 
ENDROOT
BRANCH   1  12
ATOM     11  N   UNL     1      38.154  -0.165  15.729  0.00  0.00    +0.000 NA
ATOM     12  C   UNL     1      38.411  -0.224  14.328  0.00  0.00    +0.000 C 
ATOM     13  O   UNL     1      37.523  -0.783  13.637  0.00  0.00    +0.000 OA
BRANCH  11  19
ATOM     14  C   UNL     1      35.847   0.087  16.378  0.00  0.00    +0.000 A 
ATOM     15  C   UNL     1      34.665  -0.413  16.911  0.00  0.00    +0.000 A 
ATOM     16  C   UNL     1      34.558  -1.715  17.356  0.00  0.00    +0.000 A 
ATOM     17  C   UNL     1      35.682  -2.506  17.251  0.00  0.00    +0.000 A 
ATOM     18  C   UNL     1      36.876  -2.018  16.720  0.00  0.00    +0.000 A 
ATOM     19  C   UNL     1      36.962  -0.711  16.279  0.00  0.00    +0.000 A 
BRANCH  14  20
ATOM     20  O   UNL     1      35.973   1.391  15.925  0.00  0.00    +0.000 OA
BRANCH  20  22
ATOM     21  C   UNL     1      34.433   3.181  15.348  0.00  0.00    +0.000 C 
ATOM     22  C   UNL     1      35.063   2.349  16.441  0.00  0.00    +0.000 C 
ENDBRANCH  20  22
ENDBRANCH  14  20
ENDBRANCH  11  19
ENDBRANCH   1  12
BRANCH   2  23
ATOM     23  N   UNL     1      38.849   2.723  13.902  0.00  0.00    +0.000 NA
BRANCH  23  24
ATOM     24  C   UNL     1      39.278   4.077  14.054  0.00  0.00    +0.000 C 
BRANCH  24  25
ATOM     25  C   UNL     1      39.212   4.483  15.464  0.00  0.00    +0.000 A 
ATOM     26  C   UNL     1      40.044   5.528  15.868  0.00  0.00    +0.000 A 
ATOM     27  C   UNL     1      40.012   5.931  17.182  0.00  0.00    +0.000 A 
ATOM     28  C   UNL     1      39.162   5.294  18.060  0.00  0.00    +0.000 A 
ATOM     29  N   UNL     1      38.357   4.286  17.680  0.00  0.00    +0.000 NA
ATOM     30  C   UNL     1      38.394   3.899  16.397  0.00  0.00    +0.000 A 
ENDBRANCH  24  25
ENDBRANCH  23  24
ENDBRANCH   2  23
TORSDOF 7
ENDMDL
