MODEL 1
REMARK VINA RESULT:      -7.0      0.000      0.000
REMARK  Name = 
REMARK  1 active torsions:
REMARK  status: ('A' for Active; 'I' for Inactive)
REMARK    1  A    between atoms: C_11  and  C_12
REMARK                            x       y       z     vdW  Elec       q    Type
REMARK                         _______ _______ _______ _____ _____    ______ ____
ROOT
ATOM      1  C   UNL     1      30.230  22.700  29.327  0.00  0.00    +0.000 C 
ATOM      2  C   UNL     1      29.829  22.800  27.873  0.00  0.00    +0.000 A 
ATOM      3  C   UNL     1      28.510  22.599  27.513  0.00  0.00    +0.000 A 
ATOM      4  C   UNL     1      27.558  22.289  28.618  0.00  0.00    +0.000 C 
ATOM      5  C   UNL     1      28.149  22.692  26.187  0.00  0.00    +0.000 A 
ATOM      6  C   UNL     1      29.073  22.980  25.202  0.00  0.00    +0.000 A 
ATOM      7  C   UNL     1      30.358  23.176  25.556  0.00  0.00    +0.000 A 
ATOM      8  C   UNL     1      31.455  23.492  24.604  0.00  0.00    +0.000 C 
ATOM      9  C   UNL     1      30.754  23.087  26.905  0.00  0.00    +0.000 A 
ATOM     10  N   UNL     1      32.101  23.290  27.302  0.00  0.00    +0.000 NA
ATOM     11  C   UNL     1      28.294  22.970  23.865  0.00  0.00    +0.000 C 
ATOM     12  C   UNL     1      26.895  23.477  24.526  0.00  0.00    +0.000 C 
ATOM     13  C   UNL     1      25.831  23.319  23.538  0.00  0.00    +0.000 C 
ATOM     14  C   UNL     1      27.071  24.804  25.149  0.00  0.00    +0.000 C 
ATOM     15  O   UNL     1      26.901  22.535  25.595  0.00  0.00    +0.000 OA
ENDROOT
BRANCH  11  16
ATOM     16  C   UNL     1      28.699  24.311  23.170  0.00  0.00    +0.000 A 
ATOM     17  C   UNL     1      28.913  24.132  21.817  0.00  0.00    +0.000 A 
ATOM     18  C   UNL     1      29.267  25.202  21.039  0.00  0.00    +0.000 A 
ATOM     19  C   UNL     1      29.394  26.425  21.654  0.00  0.00    +0.000 A 
ATOM     20  N   UNL     1      29.179  26.563  22.968  0.00  0.00    +0.000 NA
ATOM     21  C   UNL     1      28.832  25.497  23.715  0.00  0.00    +0.000 A 
ENDBRANCH  11  16
TORSDOF 1
ENDMDL
MODEL 2
REMARK VINA RESULT:      -6.5      2.077      5.590
REMARK  Name = 
REMARK  1 active torsions:
REMARK  status: ('A' for Active; 'I' for Inactive)
REMARK    1  A    between atoms: C_11  and  C_12
REMARK                            x       y       z     vdW  Elec       q    Type
REMARK                         _______ _______ _______ _____ _____    ______ ____
ROOT
ATOM      1  C   UNL     1      26.299  23.727  22.605  0.00  0.00    +0.000 C 
ATOM      2  C   UNL     1      27.482  23.480  23.511  0.00  0.00    +0.000 A 
ATOM      3  C   UNL     1      28.760  23.737  23.052  0.00  0.00    +0.000 A 
ATOM      4  C   UNL     1      28.875  24.251  21.657  0.00  0.00    +0.000 C 
ATOM      5  C   UNL     1      29.837  23.511  23.882  0.00  0.00    +0.000 A 
ATOM      6  C   UNL     1      29.674  23.032  25.167  0.00  0.00    +0.000 A 
ATOM      7  C   UNL     1      28.427  22.783  25.612  0.00  0.00    +0.000 A 
ATOM      8  C   UNL     1      28.105  22.266  26.968  0.00  0.00    +0.000 C 
ATOM      9  C   UNL     1      27.309  23.005  24.785  0.00  0.00    +0.000 A 
ATOM     10  N   UNL     1      25.987  22.751  25.232  0.00  0.00    +0.000 NA
ATOM     11  C   UNL     1      31.097  22.890  25.757  0.00  0.00    +0.000 C 
ATOM     12  C   UNL     1      31.717  24.126  24.897  0.00  0.00    +0.000 C 
ATOM     13  C   UNL     1      33.172  24.097  25.027  0.00  0.00    +0.000 C 
ATOM     14  C   UNL     1      31.016  25.383  25.224  0.00  0.00    +0.000 C 
ATOM     15  O   UNL     1      31.194  23.696  23.644  0.00  0.00    +0.000 OA
ENDROOT
BRANCH  11  16
ATOM     16  C   UNL     1      31.017  23.612  27.141  0.00  0.00    +0.000 A 
ATOM     17  C   UNL     1      31.666  22.890  28.124  0.00  0.00    +0.000 A 
ATOM     18  C   UNL     1      31.709  23.374  29.404  0.00  0.00    +0.000 A 
ATOM     19  C   UNL     1      31.094  24.578  29.653  0.00  0.00    +0.000 A 
ATOM     20  N   UNL     1      30.474  25.253  28.677  0.00  0.00    +0.000 NA
ATOM     21  C   UNL     1      30.443  24.758  27.424  0.00  0.00    +0.000 A 
ENDBRANCH  11  16
TORSDOF 1
ENDMDL
MODEL 3
REMARK VINA RESULT:      -6.5      2.676      5.327
REMARK  Name = 
REMARK  1 active torsions:
REMARK  status: ('A' for Active; 'I' for Inactive)
REMARK    1  A    between atoms: C_11  and  C_12
REMARK                            x       y       z     vdW  Elec       q    Type
REMARK                         _______ _______ _______ _____ _____    ______ ____
ROOT
ATOM      1  C   UNL     1      24.432  25.079  27.475  0.00  0.00    +0.000 C 
ATOM      2  C   UNL     1      25.715  24.282  27.427  0.00  0.00    +0.000 A 
ATOM      3  C   UNL     1      26.305  24.010  26.207  0.00  0.00    +0.000 A 
ATOM      4  C   UNL     1      25.608  24.537  24.998  0.00  0.00    +0.000 C 
ATOM      5  C   UNL     1      27.475  23.284  26.167  0.00  0.00    +0.000 A 
ATOM      6  C   UNL     1      28.078  22.817  27.318  0.00  0.00    +0.000 A 
ATOM      7  C   UNL     1      27.502  23.085  28.506  0.00  0.00    +0.000 A 
ATOM      8  C   UNL     1      28.039  22.645  29.821  0.00  0.00    +0.000 C 
ATOM      9  C   UNL     1      26.306  23.825  28.575  0.00  0.00    +0.000 A 
ATOM     10  N   UNL     1      25.680  24.119  29.815  0.00  0.00    +0.000 NA
ATOM     11  C   UNL     1      29.335  22.039  26.860  0.00  0.00    +0.000 C 
ATOM     12  C   UNL     1      29.584  22.960  25.541  0.00  0.00    +0.000 C 
ATOM     13  C   UNL     1      30.587  22.308  24.703  0.00  0.00    +0.000 C 
ATOM     14  C   UNL     1      29.814  24.366  25.932  0.00  0.00    +0.000 C 
ATOM     15  O   UNL     1      28.240  22.895  25.074  0.00  0.00    +0.000 OA
ENDROOT
BRANCH  11  16
ATOM     16  C   UNL     1      30.490  22.613  27.743  0.00  0.00    +0.000 A 
ATOM     17  C   UNL     1      31.306  21.606  28.222  0.00  0.00    +0.000 A 
ATOM     18  C   UNL     1      32.381  21.921  29.009  0.00  0.00    +0.000 A 
ATOM     19  C   UNL     1      32.601  23.249  29.289  0.00  0.00    +0.000 A 
ATOM     20  N   UNL     1      31.790  24.200  28.808  0.00  0.00    +0.000 NA
ATOM     21  C   UNL     1      30.737  23.868  28.036  0.00  0.00    +0.000 A 
ENDBRANCH  11  16
TORSDOF 1
ENDMDL
MODEL 4
REMARK VINA RESULT:      -6.2      2.955      5.081
REMARK  Name = 
REMARK  1 active torsions:
REMARK  status: ('A' for Active; 'I' for Inactive)
REMARK    1  A    between atoms: C_11  and  C_12
REMARK                            x       y       z     vdW  Elec       q    Type
REMARK                         _______ _______ _______ _____ _____    ______ ____
ROOT
ATOM      1  C   UNL     1      23.557  26.628  29.055  0.00  0.00    +0.000 C 
ATOM      2  C   UNL     1      24.519  25.649  28.422  0.00  0.00    +0.000 A 
ATOM      3  C   UNL     1      24.555  25.518  27.047  0.00  0.00    +0.000 A 
ATOM      4  C   UNL     1      23.612  26.375  26.272  0.00  0.00    +0.000 C 
ATOM      5  C   UNL     1      25.435  24.626  26.474  0.00  0.00    +0.000 A 
ATOM      6  C   UNL     1      26.286  23.854  27.240  0.00  0.00    +0.000 A 
ATOM      7  C   UNL     1      26.250  23.985  28.580  0.00  0.00    +0.000 A 
ATOM      8  C   UNL     1      27.106  23.219  29.524  0.00  0.00    +0.000 C 
ATOM      9  C   UNL     1      25.360  24.889  29.192  0.00  0.00    +0.000 A 
ATOM     10  N   UNL     1      25.305  25.044  30.601  0.00  0.00    +0.000 NA
ATOM     11  C   UNL     1      27.082  22.976  26.245  0.00  0.00    +0.000 C 
ATOM     12  C   UNL     1      27.047  24.075  25.045  0.00  0.00    +0.000 C 
ATOM     13  C   UNL     1      27.506  23.434  23.816  0.00  0.00    +0.000 C 
ATOM     14  C   UNL     1      27.716  25.322  25.469  0.00  0.00    +0.000 C 
ATOM     15  O   UNL     1      25.648  24.328  25.133  0.00  0.00    +0.000 OA
ENDROOT
BRANCH  11  16
ATOM     16  C   UNL     1      28.575  23.168  26.667  0.00  0.00    +0.000 A 
ATOM     17  C   UNL     1      29.238  21.959  26.738  0.00  0.00    +0.000 A 
ATOM     18  C   UNL     1      30.563  21.931  27.084  0.00  0.00    +0.000 A 
ATOM     19  C   UNL     1      31.180  23.130  27.348  0.00  0.00    +0.000 A 
ATOM     20  N   UNL     1      30.507  24.285  27.270  0.00  0.00    +0.000 NA
ATOM     21  C   UNL     1      29.204  24.291  26.928  0.00  0.00    +0.000 A 
ENDBRANCH  11  16
TORSDOF 1
ENDMDL
MODEL 5
REMARK VINA RESULT:      -6.2      2.687      4.817
REMARK  Name = 
REMARK  1 active torsions:
REMARK  status: ('A' for Active; 'I' for Inactive)
REMARK    1  A    between atoms: C_11  and  C_12
REMARK                            x       y       z     vdW  Elec       q    Type
REMARK                         _______ _______ _______ _____ _____    ______ ____
ROOT
ATOM      1  C   UNL     1      30.539  22.314  24.505  0.00  0.00    +0.000 C 
ATOM      2  C   UNL     1      29.250  22.738  25.169  0.00  0.00    +0.000 A 
ATOM      3  C   UNL     1      29.149  22.710  26.547  0.00  0.00    +0.000 A 
ATOM      4  C   UNL     1      30.354  22.247  27.293  0.00  0.00    +0.000 C 
ATOM      5  C   UNL     1      27.972  23.099  27.148  0.00  0.00    +0.000 A 
ATOM      6  C   UNL     1      26.883  23.517  26.408  0.00  0.00    +0.000 A 
ATOM      7  C   UNL     1      26.985  23.545  25.065  0.00  0.00    +0.000 A 
ATOM      8  C   UNL     1      25.896  23.972  24.147  0.00  0.00    +0.000 C 
ATOM      9  C   UNL     1      28.177  23.153  24.425  0.00  0.00    +0.000 A 
ATOM     10  N   UNL     1      28.307  23.174  23.012  0.00  0.00    +0.000 NA
ATOM     11  C   UNL     1      25.766  23.837  27.430  0.00  0.00    +0.000 C 
ATOM     12  C   UNL     1      26.794  24.294  28.607  0.00  0.00    +0.000 C 
ATOM     13  C   UNL     1      26.045  24.418  29.854  0.00  0.00    +0.000 C 
ATOM     14  C   UNL     1      27.602  25.449  28.165  0.00  0.00    +0.000 C 
ATOM     15  O   UNL     1      27.642  23.155  28.497  0.00  0.00    +0.000 OA
ENDROOT
BRANCH  11  16
ATOM     16  C   UNL     1      25.264  25.260  27.022  0.00  0.00    +0.000 A 
ATOM     17  C   UNL     1      23.902  25.388  27.216  0.00  0.00    +0.000 A 
ATOM     18  C   UNL     1      23.283  26.573  26.921  0.00  0.00    +0.000 A 
ATOM     19  C   UNL     1      24.061  27.598  26.439  0.00  0.00    +0.000 A 
ATOM     20  N   UNL     1      25.379  27.441  26.263  0.00  0.00    +0.000 NA
ATOM     21  C   UNL     1      25.969  26.266  26.559  0.00  0.00    +0.000 A 
ENDBRANCH  11  16
TORSDOF 1
ENDMDL
MODEL 6
REMARK VINA RESULT:      -5.9      2.272      3.613
REMARK  Name = 
REMARK  1 active torsions:
REMARK  status: ('A' for Active; 'I' for Inactive)
REMARK    1  A    between atoms: C_11  and  C_12
REMARK                            x       y       z     vdW  Elec       q    Type
REMARK                         _______ _______ _______ _____ _____    ______ ____
ROOT
ATOM      1  C   UNL     1      33.752  24.316  27.412  0.00  0.00    +0.000 C 
ATOM      2  C   UNL     1      32.335  23.839  27.193  0.00  0.00    +0.000 A 
ATOM      3  C   UNL     1      31.528  23.573  28.283  0.00  0.00    +0.000 A 
ATOM      4  C   UNL     1      32.136  23.780  29.628  0.00  0.00    +0.000 C 
ATOM      5  C   UNL     1      30.236  23.139  28.078  0.00  0.00    +0.000 A 
ATOM      6  C   UNL     1      29.723  22.961  26.809  0.00  0.00    +0.000 A 
ATOM      7  C   UNL     1      30.512  23.223  25.749  0.00  0.00    +0.000 A 
ATOM      8  C   UNL     1      30.092  23.075  24.330  0.00  0.00    +0.000 C 
ATOM      9  C   UNL     1      31.836  23.668  25.929  0.00  0.00    +0.000 A 
ATOM     10  N   UNL     1      32.685  23.949  24.828  0.00  0.00    +0.000 NA
ATOM     11  C   UNL     1      28.275  22.449  26.998  0.00  0.00    +0.000 C 
ATOM     12  C   UNL     1      28.038  23.245  28.398  0.00  0.00    +0.000 C 
ATOM     13  C   UNL     1      26.807  22.752  29.009  0.00  0.00    +0.000 C 
ATOM     14  C   UNL     1      28.176  24.701  28.193  0.00  0.00    +0.000 C 
ATOM     15  O   UNL     1      29.253  22.815  29.006  0.00  0.00    +0.000 OA
ENDROOT
BRANCH  11  16
ATOM     16  C   UNL     1      27.413  23.374  26.079  0.00  0.00    +0.000 A 
ATOM     17  C   UNL     1      26.477  22.647  25.369  0.00  0.00    +0.000 A 
ATOM     18  C   UNL     1      25.622  23.292  24.515  0.00  0.00    +0.000 A 
ATOM     19  C   UNL     1      25.739  24.658  24.406  0.00  0.00    +0.000 A 
ATOM     20  N   UNL     1      26.657  25.332  25.109  0.00  0.00    +0.000 NA
ATOM     21  C   UNL     1      27.489  24.677  25.943  0.00  0.00    +0.000 A 
ENDBRANCH  11  16
TORSDOF 1
ENDMDL
MODEL 7
REMARK VINA RESULT:      -5.9     32.904     34.757
REMARK  Name = 
REMARK  1 active torsions:
REMARK  status: ('A' for Active; 'I' for Inactive)
REMARK    1  A    between atoms: C_11  and  C_12
REMARK                            x       y       z     vdW  Elec       q    Type
REMARK                         _______ _______ _______ _____ _____    ______ ____
ROOT
ATOM      1  C   UNL     1      21.667  -6.112  24.846  0.00  0.00    +0.000 C 
ATOM      2  C   UNL     1      20.861  -7.207  25.506  0.00  0.00    +0.000 A 
ATOM      3  C   UNL     1      21.366  -8.492  25.556  0.00  0.00    +0.000 A 
ATOM      4  C   UNL     1      22.706  -8.705  24.936  0.00  0.00    +0.000 C 
ATOM      5  C   UNL     1      20.629  -9.487  26.160  0.00  0.00    +0.000 A 
ATOM      6  C   UNL     1      19.391  -9.235  26.718  0.00  0.00    +0.000 A 
ATOM      7  C   UNL     1      18.901  -7.981  26.668  0.00  0.00    +0.000 A 
ATOM      8  C   UNL     1      17.586  -7.568  27.226  0.00  0.00    +0.000 C 
ATOM      9  C   UNL     1      19.634  -6.945  26.057  0.00  0.00    +0.000 A 
ATOM     10  N   UNL     1      19.139  -5.617  25.993  0.00  0.00    +0.000 NA
ATOM     11  C   UNL     1      18.881 -10.590  27.263  0.00  0.00    +0.000 C 
ATOM     12  C   UNL     1      20.367 -11.164  27.597  0.00  0.00    +0.000 C 
ATOM     13  C   UNL     1      20.258 -12.588  27.898  0.00  0.00    +0.000 C 
ATOM     14  C   UNL     1      21.044 -10.296  28.583  0.00  0.00    +0.000 C 
ATOM     15  O   UNL     1      20.928 -10.834  26.330  0.00  0.00    +0.000 OA
ENDROOT
BRANCH  11  16
ATOM     16  C   UNL     1      18.438 -10.277  28.729  0.00  0.00    +0.000 A 
ATOM     17  C   UNL     1      17.231 -10.878  29.030  0.00  0.00    +0.000 A 
ATOM     18  C   UNL     1      16.688 -10.722  30.277  0.00  0.00    +0.000 A 
ATOM     19  C   UNL     1      17.384  -9.963  31.187  0.00  0.00    +0.000 A 
ATOM     20  N   UNL     1      18.553  -9.395  30.863  0.00  0.00    +0.000 NA
ATOM     21  C   UNL     1      19.069  -9.560  29.629  0.00  0.00    +0.000 A 
ENDBRANCH  11  16
TORSDOF 1
ENDMDL
MODEL 8
REMARK VINA RESULT:      -5.8     33.780     35.366
REMARK  Name = 
REMARK  1 active torsions:
REMARK  status: ('A' for Active; 'I' for Inactive)
REMARK    1  A    between atoms: C_11  and  C_12
REMARK                            x       y       z     vdW  Elec       q    Type
REMARK                         _______ _______ _______ _____ _____    ______ ____
ROOT
ATOM      1  C   UNL     1      14.861 -11.827  30.867  0.00  0.00    +0.000 C 
ATOM      2  C   UNL     1      15.670 -11.208  29.751  0.00  0.00    +0.000 A 
ATOM      3  C   UNL     1      15.261 -11.369  28.440  0.00  0.00    +0.000 A 
ATOM      4  C   UNL     1      14.019 -12.167  28.224  0.00  0.00    +0.000 C 
ATOM      5  C   UNL     1      16.000 -10.802  27.426  0.00  0.00    +0.000 A 
ATOM      6  C   UNL     1      17.145 -10.075  27.682  0.00  0.00    +0.000 A 
ATOM      7  C   UNL     1      17.541  -9.918  28.960  0.00  0.00    +0.000 A 
ATOM      8  C   UNL     1      18.750  -9.163  29.381  0.00  0.00    +0.000 C 
ATOM      9  C   UNL     1      16.804 -10.487  30.017  0.00  0.00    +0.000 A 
ATOM     10  N   UNL     1      17.201 -10.336  31.371  0.00  0.00    +0.000 NA
ATOM     11  C   UNL     1      17.693  -9.635  26.303  0.00  0.00    +0.000 C 
ATOM     12  C   UNL     1      16.226  -9.550  25.602  0.00  0.00    +0.000 C 
ATOM     13  C   UNL     1      16.409  -9.407  24.160  0.00  0.00    +0.000 C 
ATOM     14  C   UNL     1      15.380  -8.558  26.296  0.00  0.00    +0.000 C 
ATOM     15  O   UNL     1      15.786 -10.828  26.052  0.00  0.00    +0.000 OA
ENDROOT
BRANCH  11  16
ATOM     16  C   UNL     1      17.944  -8.100  26.457  0.00  0.00    +0.000 A 
ATOM     17  C   UNL     1      19.157  -7.730  25.908  0.00  0.00    +0.000 A 
ATOM     18  C   UNL     1      19.545  -6.417  25.941  0.00  0.00    +0.000 A 
ATOM     19  C   UNL     1      18.692  -5.514  26.529  0.00  0.00    +0.000 A 
ATOM     20  N   UNL     1      17.523  -5.905  27.052  0.00  0.00    +0.000 NA
ATOM     21  C   UNL     1      17.161  -7.203  27.009  0.00  0.00    +0.000 A 
ENDBRANCH  11  16
TORSDOF 1
ENDMDL
MODEL 9
REMARK VINA RESULT:      -5.6      2.753      6.240
REMARK  Name = 
REMARK  1 active torsions:
REMARK  status: ('A' for Active; 'I' for Inactive)
REMARK    1  A    between atoms: C_11  and  C_12
REMARK                            x       y       z     vdW  Elec       q    Type
REMARK                         _______ _______ _______ _____ _____    ______ ____
ROOT
ATOM      1  C   UNL     1      24.454  26.023  25.007  0.00  0.00    +0.000 C 
ATOM      2  C   UNL     1      25.330  25.166  25.891  0.00  0.00    +0.000 A 
ATOM      3  C   UNL     1      26.315  24.380  25.323  0.00  0.00    +0.000 A 
ATOM      4  C   UNL     1      26.438  24.439  23.837  0.00  0.00    +0.000 C 
ATOM      5  C   UNL     1      27.112  23.602  26.133  0.00  0.00    +0.000 A 
ATOM      6  C   UNL     1      26.954  23.583  27.504  0.00  0.00    +0.000 A 
ATOM      7  C   UNL     1      25.994  24.351  28.056  0.00  0.00    +0.000 A 
ATOM      8  C   UNL     1      25.712  24.429  29.514  0.00  0.00    +0.000 C 
ATOM      9  C   UNL     1      25.165  25.157  27.251  0.00  0.00    +0.000 A 
ATOM     10  N   UNL     1      24.148  25.973  27.810  0.00  0.00    +0.000 NA
ATOM     11  C   UNL     1      28.003  22.583  28.045  0.00  0.00    +0.000 C 
ATOM     12  C   UNL     1      29.083  22.876  26.863  0.00  0.00    +0.000 C 
ATOM     13  C   UNL     1      30.131  21.861  26.930  0.00  0.00    +0.000 C 
ATOM     14  C   UNL     1      29.491  24.295  26.879  0.00  0.00    +0.000 C 
ATOM     15  O   UNL     1      28.153  22.744  25.793  0.00  0.00    +0.000 OA
ENDROOT
BRANCH  11  16
ATOM     16  C   UNL     1      28.726  23.361  29.192  0.00  0.00    +0.000 A 
ATOM     17  C   UNL     1      28.886  22.570  30.314  0.00  0.00    +0.000 A 
ATOM     18  C   UNL     1      29.510  23.081  31.421  0.00  0.00    +0.000 A 
ATOM     19  C   UNL     1      29.956  24.380  31.360  0.00  0.00    +0.000 A 
ATOM     20  N   UNL     1      29.785  25.119  30.257  0.00  0.00    +0.000 NA
ATOM     21  C   UNL     1      29.167  24.597  29.179  0.00  0.00    +0.000 A 
ENDBRANCH  11  16
TORSDOF 1
ENDMDL
MODEL 10
REMARK VINA RESULT:      -5.6      2.613      4.285
REMARK  Name = 
REMARK  1 active torsions:
REMARK  status: ('A' for Active; 'I' for Inactive)
REMARK    1  A    between atoms: C_11  and  C_12
REMARK                            x       y       z     vdW  Elec       q    Type
REMARK                         _______ _______ _______ _____ _____    ______ ____
ROOT
ATOM      1  C   UNL     1      31.943  24.281  26.178  0.00  0.00    +0.000 C 
ATOM      2  C   UNL     1      30.530  24.577  25.733  0.00  0.00    +0.000 A 
ATOM      3  C   UNL     1      29.884  23.702  24.879  0.00  0.00    +0.000 A 
ATOM      4  C   UNL     1      30.656  22.501  24.449  0.00  0.00    +0.000 C 
ATOM      5  C   UNL     1      28.595  23.975  24.477  0.00  0.00    +0.000 A 
ATOM      6  C   UNL     1      27.926  25.105  24.904  0.00  0.00    +0.000 A 
ATOM      7  C   UNL     1      28.558  25.956  25.737  0.00  0.00    +0.000 A 
ATOM      8  C   UNL     1      27.960  27.207  26.274  0.00  0.00    +0.000 C 
ATOM      9  C   UNL     1      29.875  25.700  26.164  0.00  0.00    +0.000 A 
ATOM     10  N   UNL     1      30.560  26.582  27.041  0.00  0.00    +0.000 NA
ATOM     11  C   UNL     1      26.537  25.066  24.223  0.00  0.00    +0.000 C 
ATOM     12  C   UNL     1      26.456  23.441  24.187  0.00  0.00    +0.000 C 
ATOM     13  C   UNL     1      25.337  23.051  23.334  0.00  0.00    +0.000 C 
ATOM     14  C   UNL     1      26.508  22.892  25.558  0.00  0.00    +0.000 C 
ATOM     15  O   UNL     1      27.756  23.251  23.637  0.00  0.00    +0.000 OA
ENDROOT
BRANCH  11  16
ATOM     16  C   UNL     1      25.526  25.304  25.390  0.00  0.00    +0.000 A 
ATOM     17  C   UNL     1      24.508  26.156  25.009  0.00  0.00    +0.000 A 
ATOM     18  C   UNL     1      23.519  26.475  25.901  0.00  0.00    +0.000 A 
ATOM     19  C   UNL     1      23.588  25.920  27.156  0.00  0.00    +0.000 A 
ATOM     20  N   UNL     1      24.589  25.097  27.494  0.00  0.00    +0.000 NA
ATOM     21  C   UNL     1      25.553  24.797  26.601  0.00  0.00    +0.000 A 
ENDBRANCH  11  16
TORSDOF 1
ENDMDL
