MODEL 1
REMARK VINA RESULT:      -8.8      0.000      0.000
REMARK  Name = 
REMARK  6 active torsions:
REMARK  status: ('A' for Active; 'I' for Inactive)
REMARK    1  A    between atoms: C_2  and  C_16
REMARK    2  A    between atoms: N_3  and  N_4
REMARK    3  A    between atoms: C_5  and  C_6
REMARK    4  A    between atoms: C_19  and  C_20
REMARK    5  A    between atoms: C_20  and  O_21
REMARK    6  A    between atoms: O_21  and  C_22
REMARK                            x       y       z     vdW  Elec       q    Type
REMARK                         _______ _______ _______ _____ _____    ______ ____
ROOT
ATOM      1  C   UNL     1      13.963  -0.508  28.163  0.00  0.00    +0.000 A 
ATOM      2  C   UNL     1      12.845  -1.337  28.012  0.00  0.00    +0.000 A 
ATOM      3  C   UNL     1      12.266  -1.476  29.248  0.00  0.00    +0.000 A 
ATOM      4  C   UNL     1      13.034  -0.734  30.122  0.00  0.00    +0.000 A 
ATOM      5  O   UNL     1      14.019  -0.188  29.422  0.00  0.00    +0.000 OA
ENDROOT
BRANCH   1   7
ATOM      6  O   UNL     1      14.458  -0.055  25.903  0.00  0.00    +0.000 OA
ATOM      7  C   UNL     1      14.858  -0.111  27.085  0.00  0.00    +0.000 C 
ATOM      8  N   UNL     1      16.204   0.220  27.365  0.00  0.00    +0.000 NA
BRANCH   8   9
ATOM      9  N   UNL     1      17.086   0.609  26.325  0.00  0.00    +0.000 NA
ATOM     10  C   UNL     1      18.029  -0.132  25.908  0.00  0.00    +0.000 C 
BRANCH  10  11
ATOM     11  C   UNL     1      18.951   0.238  24.842  0.00  0.00    +0.000 A 
ATOM     12  C   UNL     1      19.362   1.543  24.682  0.00  0.00    +0.000 A 
ATOM     13  C   UNL     1      20.249   1.878  23.651  0.00  0.00    +0.000 A 
ATOM     14  C   UNL     1      20.728   0.910  22.778  0.00  0.00    +0.000 A 
ATOM     15  C   UNL     1      20.311  -0.397  22.946  0.00  0.00    +0.000 A 
ATOM     16  C   UNL     1      20.800  -1.336  22.069  0.00  0.00    +0.000 A 
ATOM     17  C   UNL     1      20.409  -2.660  22.200  0.00  0.00    +0.000 A 
ATOM     18  C   UNL     1      19.533  -2.952  23.228  0.00  0.00    +0.000 A 
ATOM     19  N   UNL     1      19.068  -2.021  24.072  0.00  0.00    +0.000 NA
ATOM     20  C   UNL     1      19.428  -0.721  23.976  0.00  0.00    +0.000 A 
ENDBRANCH  10  11
ENDBRANCH   8   9
ENDBRANCH   1   7
BRANCH   4  21
ATOM     21  C   UNL     1      12.844  -0.541  31.599  0.00  0.00    +0.000 C 
BRANCH  21  22
ATOM     22  O   UNL     1      13.689   0.495  32.011  0.00  0.00    +0.000 OA
BRANCH  22  23
ATOM     23  C   UNL     1      13.167   1.614  32.631  0.00  0.00    +0.000 A 
ATOM     24  C   UNL     1      11.810   1.732  32.794  0.00  0.00    +0.000 A 
ATOM     25  C   UNL     1      11.245   2.828  33.405  0.00  0.00    +0.000 A 
ATOM     26  C   UNL     1      12.058   3.845  33.872  0.00  0.00    +0.000 A 
ATOM     27  C   UNL     1      13.418   3.718  33.703  0.00  0.00    +0.000 A 
ATOM     28  C   UNL     1      13.990   2.633  33.097  0.00  0.00    +0.000 A 
ATOM     29  C   UNL     1      14.097   4.913  34.273  0.00  0.00    +0.000 C 
ATOM     30  C   UNL     1      12.992   5.916  34.495  0.00  0.00    +0.000 C 
ATOM     31  C   UNL     1      11.707   5.111  34.554  0.00  0.00    +0.000 C 
ENDBRANCH  22  23
ENDBRANCH  21  22
ENDBRANCH   4  21
TORSDOF 6
ENDMDL
MODEL 2
REMARK VINA RESULT:      -8.6     23.703     27.134
REMARK  Name = 
REMARK  6 active torsions:
REMARK  status: ('A' for Active; 'I' for Inactive)
REMARK    1  A    between atoms: C_2  and  C_16
REMARK    2  A    between atoms: N_3  and  N_4
REMARK    3  A    between atoms: C_5  and  C_6
REMARK    4  A    between atoms: C_19  and  C_20
REMARK    5  A    between atoms: C_20  and  O_21
REMARK    6  A    between atoms: O_21  and  C_22
REMARK                            x       y       z     vdW  Elec       q    Type
REMARK                         _______ _______ _______ _____ _____    ______ ____
ROOT
ATOM      1  C   UNL     1      36.800   3.073  16.219  0.00  0.00    +0.000 A 
ATOM      2  C   UNL     1      36.054   2.990  15.037  0.00  0.00    +0.000 A 
ATOM      3  C   UNL     1      35.342   1.817  15.083  0.00  0.00    +0.000 A 
ATOM      4  C   UNL     1      35.664   1.214  16.281  0.00  0.00    +0.000 A 
ATOM      5  O   UNL     1      36.528   2.004  16.906  0.00  0.00    +0.000 OA
ENDROOT
BRANCH   1   7
ATOM      6  O   UNL     1      37.755   5.198  15.857  0.00  0.00    +0.000 OA
ATOM      7  C   UNL     1      37.694   4.170  16.563  0.00  0.00    +0.000 C 
ATOM      8  N   UNL     1      38.513   4.084  17.713  0.00  0.00    +0.000 NA
BRANCH   8   9
ATOM      9  N   UNL     1      39.388   5.145  18.061  0.00  0.00    +0.000 NA
ATOM     10  C   UNL     1      39.313   5.767  19.164  0.00  0.00    +0.000 C 
BRANCH  10  11
ATOM     11  C   UNL     1      40.196   6.859  19.550  0.00  0.00    +0.000 A 
ATOM     12  C   UNL     1      41.565   6.724  19.477  0.00  0.00    +0.000 A 
ATOM     13  C   UNL     1      42.397   7.787  19.852  0.00  0.00    +0.000 A 
ATOM     14  C   UNL     1      41.863   8.988  20.302  0.00  0.00    +0.000 A 
ATOM     15  C   UNL     1      40.489   9.116  20.372  0.00  0.00    +0.000 A 
ATOM     16  C   UNL     1      39.985  10.314  20.820  0.00  0.00    +0.000 A 
ATOM     17  C   UNL     1      38.612  10.487  20.906  0.00  0.00    +0.000 A 
ATOM     18  C   UNL     1      37.824   9.417  20.528  0.00  0.00    +0.000 A 
ATOM     19  N   UNL     1      38.335   8.257  20.094  0.00  0.00    +0.000 NA
ATOM     20  C   UNL     1      39.668   8.052  19.995  0.00  0.00    +0.000 A 
ENDBRANCH  10  11
ENDBRANCH   8   9
ENDBRANCH   1   7
BRANCH   4  21
ATOM     21  C   UNL     1      35.166  -0.090  16.834  0.00  0.00    +0.000 C 
BRANCH  21  22
ATOM     22  O   UNL     1      36.276  -0.900  17.096  0.00  0.00    +0.000 OA
BRANCH  22  23
ATOM     23  C   UNL     1      37.047  -1.384  16.055  0.00  0.00    +0.000 A 
ATOM     24  C   UNL     1      36.448  -2.054  15.018  0.00  0.00    +0.000 A 
ATOM     25  C   UNL     1      37.174  -2.553  13.962  0.00  0.00    +0.000 A 
ATOM     26  C   UNL     1      38.546  -2.380  13.932  0.00  0.00    +0.000 A 
ATOM     27  C   UNL     1      39.137  -1.707  14.977  0.00  0.00    +0.000 A 
ATOM     28  C   UNL     1      38.425  -1.207  16.032  0.00  0.00    +0.000 A 
ATOM     29  C   UNL     1      40.606  -1.635  14.746  0.00  0.00    +0.000 C 
ATOM     30  C   UNL     1      40.870  -2.619  13.634  0.00  0.00    +0.000 C 
ATOM     31  C   UNL     1      39.542  -2.813  12.926  0.00  0.00    +0.000 C 
ENDBRANCH  22  23
ENDBRANCH  21  22
ENDBRANCH   4  21
TORSDOF 6
ENDMDL
MODEL 3
REMARK VINA RESULT:      -8.4     23.363     26.564
REMARK  Name = 
REMARK  6 active torsions:
REMARK  status: ('A' for Active; 'I' for Inactive)
REMARK    1  A    between atoms: C_2  and  C_16
REMARK    2  A    between atoms: N_3  and  N_4
REMARK    3  A    between atoms: C_5  and  C_6
REMARK    4  A    between atoms: C_19  and  C_20
REMARK    5  A    between atoms: C_20  and  O_21
REMARK    6  A    between atoms: O_21  and  C_22
REMARK                            x       y       z     vdW  Elec       q    Type
REMARK                         _______ _______ _______ _____ _____    ______ ____
ROOT
ATOM      1  C   UNL     1      37.189   3.593  16.361  0.00  0.00    +0.000 A 
ATOM      2  C   UNL     1      36.393   3.866  15.241  0.00  0.00    +0.000 A 
ATOM      3  C   UNL     1      35.395   2.924  15.207  0.00  0.00    +0.000 A 
ATOM      4  C   UNL     1      35.600   2.102  16.296  0.00  0.00    +0.000 A 
ATOM      5  O   UNL     1      36.673   2.548  16.937  0.00  0.00    +0.000 OA
ENDROOT
BRANCH   1   7
ATOM      6  O   UNL     1      39.168   4.792  15.907  0.00  0.00    +0.000 OA
ATOM      7  C   UNL     1      38.359   4.363  16.757  0.00  0.00    +0.000 C 
ATOM      8  N   UNL     1      38.598   4.637  18.124  0.00  0.00    +0.000 NA
BRANCH   8   9
ATOM      9  N   UNL     1      39.735   5.386  18.525  0.00  0.00    +0.000 NA
ATOM     10  C   UNL     1      39.710   6.214  19.486  0.00  0.00    +0.000 C 
BRANCH  10  11
ATOM     11  C   UNL     1      40.858   6.997  19.922  0.00  0.00    +0.000 A 
ATOM     12  C   UNL     1      42.111   6.430  20.010  0.00  0.00    +0.000 A 
ATOM     13  C   UNL     1      43.202   7.201  20.431  0.00  0.00    +0.000 A 
ATOM     14  C   UNL     1      43.045   8.541  20.765  0.00  0.00    +0.000 A 
ATOM     15  C   UNL     1      41.786   9.102  20.673  0.00  0.00    +0.000 A 
ATOM     16  C   UNL     1      41.656  10.429  21.008  0.00  0.00    +0.000 A 
ATOM     17  C   UNL     1      40.411  11.033  20.930  0.00  0.00    +0.000 A 
ATOM     18  C   UNL     1      39.359  10.241  20.512  0.00  0.00    +0.000 A 
ATOM     19  N   UNL     1      39.506   8.949  20.190  0.00  0.00    +0.000 NA
ATOM     20  C   UNL     1      40.705   8.326  20.252  0.00  0.00    +0.000 A 
ENDBRANCH  10  11
ENDBRANCH   8   9
ENDBRANCH   1   7
BRANCH   4  21
ATOM     21  C   UNL     1      34.797   0.910  16.730  0.00  0.00    +0.000 C 
BRANCH  21  22
ATOM     22  O   UNL     1      35.262   0.512  17.989  0.00  0.00    +0.000 OA
BRANCH  22  23
ATOM     23  C   UNL     1      36.095  -0.584  18.109  0.00  0.00    +0.000 A 
ATOM     24  C   UNL     1      36.837  -0.754  19.251  0.00  0.00    +0.000 A 
ATOM     25  C   UNL     1      37.680  -1.829  19.415  0.00  0.00    +0.000 A 
ATOM     26  C   UNL     1      37.791  -2.771  18.408  0.00  0.00    +0.000 A 
ATOM     27  C   UNL     1      37.043  -2.591  17.266  0.00  0.00    +0.000 A 
ATOM     28  C   UNL     1      36.202  -1.527  17.093  0.00  0.00    +0.000 A 
ATOM     29  C   UNL     1      37.312  -3.710  16.323  0.00  0.00    +0.000 C 
ATOM     30  C   UNL     1      38.541  -4.392  16.872  0.00  0.00    +0.000 C 
ATOM     31  C   UNL     1      38.613  -4.000  18.337  0.00  0.00    +0.000 C 
ENDBRANCH  22  23
ENDBRANCH  21  22
ENDBRANCH   4  21
TORSDOF 6
ENDMDL
MODEL 4
REMARK VINA RESULT:      -8.1      4.935     10.293
REMARK  Name = 
REMARK  6 active torsions:
REMARK  status: ('A' for Active; 'I' for Inactive)
REMARK    1  A    between atoms: C_2  and  C_16
REMARK    2  A    between atoms: N_3  and  N_4
REMARK    3  A    between atoms: C_5  and  C_6
REMARK    4  A    between atoms: C_19  and  C_20
REMARK    5  A    between atoms: C_20  and  O_21
REMARK    6  A    between atoms: O_21  and  C_22
REMARK                            x       y       z     vdW  Elec       q    Type
REMARK                         _______ _______ _______ _____ _____    ______ ____
ROOT
ATOM      1  C   UNL     1      13.765  -0.059  26.990  0.00  0.00    +0.000 A 
ATOM      2  C   UNL     1      13.877   0.163  28.368  0.00  0.00    +0.000 A 
ATOM      3  C   UNL     1      15.213   0.277  28.659  0.00  0.00    +0.000 A 
ATOM      4  C   UNL     1      15.885   0.126  27.464  0.00  0.00    +0.000 A 
ATOM      5  O   UNL     1      14.977  -0.069  26.517  0.00  0.00    +0.000 OA
ENDROOT
BRANCH   1   7
ATOM      6  O   UNL     1      11.765   0.735  26.027  0.00  0.00    +0.000 OA
ATOM      7  C   UNL     1      12.510  -0.237  26.274  0.00  0.00    +0.000 C 
ATOM      8  N   UNL     1      12.113  -1.525  25.846  0.00  0.00    +0.000 NA
BRANCH   8   9
ATOM      9  N   UNL     1      10.893  -1.712  25.148  0.00  0.00    +0.000 NA
ATOM     10  C   UNL     1      10.833  -2.236  23.993  0.00  0.00    +0.000 C 
BRANCH  10  11
ATOM     11  C   UNL     1       9.597  -2.443  23.251  0.00  0.00    +0.000 A 
ATOM     12  C   UNL     1       8.577  -1.518  23.301  0.00  0.00    +0.000 A 
ATOM     13  C   UNL     1       7.396  -1.735  22.579  0.00  0.00    +0.000 A 
ATOM     14  C   UNL     1       7.231  -2.877  21.805  0.00  0.00    +0.000 A 
ATOM     15  C   UNL     1       8.259  -3.800  21.760  0.00  0.00    +0.000 A 
ATOM     16  C   UNL     1       8.072  -4.921  20.988  0.00  0.00    +0.000 A 
ATOM     17  C   UNL     1       9.077  -5.873  20.912  0.00  0.00    +0.000 A 
ATOM     18  C   UNL     1      10.226  -5.624  21.638  0.00  0.00    +0.000 A 
ATOM     19  N   UNL     1      10.389  -4.525  22.386  0.00  0.00    +0.000 NA
ATOM     20  C   UNL     1       9.432  -3.574  22.482  0.00  0.00    +0.000 A 
ENDBRANCH  10  11
ENDBRANCH   8   9
ENDBRANCH   1   7
BRANCH   4  21
ATOM     21  C   UNL     1      17.365   0.164  27.213  0.00  0.00    +0.000 C 
BRANCH  21  22
ATOM     22  O   UNL     1      17.664  -0.804  26.249  0.00  0.00    +0.000 OA
BRANCH  22  23
ATOM     23  C   UNL     1      18.520  -0.506  25.205  0.00  0.00    +0.000 A 
ATOM     24  C   UNL     1      18.877   0.798  24.968  0.00  0.00    +0.000 A 
ATOM     25  C   UNL     1      19.725   1.141  23.941  0.00  0.00    +0.000 A 
ATOM     26  C   UNL     1      20.239   0.155  23.118  0.00  0.00    +0.000 A 
ATOM     27  C   UNL     1      19.874  -1.149  23.364  0.00  0.00    +0.000 A 
ATOM     28  C   UNL     1      19.033  -1.502  24.382  0.00  0.00    +0.000 A 
ATOM     29  C   UNL     1      20.535  -2.039  22.371  0.00  0.00    +0.000 C 
ATOM     30  C   UNL     1      21.060  -1.107  21.306  0.00  0.00    +0.000 C 
ATOM     31  C   UNL     1      21.157   0.259  21.962  0.00  0.00    +0.000 C 
ENDBRANCH  22  23
ENDBRANCH  21  22
ENDBRANCH   4  21
TORSDOF 6
ENDMDL
MODEL 5
REMARK VINA RESULT:      -8.1     25.196     29.334
REMARK  Name = 
REMARK  6 active torsions:
REMARK  status: ('A' for Active; 'I' for Inactive)
REMARK    1  A    between atoms: C_2  and  C_16
REMARK    2  A    between atoms: N_3  and  N_4
REMARK    3  A    between atoms: C_5  and  C_6
REMARK    4  A    between atoms: C_19  and  C_20
REMARK    5  A    between atoms: C_20  and  O_21
REMARK    6  A    between atoms: O_21  and  C_22
REMARK                            x       y       z     vdW  Elec       q    Type
REMARK                         _______ _______ _______ _____ _____    ______ ____
ROOT
ATOM      1  C   UNL     1      45.155   6.315  23.317  0.00  0.00    +0.000 A 
ATOM      2  C   UNL     1      45.888   7.499  23.167  0.00  0.00    +0.000 A 
ATOM      3  C   UNL     1      45.936   7.784  21.825  0.00  0.00    +0.000 A 
ATOM      4  C   UNL     1      45.238   6.778  21.189  0.00  0.00    +0.000 A 
ATOM      5  O   UNL     1      44.802   5.943  22.122  0.00  0.00    +0.000 OA
ENDROOT
BRANCH   1   7
ATOM      6  O   UNL     1      45.510   4.660  24.958  0.00  0.00    +0.000 OA
ATOM      7  C   UNL     1      44.871   5.668  24.590  0.00  0.00    +0.000 C 
ATOM      8  N   UNL     1      43.857   6.177  25.435  0.00  0.00    +0.000 NA
BRANCH   8   9
ATOM      9  N   UNL     1      43.570   5.557  26.678  0.00  0.00    +0.000 NA
ATOM     10  C   UNL     1      42.393   5.448  27.138  0.00  0.00    +0.000 C 
BRANCH  10  11
ATOM     11  C   UNL     1      42.065   4.817  28.410  0.00  0.00    +0.000 A 
ATOM     12  C   UNL     1      42.786   3.739  28.872  0.00  0.00    +0.000 A 
ATOM     13  C   UNL     1      42.455   3.147  30.098  0.00  0.00    +0.000 A 
ATOM     14  C   UNL     1      41.404   3.631  30.865  0.00  0.00    +0.000 A 
ATOM     15  C   UNL     1      40.686   4.714  30.394  0.00  0.00    +0.000 A 
ATOM     16  C   UNL     1      39.650   5.175  31.172  0.00  0.00    +0.000 A 
ATOM     17  C   UNL     1      38.903   6.260  30.739  0.00  0.00    +0.000 A 
ATOM     18  C   UNL     1      39.258   6.816  29.526  0.00  0.00    +0.000 A 
ATOM     19  N   UNL     1      40.272   6.352  28.783  0.00  0.00    +0.000 NA
ATOM     20  C   UNL     1      41.023   5.297  29.172  0.00  0.00    +0.000 A 
ENDBRANCH  10  11
ENDBRANCH   8   9
ENDBRANCH   1   7
BRANCH   4  21
ATOM     21  C   UNL     1      44.984   6.604  19.720  0.00  0.00    +0.000 C 
BRANCH  21  22
ATOM     22  O   UNL     1      43.949   7.473  19.355  0.00  0.00    +0.000 OA
BRANCH  22  23
ATOM     23  C   UNL     1      42.671   6.987  19.151  0.00  0.00    +0.000 A 
ATOM     24  C   UNL     1      41.833   6.807  20.223  0.00  0.00    +0.000 A 
ATOM     25  C   UNL     1      40.553   6.326  20.068  0.00  0.00    +0.000 A 
ATOM     26  C   UNL     1      40.087   6.014  18.804  0.00  0.00    +0.000 A 
ATOM     27  C   UNL     1      40.936   6.198  17.736  0.00  0.00    +0.000 A 
ATOM     28  C   UNL     1      42.210   6.675  17.878  0.00  0.00    +0.000 A 
ATOM     29  C   UNL     1      40.239   5.803  16.482  0.00  0.00    +0.000 C 
ATOM     30  C   UNL     1      39.014   5.052  16.941  0.00  0.00    +0.000 C 
ATOM     31  C   UNL     1      38.772   5.489  18.374  0.00  0.00    +0.000 C 
ENDBRANCH  22  23
ENDBRANCH  21  22
ENDBRANCH   4  21
TORSDOF 6
ENDMDL
MODEL 6
REMARK VINA RESULT:      -7.9     22.868     26.729
REMARK  Name = 
REMARK  6 active torsions:
REMARK  status: ('A' for Active; 'I' for Inactive)
REMARK    1  A    between atoms: C_2  and  C_16
REMARK    2  A    between atoms: N_3  and  N_4
REMARK    3  A    between atoms: C_5  and  C_6
REMARK    4  A    between atoms: C_19  and  C_20
REMARK    5  A    between atoms: C_20  and  O_21
REMARK    6  A    between atoms: O_21  and  C_22
REMARK                            x       y       z     vdW  Elec       q    Type
REMARK                         _______ _______ _______ _____ _____    ______ ____
ROOT
ATOM      1  C   UNL     1      38.019   5.075  14.894  0.00  0.00    +0.000 A 
ATOM      2  C   UNL     1      38.569   5.358  13.637  0.00  0.00    +0.000 A 
ATOM      3  C   UNL     1      39.346   6.481  13.773  0.00  0.00    +0.000 A 
ATOM      4  C   UNL     1      39.257   6.857  15.097  0.00  0.00    +0.000 A 
ATOM      5  O   UNL     1      38.460   5.989  15.706  0.00  0.00    +0.000 OA
ENDROOT
BRANCH   1   7
ATOM      6  O   UNL     1      36.043   3.829  14.579  0.00  0.00    +0.000 OA
ATOM      7  C   UNL     1      37.129   3.959  15.180  0.00  0.00    +0.000 C 
ATOM      8  N   UNL     1      37.488   2.998  16.154  0.00  0.00    +0.000 NA
BRANCH   8   9
ATOM      9  N   UNL     1      36.631   1.905  16.444  0.00  0.00    +0.000 NA
ATOM     10  C   UNL     1      36.778   0.757  15.922  0.00  0.00    +0.000 C 
BRANCH  10  11
ATOM     11  C   UNL     1      35.916  -0.384  16.199  0.00  0.00    +0.000 A 
ATOM     12  C   UNL     1      34.894  -0.294  17.118  0.00  0.00    +0.000 A 
ATOM     13  C   UNL     1      34.076  -1.403  17.370  0.00  0.00    +0.000 A 
ATOM     14  C   UNL     1      34.277  -2.606  16.703  0.00  0.00    +0.000 A 
ATOM     15  C   UNL     1      35.304  -2.687  15.782  0.00  0.00    +0.000 A 
ATOM     16  C   UNL     1      35.483  -3.888  15.136  0.00  0.00    +0.000 A 
ATOM     17  C   UNL     1      36.501  -4.015  14.203  0.00  0.00    +0.000 A 
ATOM     18  C   UNL     1      37.287  -2.900  13.983  0.00  0.00    +0.000 A 
ATOM     19  N   UNL     1      37.096  -1.739  14.624  0.00  0.00    +0.000 NA
ATOM     20  C   UNL     1      36.113  -1.577  15.539  0.00  0.00    +0.000 A 
ENDBRANCH  10  11
ENDBRANCH   8   9
ENDBRANCH   1   7
BRANCH   4  21
ATOM     21  C   UNL     1      39.913   8.020  15.783  0.00  0.00    +0.000 C 
BRANCH  21  22
ATOM     22  O   UNL     1      39.491   8.029  17.117  0.00  0.00    +0.000 OA
BRANCH  22  23
ATOM     23  C   UNL     1      40.309   7.523  18.110  0.00  0.00    +0.000 A 
ATOM     24  C   UNL     1      39.756   7.049  19.273  0.00  0.00    +0.000 A 
ATOM     25  C   UNL     1      40.531   6.537  20.288  0.00  0.00    +0.000 A 
ATOM     26  C   UNL     1      41.905   6.494  20.145  0.00  0.00    +0.000 A 
ATOM     27  C   UNL     1      42.450   6.973  18.974  0.00  0.00    +0.000 A 
ATOM     28  C   UNL     1      41.691   7.483  17.959  0.00  0.00    +0.000 A 
ATOM     29  C   UNL     1      43.931   6.832  19.030  0.00  0.00    +0.000 C 
ATOM     30  C   UNL     1      44.237   6.535  20.477  0.00  0.00    +0.000 C 
ATOM     31  C   UNL     1      42.948   6.000  21.073  0.00  0.00    +0.000 C 
ENDBRANCH  22  23
ENDBRANCH  21  22
ENDBRANCH   4  21
TORSDOF 6
ENDMDL
MODEL 7
REMARK VINA RESULT:      -7.9     23.638     25.701
REMARK  Name = 
REMARK  6 active torsions:
REMARK  status: ('A' for Active; 'I' for Inactive)
REMARK    1  A    between atoms: C_2  and  C_16
REMARK    2  A    between atoms: N_3  and  N_4
REMARK    3  A    between atoms: C_5  and  C_6
REMARK    4  A    between atoms: C_19  and  C_20
REMARK    5  A    between atoms: C_20  and  O_21
REMARK    6  A    between atoms: O_21  and  C_22
REMARK                            x       y       z     vdW  Elec       q    Type
REMARK                         _______ _______ _______ _____ _____    ______ ____
ROOT
ATOM      1  C   UNL     1      35.870   5.114  13.739  0.00  0.00    +0.000 A 
ATOM      2  C   UNL     1      35.589   5.774  12.536  0.00  0.00    +0.000 A 
ATOM      3  C   UNL     1      35.522   7.117  12.810  0.00  0.00    +0.000 A 
ATOM      4  C   UNL     1      35.763   7.250  14.162  0.00  0.00    +0.000 A 
ATOM      5  O   UNL     1      35.961   6.034  14.653  0.00  0.00    +0.000 OA
ENDROOT
BRANCH   1   7
ATOM      6  O   UNL     1      36.758   3.023  13.109  0.00  0.00    +0.000 OA
ATOM      7  C   UNL     1      36.023   3.673  13.882  0.00  0.00    +0.000 C 
ATOM      8  N   UNL     1      35.335   2.985  14.907  0.00  0.00    +0.000 NA
BRANCH   8   9
ATOM      9  N   UNL     1      35.474   1.581  15.058  0.00  0.00    +0.000 NA
ATOM     10  C   UNL     1      35.828   1.037  16.149  0.00  0.00    +0.000 C 
BRANCH  10  11
ATOM     11  C   UNL     1      35.980  -0.399  16.335  0.00  0.00    +0.000 A 
ATOM     12  C   UNL     1      34.933  -1.170  16.791  0.00  0.00    +0.000 A 
ATOM     13  C   UNL     1      35.100  -2.550  16.964  0.00  0.00    +0.000 A 
ATOM     14  C   UNL     1      36.314  -3.164  16.681  0.00  0.00    +0.000 A 
ATOM     15  C   UNL     1      37.359  -2.384  16.224  0.00  0.00    +0.000 A 
ATOM     16  C   UNL     1      38.550  -3.015  15.951  0.00  0.00    +0.000 A 
ATOM     17  C   UNL     1      39.625  -2.272  15.490  0.00  0.00    +0.000 A 
ATOM     18  C   UNL     1      39.423  -0.915  15.333  0.00  0.00    +0.000 A 
ATOM     19  N   UNL     1      38.254  -0.318  15.604  0.00  0.00    +0.000 NA
ATOM     20  C   UNL     1      37.183  -1.010  16.055  0.00  0.00    +0.000 A 
ENDBRANCH  10  11
ENDBRANCH   8   9
ENDBRANCH   1   7
BRANCH   4  21
ATOM     21  C   UNL     1      35.806   8.505  14.984  0.00  0.00    +0.000 C 
BRANCH  21  22
ATOM     22  O   UNL     1      37.143   8.765  15.305  0.00  0.00    +0.000 OA
BRANCH  22  23
ATOM     23  C   UNL     1      37.625   8.477  16.567  0.00  0.00    +0.000 A 
ATOM     24  C   UNL     1      37.283   9.278  17.627  0.00  0.00    +0.000 A 
ATOM     25  C   UNL     1      37.739   9.030  18.901  0.00  0.00    +0.000 A 
ATOM     26  C   UNL     1      38.565   7.945  19.133  0.00  0.00    +0.000 A 
ATOM     27  C   UNL     1      38.903   7.147  18.062  0.00  0.00    +0.000 A 
ATOM     28  C   UNL     1      38.456   7.385  16.793  0.00  0.00    +0.000 A 
ATOM     29  C   UNL     1      39.791   6.049  18.531  0.00  0.00    +0.000 C 
ATOM     30  C   UNL     1      40.219   6.462  19.918  0.00  0.00    +0.000 C 
ATOM     31  C   UNL     1      39.183   7.466  20.389  0.00  0.00    +0.000 C 
ENDBRANCH  22  23
ENDBRANCH  21  22
ENDBRANCH   4  21
TORSDOF 6
ENDMDL
MODEL 8
REMARK VINA RESULT:      -7.9     18.885     21.470
REMARK  Name = 
REMARK  6 active torsions:
REMARK  status: ('A' for Active; 'I' for Inactive)
REMARK    1  A    between atoms: C_2  and  C_16
REMARK    2  A    between atoms: N_3  and  N_4
REMARK    3  A    between atoms: C_5  and  C_6
REMARK    4  A    between atoms: C_19  and  C_20
REMARK    5  A    between atoms: C_20  and  O_21
REMARK    6  A    between atoms: O_21  and  C_22
REMARK                            x       y       z     vdW  Elec       q    Type
REMARK                         _______ _______ _______ _____ _____    ______ ____
ROOT
ATOM      1  C   UNL     1      24.258  15.767  40.916  0.00  0.00    +0.000 A 
ATOM      2  C   UNL     1      23.245  16.554  41.478  0.00  0.00    +0.000 A 
ATOM      3  C   UNL     1      23.010  17.597  40.617  0.00  0.00    +0.000 A 
ATOM      4  C   UNL     1      23.875  17.427  39.556  0.00  0.00    +0.000 A 
ATOM      5  O   UNL     1      24.584  16.331  39.790  0.00  0.00    +0.000 OA
ENDROOT
BRANCH   1   7
ATOM      6  O   UNL     1      24.661  14.324  42.736  0.00  0.00    +0.000 OA
ATOM      7  C   UNL     1      24.804  14.559  41.517  0.00  0.00    +0.000 C 
ATOM      8  N   UNL     1      25.511  13.628  40.722  0.00  0.00    +0.000 NA
BRANCH   8   9
ATOM      9  N   UNL     1      26.048  12.446  41.295  0.00  0.00    +0.000 NA
ATOM     10  C   UNL     1      26.790  11.643  40.650  0.00  0.00    +0.000 C 
BRANCH  10  11
ATOM     11  C   UNL     1      27.357  10.424  41.209  0.00  0.00    +0.000 A 
ATOM     12  C   UNL     1      28.617   9.998  40.851  0.00  0.00    +0.000 A 
ATOM     13  C   UNL     1      29.144   8.823  41.401  0.00  0.00    +0.000 A 
ATOM     14  C   UNL     1      28.413   8.068  42.310  0.00  0.00    +0.000 A 
ATOM     15  C   UNL     1      27.150   8.502  42.664  0.00  0.00    +0.000 A 
ATOM     16  C   UNL     1      26.446   7.739  43.566  0.00  0.00    +0.000 A 
ATOM     17  C   UNL     1      25.175   8.136  43.950  0.00  0.00    +0.000 A 
ATOM     18  C   UNL     1      24.689   9.300  43.387  0.00  0.00    +0.000 A 
ATOM     19  N   UNL     1      25.391  10.030  42.510  0.00  0.00    +0.000 NA
ATOM     20  C   UNL     1      26.634   9.675  42.112  0.00  0.00    +0.000 A 
ENDBRANCH  10  11
ENDBRANCH   8   9
ENDBRANCH   1   7
BRANCH   4  21
ATOM     21  C   UNL     1      24.034  18.286  38.335  0.00  0.00    +0.000 C 
BRANCH  21  22
ATOM     22  O   UNL     1      25.209  17.896  37.683  0.00  0.00    +0.000 OA
BRANCH  22  23
ATOM     23  C   UNL     1      25.169  17.474  36.368  0.00  0.00    +0.000 A 
ATOM     24  C   UNL     1      24.774  18.346  35.384  0.00  0.00    +0.000 A 
ATOM     25  C   UNL     1      24.719  17.970  34.062  0.00  0.00    +0.000 A 
ATOM     26  C   UNL     1      25.069  16.682  33.701  0.00  0.00    +0.000 A 
ATOM     27  C   UNL     1      25.464  15.815  34.696  0.00  0.00    +0.000 A 
ATOM     28  C   UNL     1      25.522  16.178  36.012  0.00  0.00    +0.000 A 
ATOM     29  C   UNL     1      25.793  14.495  34.093  0.00  0.00    +0.000 C 
ATOM     30  C   UNL     1      25.236  14.560  32.692  0.00  0.00    +0.000 C 
ATOM     31  C   UNL     1      25.095  16.037  32.370  0.00  0.00    +0.000 C 
ENDBRANCH  22  23
ENDBRANCH  21  22
ENDBRANCH   4  21
TORSDOF 6
ENDMDL
MODEL 9
REMARK VINA RESULT:      -7.8     23.024     27.145
REMARK  Name = 
REMARK  6 active torsions:
REMARK  status: ('A' for Active; 'I' for Inactive)
REMARK    1  A    between atoms: C_2  and  C_16
REMARK    2  A    between atoms: N_3  and  N_4
REMARK    3  A    between atoms: C_5  and  C_6
REMARK    4  A    between atoms: C_19  and  C_20
REMARK    5  A    between atoms: C_20  and  O_21
REMARK    6  A    between atoms: O_21  and  C_22
REMARK                            x       y       z     vdW  Elec       q    Type
REMARK                         _______ _______ _______ _____ _____    ______ ____
ROOT
ATOM      1  C   UNL     1      35.423   0.361  16.455  0.00  0.00    +0.000 A 
ATOM      2  C   UNL     1      34.827  -0.365  17.494  0.00  0.00    +0.000 A 
ATOM      3  C   UNL     1      34.859  -1.691  17.140  0.00  0.00    +0.000 A 
ATOM      4  C   UNL     1      35.469  -1.748  15.904  0.00  0.00    +0.000 A 
ATOM      5  O   UNL     1      35.779  -0.507  15.554  0.00  0.00    +0.000 OA
ENDROOT
BRANCH   1   7
ATOM      6  O   UNL     1      34.632   2.562  16.162  0.00  0.00    +0.000 OA
ATOM      7  C   UNL     1      35.588   1.807  16.437  0.00  0.00    +0.000 C 
ATOM      8  N   UNL     1      36.845   2.381  16.734  0.00  0.00    +0.000 NA
BRANCH   8   9
ATOM      9  N   UNL     1      37.021   3.789  16.721  0.00  0.00    +0.000 NA
ATOM     10  C   UNL     1      38.159   4.343  16.807  0.00  0.00    +0.000 C 
BRANCH  10  11
ATOM     11  C   UNL     1      38.372   5.784  16.796  0.00  0.00    +0.000 A 
ATOM     12  C   UNL     1      37.884   6.565  15.772  0.00  0.00    +0.000 A 
ATOM     13  C   UNL     1      38.100   7.949  15.781  0.00  0.00    +0.000 A 
ATOM     14  C   UNL     1      38.802   8.557  16.814  0.00  0.00    +0.000 A 
ATOM     15  C   UNL     1      39.288   7.766  17.838  0.00  0.00    +0.000 A 
ATOM     16  C   UNL     1      39.980   8.391  18.848  0.00  0.00    +0.000 A 
ATOM     17  C   UNL     1      40.484   7.637  19.896  0.00  0.00    +0.000 A 
ATOM     18  C   UNL     1      40.253   6.276  19.852  0.00  0.00    +0.000 A 
ATOM     19  N   UNL     1      39.576   5.686  18.858  0.00  0.00    +0.000 NA
ATOM     20  C   UNL     1      39.068   6.388  17.820  0.00  0.00    +0.000 A 
ENDBRANCH  10  11
ENDBRANCH   8   9
ENDBRANCH   1   7
BRANCH   4  21
ATOM     21  C   UNL     1      35.759  -2.956  15.061  0.00  0.00    +0.000 C 
BRANCH  21  22
ATOM     22  O   UNL     1      37.011  -3.455  15.437  0.00  0.00    +0.000 OA
BRANCH  22  23
ATOM     23  C   UNL     1      38.160  -2.978  14.835  0.00  0.00    +0.000 A 
ATOM     24  C   UNL     1      39.158  -2.436  15.605  0.00  0.00    +0.000 A 
ATOM     25  C   UNL     1      40.319  -1.949  15.050  0.00  0.00    +0.000 A 
ATOM     26  C   UNL     1      40.496  -2.001  13.680  0.00  0.00    +0.000 A 
ATOM     27  C   UNL     1      39.489  -2.546  12.916  0.00  0.00    +0.000 A 
ATOM     28  C   UNL     1      38.332  -3.033  13.456  0.00  0.00    +0.000 A 
ATOM     29  C   UNL     1      39.884  -2.503  11.481  0.00  0.00    +0.000 C 
ATOM     30  C   UNL     1      41.075  -1.578  11.435  0.00  0.00    +0.000 C 
ATOM     31  C   UNL     1      41.634  -1.551  12.846  0.00  0.00    +0.000 C 
ENDBRANCH  22  23
ENDBRANCH  21  22
ENDBRANCH   4  21
TORSDOF 6
ENDMDL
MODEL 10
REMARK VINA RESULT:      -7.8     23.417     25.387
REMARK  Name = 
REMARK  6 active torsions:
REMARK  status: ('A' for Active; 'I' for Inactive)
REMARK    1  A    between atoms: C_2  and  C_16
REMARK    2  A    between atoms: N_3  and  N_4
REMARK    3  A    between atoms: C_5  and  C_6
REMARK    4  A    between atoms: C_19  and  C_20
REMARK    5  A    between atoms: C_20  and  O_21
REMARK    6  A    between atoms: O_21  and  C_22
REMARK                            x       y       z     vdW  Elec       q    Type
REMARK                         _______ _______ _______ _____ _____    ______ ____
ROOT
ATOM      1  C   UNL     1      38.139   4.671  17.157  0.00  0.00    +0.000 A 
ATOM      2  C   UNL     1      38.885   4.800  18.336  0.00  0.00    +0.000 A 
ATOM      3  C   UNL     1      39.076   6.141  18.556  0.00  0.00    +0.000 A 
ATOM      4  C   UNL     1      38.448   6.798  17.518  0.00  0.00    +0.000 A 
ATOM      5  O   UNL     1      37.914   5.877  16.727  0.00  0.00    +0.000 OA
ENDROOT
BRANCH   1   7
ATOM      6  O   UNL     1      38.376   2.874  15.650  0.00  0.00    +0.000 OA
ATOM      7  C   UNL     1      37.721   3.405  16.571  0.00  0.00    +0.000 C 
ATOM      8  N   UNL     1      36.557   2.755  17.042  0.00  0.00    +0.000 NA
BRANCH   8   9
ATOM      9  N   UNL     1      36.138   1.522  16.480  0.00  0.00    +0.000 NA
ATOM     10  C   UNL     1      36.236   0.416  17.095  0.00  0.00    +0.000 C 
BRANCH  10  11
ATOM     11  C   UNL     1      35.815  -0.866  16.546  0.00  0.00    +0.000 A 
ATOM     12  C   UNL     1      34.662  -1.480  16.982  0.00  0.00    +0.000 A 
ATOM     13  C   UNL     1      34.275  -2.713  16.441  0.00  0.00    +0.000 A 
ATOM     14  C   UNL     1      35.039  -3.335  15.462  0.00  0.00    +0.000 A 
ATOM     15  C   UNL     1      36.194  -2.713  15.030  0.00  0.00    +0.000 A 
ATOM     16  C   UNL     1      36.933  -3.349  14.060  0.00  0.00    +0.000 A 
ATOM     17  C   UNL     1      38.099  -2.760  13.596  0.00  0.00    +0.000 A 
ATOM     18  C   UNL     1      38.449  -1.546  14.154  0.00  0.00    +0.000 A 
ATOM     19  N   UNL     1      37.715  -0.942  15.098  0.00  0.00    +0.000 NA
ATOM     20  C   UNL     1      36.571  -1.485  15.574  0.00  0.00    +0.000 A 
ENDBRANCH  10  11
ENDBRANCH   8   9
ENDBRANCH   1   7
BRANCH   4  21
ATOM     21  C   UNL     1      38.351   8.276  17.272  0.00  0.00    +0.000 C 
BRANCH  21  22
ATOM     22  O   UNL     1      37.380   8.794  18.137  0.00  0.00    +0.000 OA
BRANCH  22  23
ATOM     23  C   UNL     1      37.733   9.710  19.110  0.00  0.00    +0.000 A 
ATOM     24  C   UNL     1      38.339   9.278  20.264  0.00  0.00    +0.000 A 
ATOM     25  C   UNL     1      38.707  10.152  21.260  0.00  0.00    +0.000 A 
ATOM     26  C   UNL     1      38.466  11.505  21.107  0.00  0.00    +0.000 A 
ATOM     27  C   UNL     1      37.858  11.928  19.946  0.00  0.00    +0.000 A 
ATOM     28  C   UNL     1      37.488  11.069  18.950  0.00  0.00    +0.000 A 
ATOM     29  C   UNL     1      37.695  13.407  19.988  0.00  0.00    +0.000 C 
ATOM     30  C   UNL     1      37.960  13.784  21.425  0.00  0.00    +0.000 C 
ATOM     31  C   UNL     1      38.760  12.637  22.015  0.00  0.00    +0.000 C 
ENDBRANCH  22  23
ENDBRANCH  21  22
ENDBRANCH   4  21
TORSDOF 6
ENDMDL
