MODEL 1
REMARK VINA RESULT:      -6.9      0.000      0.000
REMARK  Name = 
REMARK  10 active torsions:
REMARK  status: ('A' for Active; 'I' for Inactive)
REMARK    1  A    between atoms: C_2  and  O_3
REMARK    2  A    between atoms: O_3  and  C_4
REMARK    3  A    between atoms: C_4  and  C_6
REMARK    4  A    between atoms: C_8  and  C_9
REMARK    5  A    between atoms: N_15  and  C_16
REMARK    6  A    between atoms: C_16  and  C_17
REMARK    7  A    between atoms: C_17  and  C_18
REMARK    8  A    between atoms: C_18  and  C_19
REMARK    9  A    between atoms: N_21  and  C_22
REMARK   10  A    between atoms: C_27  and  O_28
REMARK                            x       y       z     vdW  Elec       q    Type
REMARK                         _______ _______ _______ _____ _____    ______ ____
ROOT
ATOM      1  C   UNL     1      39.331   5.444  18.110  0.00  0.00    +0.000 A 
ATOM      2  C   UNL     1      38.222   4.639  18.145  0.00  0.00    +0.000 A 
ATOM      3  C   UNL     1      37.938   4.139  16.869  0.00  0.00    +0.000 A 
ATOM      4  N   UNL     1      38.890   4.652  16.075  0.00  0.00    +0.000 N 
ATOM      5  C   UNL     1      39.738   5.441  16.801  0.00  0.00    +0.000 A 
ATOM      6  C   UNL     1      40.916   6.184  16.273  0.00  0.00    +0.000 C 
ENDROOT
BRANCH   3   7
ATOM      7  C   UNL     1      36.811   3.263  16.542  0.00  0.00    +0.000 A 
ATOM      8  C   UNL     1      35.878   3.531  15.580  0.00  0.00    +0.000 A 
ATOM      9  C   UNL     1      34.826   2.651  15.318  0.00  0.00    +0.000 A 
ATOM     10  C   UNL     1      34.706   1.491  16.027  0.00  0.00    +0.000 A 
ATOM     11  C   UNL     1      35.631   1.201  16.998  0.00  0.00    +0.000 A 
ATOM     12  C   UNL     1      36.665   2.085  17.243  0.00  0.00    +0.000 A 
ENDBRANCH   3   7
BRANCH   1  13
ATOM     13  C   UNL     1      39.963   6.163  19.226  0.00  0.00    +0.000 C 
ATOM     14  O   UNL     1      39.223   6.866  19.949  0.00  0.00    +0.000 OA
BRANCH  13  15
ATOM     15  O   UNL     1      41.308   6.077  19.474  0.00  0.00    +0.000 OA
BRANCH  15  17
ATOM     16  C   UNL     1      43.011   6.129  21.198  0.00  0.00    +0.000 C 
ATOM     17  C   UNL     1      41.973   6.935  20.410  0.00  0.00    +0.000 C 
ENDBRANCH  15  17
ENDBRANCH  13  15
ENDBRANCH   1  13
BRANCH   4  18
ATOM     18  C   UNL     1      39.049   4.387  14.648  0.00  0.00    +0.000 C 
BRANCH  18  19
ATOM     19  C   UNL     1      39.473   2.986  14.341  0.00  0.00    +0.000 C 
BRANCH  19  20
ATOM     20  C   UNL     1      38.522   2.186  13.503  0.00  0.00    +0.000 C 
BRANCH  20  21
ATOM     21  C   UNL     1      38.430   0.813  14.055  0.00  0.00    +0.000 C 
ATOM     22  O   UNL     1      37.620  -0.004  13.569  0.00  0.00    +0.000 OA
ATOM     23  N   UNL     1      39.240   0.371  15.140  0.00  0.00    +0.000 NA
BRANCH  23  24
ATOM     24  C   UNL     1      39.092  -0.960  15.614  0.00  0.00    +0.000 A 
ATOM     25  C   UNL     1      38.047  -1.404  16.391  0.00  0.00    +0.000 A 
ATOM     26  C   UNL     1      37.962  -2.725  16.822  0.00  0.00    +0.000 A 
ATOM     27  C   UNL     1      38.953  -3.614  16.463  0.00  0.00    +0.000 A 
ATOM     28  C   UNL     1      39.996  -3.188  15.693  0.00  0.00    +0.000 A 
ATOM     29  C   UNL     1      40.072  -1.867  15.266  0.00  0.00    +0.000 A 
BRANCH  29  30
ATOM     30  O   UNL     1      41.134  -1.470  14.492  0.00  0.00    +0.000 OA
ATOM     31  C   UNL     1      41.768  -2.357  13.622  0.00  0.00    +0.000 C 
ENDBRANCH  29  30
ENDBRANCH  23  24
ENDBRANCH  20  21
ENDBRANCH  19  20
ENDBRANCH  18  19
ENDBRANCH   4  18
TORSDOF 10
ENDMDL
MODEL 2
REMARK VINA RESULT:      -6.7      3.286      7.181
REMARK  Name = 
REMARK  10 active torsions:
REMARK  status: ('A' for Active; 'I' for Inactive)
REMARK    1  A    between atoms: C_2  and  O_3
REMARK    2  A    between atoms: O_3  and  C_4
REMARK    3  A    between atoms: C_4  and  C_6
REMARK    4  A    between atoms: C_8  and  C_9
REMARK    5  A    between atoms: N_15  and  C_16
REMARK    6  A    between atoms: C_16  and  C_17
REMARK    7  A    between atoms: C_17  and  C_18
REMARK    8  A    between atoms: C_18  and  C_19
REMARK    9  A    between atoms: N_21  and  C_22
REMARK   10  A    between atoms: C_27  and  O_28
REMARK                            x       y       z     vdW  Elec       q    Type
REMARK                         _______ _______ _______ _____ _____    ______ ____
ROOT
ATOM      1  C   UNL     1      34.729   5.786  13.979  0.00  0.00    +0.000 A 
ATOM      2  C   UNL     1      34.463   4.599  14.610  0.00  0.00    +0.000 A 
ATOM      3  C   UNL     1      35.584   3.762  14.573  0.00  0.00    +0.000 A 
ATOM      4  N   UNL     1      36.521   4.464  13.916  0.00  0.00    +0.000 N 
ATOM      5  C   UNL     1      36.027   5.685  13.549  0.00  0.00    +0.000 A 
ATOM      6  C   UNL     1      36.764   6.743  12.803  0.00  0.00    +0.000 C 
ENDROOT
BRANCH   3   7
ATOM      7  C   UNL     1      35.642   2.411  15.135  0.00  0.00    +0.000 A 
ATOM      8  C   UNL     1      36.208   1.336  14.507  0.00  0.00    +0.000 A 
ATOM      9  C   UNL     1      36.230   0.073  15.100  0.00  0.00    +0.000 A 
ATOM     10  C   UNL     1      35.680  -0.119  16.334  0.00  0.00    +0.000 A 
ATOM     11  C   UNL     1      35.106   0.946  16.984  0.00  0.00    +0.000 A 
ATOM     12  C   UNL     1      35.094   2.189  16.379  0.00  0.00    +0.000 A 
ENDBRANCH   3   7
BRANCH   1  13
ATOM     13  C   UNL     1      33.830   6.935  13.795  0.00  0.00    +0.000 C 
ATOM     14  O   UNL     1      33.448   7.183  12.630  0.00  0.00    +0.000 OA
BRANCH  13  15
ATOM     15  O   UNL     1      33.420   7.711  14.847  0.00  0.00    +0.000 OA
BRANCH  15  17
ATOM     16  C   UNL     1      35.358   9.104  15.267  0.00  0.00    +0.000 C 
ATOM     17  C   UNL     1      33.847   9.069  15.013  0.00  0.00    +0.000 C 
ENDBRANCH  15  17
ENDBRANCH  13  15
ENDBRANCH   1  13
BRANCH   4  18
ATOM     18  C   UNL     1      37.891   4.030  13.657  0.00  0.00    +0.000 C 
BRANCH  18  19
ATOM     19  C   UNL     1      38.882   4.543  14.652  0.00  0.00    +0.000 C 
BRANCH  19  20
ATOM     20  C   UNL     1      38.971   3.778  15.938  0.00  0.00    +0.000 C 
BRANCH  20  21
ATOM     21  C   UNL     1      38.670   4.693  17.066  0.00  0.00    +0.000 C 
ATOM     22  O   UNL     1      38.081   4.263  18.080  0.00  0.00    +0.000 OA
ATOM     23  N   UNL     1      39.028   6.071  17.047  0.00  0.00    +0.000 NA
BRANCH  23  24
ATOM     24  C   UNL     1      38.704   6.883  18.166  0.00  0.00    +0.000 A 
ATOM     25  C   UNL     1      37.563   7.644  18.279  0.00  0.00    +0.000 A 
ATOM     26  C   UNL     1      37.306   8.420  19.406  0.00  0.00    +0.000 A 
ATOM     27  C   UNL     1      38.220   8.428  20.439  0.00  0.00    +0.000 A 
ATOM     28  C   UNL     1      39.356   7.679  20.341  0.00  0.00    +0.000 A 
ATOM     29  C   UNL     1      39.604   6.907  19.212  0.00  0.00    +0.000 A 
BRANCH  29  30
ATOM     30  O   UNL     1      40.757   6.164  19.144  0.00  0.00    +0.000 OA
ATOM     31  C   UNL     1      41.733   6.250  20.136  0.00  0.00    +0.000 C 
ENDBRANCH  29  30
ENDBRANCH  23  24
ENDBRANCH  20  21
ENDBRANCH  19  20
ENDBRANCH  18  19
ENDBRANCH   4  18
TORSDOF 10
ENDMDL
MODEL 3
REMARK VINA RESULT:      -6.6      1.669      1.953
REMARK  Name = 
REMARK  10 active torsions:
REMARK  status: ('A' for Active; 'I' for Inactive)
REMARK    1  A    between atoms: C_2  and  O_3
REMARK    2  A    between atoms: O_3  and  C_4
REMARK    3  A    between atoms: C_4  and  C_6
REMARK    4  A    between atoms: C_8  and  C_9
REMARK    5  A    between atoms: N_15  and  C_16
REMARK    6  A    between atoms: C_16  and  C_17
REMARK    7  A    between atoms: C_17  and  C_18
REMARK    8  A    between atoms: C_18  and  C_19
REMARK    9  A    between atoms: N_21  and  C_22
REMARK   10  A    between atoms: C_27  and  O_28
REMARK                            x       y       z     vdW  Elec       q    Type
REMARK                         _______ _______ _______ _____ _____    ______ ____
ROOT
ATOM      1  C   UNL     1      39.378   5.744  17.863  0.00  0.00    +0.000 A 
ATOM      2  C   UNL     1      38.211   5.026  17.910  0.00  0.00    +0.000 A 
ATOM      3  C   UNL     1      38.016   4.329  16.713  0.00  0.00    +0.000 A 
ATOM      4  N   UNL     1      39.078   4.636  15.953  0.00  0.00    +0.000 N 
ATOM      5  C   UNL     1      39.910   5.487  16.625  0.00  0.00    +0.000 A 
ATOM      6  C   UNL     1      41.189   6.054  16.113  0.00  0.00    +0.000 C 
ENDROOT
BRANCH   3   7
ATOM      7  C   UNL     1      36.861   3.479  16.415  0.00  0.00    +0.000 A 
ATOM      8  C   UNL     1      35.983   3.698  15.391  0.00  0.00    +0.000 A 
ATOM      9  C   UNL     1      34.901   2.847  15.162  0.00  0.00    +0.000 A 
ATOM     10  C   UNL     1      34.693   1.764  15.966  0.00  0.00    +0.000 A 
ATOM     11  C   UNL     1      35.562   1.524  17.002  0.00  0.00    +0.000 A 
ATOM     12  C   UNL     1      36.628   2.379  17.212  0.00  0.00    +0.000 A 
ENDBRANCH   3   7
BRANCH   1  13
ATOM     13  C   UNL     1      39.953   6.608  18.905  0.00  0.00    +0.000 C 
ATOM     14  O   UNL     1      40.611   6.052  19.812  0.00  0.00    +0.000 OA
BRANCH  13  15
ATOM     15  O   UNL     1      39.782   7.967  18.895  0.00  0.00    +0.000 OA
BRANCH  15  17
ATOM     16  C   UNL     1      38.492   8.916  20.714  0.00  0.00    +0.000 C 
ATOM     17  C   UNL     1      39.879   8.762  20.083  0.00  0.00    +0.000 C 
ENDBRANCH  15  17
ENDBRANCH  13  15
ENDBRANCH   1  13
BRANCH   4  18
ATOM     18  C   UNL     1      39.355   4.116  14.617  0.00  0.00    +0.000 C 
BRANCH  18  19
ATOM     19  C   UNL     1      39.524   2.631  14.573  0.00  0.00    +0.000 C 
BRANCH  19  20
ATOM     20  C   UNL     1      38.631   1.902  13.616  0.00  0.00    +0.000 C 
BRANCH  20  21
ATOM     21  C   UNL     1      38.213   0.618  14.229  0.00  0.00    +0.000 C 
ATOM     22  O   UNL     1      38.741   0.231  15.293  0.00  0.00    +0.000 OA
ATOM     23  N   UNL     1      37.215  -0.216  13.649  0.00  0.00    +0.000 NA
BRANCH  23  24
ATOM     24  C   UNL     1      36.869  -1.432  14.296  0.00  0.00    +0.000 A 
ATOM     25  C   UNL     1      35.932  -1.548  15.297  0.00  0.00    +0.000 A 
ATOM     26  C   UNL     1      35.640  -2.774  15.890  0.00  0.00    +0.000 A 
ATOM     27  C   UNL     1      36.307  -3.903  15.464  0.00  0.00    +0.000 A 
ATOM     28  C   UNL     1      37.239  -3.803  14.472  0.00  0.00    +0.000 A 
ATOM     29  C   UNL     1      37.525  -2.575  13.886  0.00  0.00    +0.000 A 
BRANCH  29  30
ATOM     30  O   UNL     1      38.468  -2.507  12.891  0.00  0.00    +0.000 OA
ATOM     31  C   UNL     1      39.824  -2.679  13.166  0.00  0.00    +0.000 C 
ENDBRANCH  29  30
ENDBRANCH  23  24
ENDBRANCH  20  21
ENDBRANCH  19  20
ENDBRANCH  18  19
ENDBRANCH   4  18
TORSDOF 10
ENDMDL
MODEL 4
REMARK VINA RESULT:      -6.6      2.397      8.025
REMARK  Name = 
REMARK  10 active torsions:
REMARK  status: ('A' for Active; 'I' for Inactive)
REMARK    1  A    between atoms: C_2  and  O_3
REMARK    2  A    between atoms: O_3  and  C_4
REMARK    3  A    between atoms: C_4  and  C_6
REMARK    4  A    between atoms: C_8  and  C_9
REMARK    5  A    between atoms: N_15  and  C_16
REMARK    6  A    between atoms: C_16  and  C_17
REMARK    7  A    between atoms: C_17  and  C_18
REMARK    8  A    between atoms: C_18  and  C_19
REMARK    9  A    between atoms: N_21  and  C_22
REMARK   10  A    between atoms: C_27  and  O_28
REMARK                            x       y       z     vdW  Elec       q    Type
REMARK                         _______ _______ _______ _____ _____    ______ ____
ROOT
ATOM      1  C   UNL     1      36.998  -1.538  15.918  0.00  0.00    +0.000 A 
ATOM      2  C   UNL     1      38.146  -2.159  15.500  0.00  0.00    +0.000 A 
ATOM      3  C   UNL     1      38.884  -1.314  14.663  0.00  0.00    +0.000 A 
ATOM      4  N   UNL     1      38.165  -0.184  14.588  0.00  0.00    +0.000 N 
ATOM      5  C   UNL     1      37.026  -0.297  15.335  0.00  0.00    +0.000 A 
ATOM      6  C   UNL     1      35.975   0.746  15.500  0.00  0.00    +0.000 C 
ENDROOT
BRANCH   3   7
ATOM      7  C   UNL     1      40.153  -1.666  14.024  0.00  0.00    +0.000 A 
ATOM      8  C   UNL     1      40.262  -2.298  12.817  0.00  0.00    +0.000 A 
ATOM      9  C   UNL     1      41.506  -2.605  12.262  0.00  0.00    +0.000 A 
ATOM     10  C   UNL     1      42.655  -2.277  12.923  0.00  0.00    +0.000 A 
ATOM     11  C   UNL     1      42.570  -1.641  14.137  0.00  0.00    +0.000 A 
ATOM     12  C   UNL     1      41.329  -1.346  14.669  0.00  0.00    +0.000 A 
ENDBRANCH   3   7
BRANCH   1  13
ATOM     13  C   UNL     1      35.950  -2.071  16.801  0.00  0.00    +0.000 C 
ATOM     14  O   UNL     1      34.895  -2.472  16.262  0.00  0.00    +0.000 OA
BRANCH  13  15
ATOM     15  O   UNL     1      36.109  -2.131  18.160  0.00  0.00    +0.000 OA
BRANCH  15  17
ATOM     16  C   UNL     1      35.940   0.064  19.172  0.00  0.00    +0.000 C 
ATOM     17  C   UNL     1      36.843  -1.142  18.893  0.00  0.00    +0.000 C 
ENDBRANCH  15  17
ENDBRANCH  13  15
ENDBRANCH   1  13
BRANCH   4  18
ATOM     18  C   UNL     1      38.543   1.024  13.861  0.00  0.00    +0.000 C 
BRANCH  18  19
ATOM     19  C   UNL     1      39.331   1.996  14.678  0.00  0.00    +0.000 C 
BRANCH  19  20
ATOM     20  C   UNL     1      39.046   3.445  14.423  0.00  0.00    +0.000 C 
BRANCH  20  21
ATOM     21  C   UNL     1      38.922   4.149  15.722  0.00  0.00    +0.000 C 
ATOM     22  O   UNL     1      38.231   3.655  16.638  0.00  0.00    +0.000 OA
ATOM     23  N   UNL     1      39.568   5.391  15.983  0.00  0.00    +0.000 NA
BRANCH  23  24
ATOM     24  C   UNL     1      39.401   6.003  17.253  0.00  0.00    +0.000 A 
ATOM     25  C   UNL     1      40.159   5.721  18.366  0.00  0.00    +0.000 A 
ATOM     26  C   UNL     1      39.942   6.360  19.584  0.00  0.00    +0.000 A 
ATOM     27  C   UNL     1      38.940   7.302  19.680  0.00  0.00    +0.000 A 
ATOM     28  C   UNL     1      38.180   7.593  18.584  0.00  0.00    +0.000 A 
ATOM     29  C   UNL     1      38.403   6.950  17.372  0.00  0.00    +0.000 A 
BRANCH  29  30
ATOM     30  O   UNL     1      37.621   7.264  16.288  0.00  0.00    +0.000 OA
ATOM     31  C   UNL     1      37.555   8.568  15.797  0.00  0.00    +0.000 C 
ENDBRANCH  29  30
ENDBRANCH  23  24
ENDBRANCH  20  21
ENDBRANCH  19  20
ENDBRANCH  18  19
ENDBRANCH   4  18
TORSDOF 10
ENDMDL
MODEL 5
REMARK VINA RESULT:      -6.5      2.243      7.176
REMARK  Name = 
REMARK  10 active torsions:
REMARK  status: ('A' for Active; 'I' for Inactive)
REMARK    1  A    between atoms: C_2  and  O_3
REMARK    2  A    between atoms: O_3  and  C_4
REMARK    3  A    between atoms: C_4  and  C_6
REMARK    4  A    between atoms: C_8  and  C_9
REMARK    5  A    between atoms: N_15  and  C_16
REMARK    6  A    between atoms: C_16  and  C_17
REMARK    7  A    between atoms: C_17  and  C_18
REMARK    8  A    between atoms: C_18  and  C_19
REMARK    9  A    between atoms: N_21  and  C_22
REMARK   10  A    between atoms: C_27  and  O_28
REMARK                            x       y       z     vdW  Elec       q    Type
REMARK                         _______ _______ _______ _____ _____    ______ ____
ROOT
ATOM      1  C   UNL     1      39.800  -0.809  14.055  0.00  0.00    +0.000 A 
ATOM      2  C   UNL     1      38.978  -1.241  15.063  0.00  0.00    +0.000 A 
ATOM      3  C   UNL     1      37.698  -0.696  14.919  0.00  0.00    +0.000 A 
ATOM      4  N   UNL     1      37.764   0.064  13.815  0.00  0.00    +0.000 N 
ATOM      5  C   UNL     1      39.021   0.010  13.279  0.00  0.00    +0.000 A 
ATOM      6  C   UNL     1      39.486   0.721  12.055  0.00  0.00    +0.000 C 
ENDROOT
BRANCH   3   7
ATOM      7  C   UNL     1      36.577  -0.933  15.832  0.00  0.00    +0.000 A 
ATOM      8  C   UNL     1      36.212  -0.089  16.844  0.00  0.00    +0.000 A 
ATOM      9  C   UNL     1      35.131  -0.375  17.679  0.00  0.00    +0.000 A 
ATOM     10  C   UNL     1      34.407  -1.518  17.502  0.00  0.00    +0.000 A 
ATOM     11  C   UNL     1      34.754  -2.380  16.492  0.00  0.00    +0.000 A 
ATOM     12  C   UNL     1      35.829  -2.079  15.675  0.00  0.00    +0.000 A 
ENDBRANCH   3   7
BRANCH   1  13
ATOM     13  C   UNL     1      41.215  -1.141  13.835  0.00  0.00    +0.000 C 
ATOM     14  O   UNL     1      42.068  -0.428  14.408  0.00  0.00    +0.000 OA
BRANCH  13  15
ATOM     15  O   UNL     1      41.599  -2.187  13.037  0.00  0.00    +0.000 OA
BRANCH  15  17
ATOM     16  C   UNL     1      40.648  -2.838  10.905  0.00  0.00    +0.000 C 
ATOM     17  C   UNL     1      40.653  -3.069  12.419  0.00  0.00    +0.000 C 
ENDBRANCH  15  17
ENDBRANCH  13  15
ENDBRANCH   1  13
BRANCH   4  18
ATOM     18  C   UNL     1      36.659   0.811  13.222  0.00  0.00    +0.000 C 
BRANCH  18  19
ATOM     19  C   UNL     1      36.366   2.103  13.916  0.00  0.00    +0.000 C 
BRANCH  19  20
ATOM     20  C   UNL     1      37.246   3.257  13.543  0.00  0.00    +0.000 C 
BRANCH  20  21
ATOM     21  C   UNL     1      38.027   3.673  14.733  0.00  0.00    +0.000 C 
ATOM     22  O   UNL     1      38.736   2.841  15.338  0.00  0.00    +0.000 OA
ATOM     23  N   UNL     1      38.007   5.006  15.232  0.00  0.00    +0.000 NA
BRANCH  23  24
ATOM     24  C   UNL     1      38.782   5.327  16.378  0.00  0.00    +0.000 A 
ATOM     25  C   UNL     1      38.424   5.032  17.674  0.00  0.00    +0.000 A 
ATOM     26  C   UNL     1      39.232   5.375  18.755  0.00  0.00    +0.000 A 
ATOM     27  C   UNL     1      40.424   6.028  18.523  0.00  0.00    +0.000 A 
ATOM     28  C   UNL     1      40.793   6.326  17.243  0.00  0.00    +0.000 A 
ATOM     29  C   UNL     1      39.980   5.980  16.169  0.00  0.00    +0.000 A 
BRANCH  29  30
ATOM     30  O   UNL     1      40.378   6.294  14.894  0.00  0.00    +0.000 OA
ATOM     31  C   UNL     1      41.396   5.584  14.258  0.00  0.00    +0.000 C 
ENDBRANCH  29  30
ENDBRANCH  23  24
ENDBRANCH  20  21
ENDBRANCH  19  20
ENDBRANCH  18  19
ENDBRANCH   4  18
TORSDOF 10
ENDMDL
MODEL 6
REMARK VINA RESULT:      -6.5      2.793      7.915
REMARK  Name = 
REMARK  10 active torsions:
REMARK  status: ('A' for Active; 'I' for Inactive)
REMARK    1  A    between atoms: C_2  and  O_3
REMARK    2  A    between atoms: O_3  and  C_4
REMARK    3  A    between atoms: C_4  and  C_6
REMARK    4  A    between atoms: C_8  and  C_9
REMARK    5  A    between atoms: N_15  and  C_16
REMARK    6  A    between atoms: C_16  and  C_17
REMARK    7  A    between atoms: C_17  and  C_18
REMARK    8  A    between atoms: C_18  and  C_19
REMARK    9  A    between atoms: N_21  and  C_22
REMARK   10  A    between atoms: C_27  and  O_28
REMARK                            x       y       z     vdW  Elec       q    Type
REMARK                         _______ _______ _______ _____ _____    ______ ____
ROOT
ATOM      1  C   UNL     1      38.807  -3.235  15.935  0.00  0.00    +0.000 A 
ATOM      2  C   UNL     1      40.117  -2.857  15.792  0.00  0.00    +0.000 A 
ATOM      3  C   UNL     1      40.355  -2.392  14.495  0.00  0.00    +0.000 A 
ATOM      4  N   UNL     1      39.174  -2.495  13.866  0.00  0.00    +0.000 N 
ATOM      5  C   UNL     1      38.228  -3.000  14.715  0.00  0.00    +0.000 A 
ATOM      6  C   UNL     1      36.800  -3.261  14.384  0.00  0.00    +0.000 C 
ENDROOT
BRANCH   3   7
ATOM      7  C   UNL     1      41.650  -1.927  13.993  0.00  0.00    +0.000 A 
ATOM      8  C   UNL     1      42.505  -2.685  13.243  0.00  0.00    +0.000 A 
ATOM      9  C   UNL     1      43.727  -2.179  12.796  0.00  0.00    +0.000 A 
ATOM     10  C   UNL     1      44.099  -0.903  13.103  0.00  0.00    +0.000 A 
ATOM     11  C   UNL     1      43.256  -0.123  13.856  0.00  0.00    +0.000 A 
ATOM     12  C   UNL     1      42.050  -0.642  14.289  0.00  0.00    +0.000 A 
ENDBRANCH   3   7
BRANCH   1  13
ATOM     13  C   UNL     1      38.146  -3.776  17.132  0.00  0.00    +0.000 C 
ATOM     14  O   UNL     1      38.687  -4.754  17.694  0.00  0.00    +0.000 OA
BRANCH  13  15
ATOM     15  O   UNL     1      36.984  -3.240  17.623  0.00  0.00    +0.000 OA
BRANCH  15  17
ATOM     16  C   UNL     1      37.108  -1.744  19.524  0.00  0.00    +0.000 C 
ATOM     17  C   UNL     1      36.877  -1.866  18.015  0.00  0.00    +0.000 C 
ENDBRANCH  15  17
ENDBRANCH  13  15
ENDBRANCH   1  13
BRANCH   4  18
ATOM     18  C   UNL     1      38.897  -2.089  12.491  0.00  0.00    +0.000 C 
BRANCH  18  19
ATOM     19  C   UNL     1      38.822  -0.608  12.305  0.00  0.00    +0.000 C 
BRANCH  19  20
ATOM     20  C   UNL     1      37.577   0.051  12.816  0.00  0.00    +0.000 C 
BRANCH  20  21
ATOM     21  C   UNL     1      37.937   0.966  13.926  0.00  0.00    +0.000 C 
ATOM     22  O   UNL     1      38.647   0.557  14.869  0.00  0.00    +0.000 OA
ATOM     23  N   UNL     1      37.502   2.321  13.971  0.00  0.00    +0.000 NA
BRANCH  23  24
ATOM     24  C   UNL     1      37.888   3.135  15.068  0.00  0.00    +0.000 A 
ATOM     25  C   UNL     1      39.008   3.934  15.097  0.00  0.00    +0.000 A 
ATOM     26  C   UNL     1      39.329   4.710  16.207  0.00  0.00    +0.000 A 
ATOM     27  C   UNL     1      38.503   4.678  17.311  0.00  0.00    +0.000 A 
ATOM     28  C   UNL     1      37.389   3.890  17.298  0.00  0.00    +0.000 A 
ATOM     29  C   UNL     1      37.075   3.119  16.184  0.00  0.00    +0.000 A 
BRANCH  29  30
ATOM     30  O   UNL     1      35.947   2.337  16.202  0.00  0.00    +0.000 OA
ATOM     31  C   UNL     1      35.640   1.534  17.300  0.00  0.00    +0.000 C 
ENDBRANCH  29  30
ENDBRANCH  23  24
ENDBRANCH  20  21
ENDBRANCH  19  20
ENDBRANCH  18  19
ENDBRANCH   4  18
TORSDOF 10
ENDMDL
MODEL 7
REMARK VINA RESULT:      -6.4     22.942     26.019
REMARK  Name = 
REMARK  10 active torsions:
REMARK  status: ('A' for Active; 'I' for Inactive)
REMARK    1  A    between atoms: C_2  and  O_3
REMARK    2  A    between atoms: O_3  and  C_4
REMARK    3  A    between atoms: C_4  and  C_6
REMARK    4  A    between atoms: C_8  and  C_9
REMARK    5  A    between atoms: N_15  and  C_16
REMARK    6  A    between atoms: C_16  and  C_17
REMARK    7  A    between atoms: C_17  and  C_18
REMARK    8  A    between atoms: C_18  and  C_19
REMARK    9  A    between atoms: N_21  and  C_22
REMARK   10  A    between atoms: C_27  and  O_28
REMARK                            x       y       z     vdW  Elec       q    Type
REMARK                         _______ _______ _______ _____ _____    ______ ____
ROOT
ATOM      1  C   UNL     1      26.363  15.011  38.472  0.00  0.00    +0.000 A 
ATOM      2  C   UNL     1      25.611  14.968  37.327  0.00  0.00    +0.000 A 
ATOM      3  C   UNL     1      26.341  15.467  36.242  0.00  0.00    +0.000 A 
ATOM      4  N   UNL     1      27.535  15.805  36.753  0.00  0.00    +0.000 N 
ATOM      5  C   UNL     1      27.570  15.540  38.093  0.00  0.00    +0.000 A 
ATOM      6  C   UNL     1      28.720  15.781  39.008  0.00  0.00    +0.000 C 
ENDROOT
BRANCH   3   7
ATOM      7  C   UNL     1      25.836  15.584  34.873  0.00  0.00    +0.000 A 
ATOM      8  C   UNL     1      25.870  14.578  33.948  0.00  0.00    +0.000 A 
ATOM      9  C   UNL     1      25.370  14.756  32.657  0.00  0.00    +0.000 A 
ATOM     10  C   UNL     1      24.832  15.953  32.285  0.00  0.00    +0.000 A 
ATOM     11  C   UNL     1      24.787  16.978  33.198  0.00  0.00    +0.000 A 
ATOM     12  C   UNL     1      25.287  16.782  34.472  0.00  0.00    +0.000 A 
ENDBRANCH   3   7
BRANCH   1  13
ATOM     13  C   UNL     1      25.976  14.585  39.826  0.00  0.00    +0.000 C 
ATOM     14  O   UNL     1      25.748  15.482  40.666  0.00  0.00    +0.000 OA
BRANCH  13  15
ATOM     15  O   UNL     1      25.867  13.262  40.166  0.00  0.00    +0.000 OA
BRANCH  15  17
ATOM     16  C   UNL     1      26.171  11.620  41.921  0.00  0.00    +0.000 C 
ATOM     17  C   UNL     1      26.857  12.587  40.951  0.00  0.00    +0.000 C 
ENDBRANCH  15  17
ENDBRANCH  13  15
ENDBRANCH   1  13
BRANCH   4  18
ATOM     18  C   UNL     1      28.668  16.338  36.001  0.00  0.00    +0.000 C 
BRANCH  18  19
ATOM     19  C   UNL     1      29.563  15.283  35.434  0.00  0.00    +0.000 C 
BRANCH  19  20
ATOM     20  C   UNL     1      30.852  15.769  34.844  0.00  0.00    +0.000 C 
BRANCH  20  21
ATOM     21  C   UNL     1      31.895  14.734  35.045  0.00  0.00    +0.000 C 
ATOM     22  O   UNL     1      32.215  13.976  34.105  0.00  0.00    +0.000 OA
ATOM     23  N   UNL     1      32.566  14.558  36.289  0.00  0.00    +0.000 NA
BRANCH  23  24
ATOM     24  C   UNL     1      33.554  13.545  36.403  0.00  0.00    +0.000 A 
ATOM     25  C   UNL     1      34.870  13.686  36.026  0.00  0.00    +0.000 A 
ATOM     26  C   UNL     1      35.789  12.650  36.167  0.00  0.00    +0.000 A 
ATOM     27  C   UNL     1      35.371  11.447  36.697  0.00  0.00    +0.000 A 
ATOM     28  C   UNL     1      34.069  11.293  37.075  0.00  0.00    +0.000 A 
ATOM     29  C   UNL     1      33.158  12.333  36.932  0.00  0.00    +0.000 A 
BRANCH  29  30
ATOM     30  O   UNL     1      31.855  12.146  37.321  0.00  0.00    +0.000 OA
ATOM     31  C   UNL     1      31.504  12.087  38.670  0.00  0.00    +0.000 C 
ENDBRANCH  29  30
ENDBRANCH  23  24
ENDBRANCH  20  21
ENDBRANCH  19  20
ENDBRANCH  18  19
ENDBRANCH   4  18
TORSDOF 10
ENDMDL
MODEL 8
REMARK VINA RESULT:      -6.4      2.444      8.500
REMARK  Name = 
REMARK  10 active torsions:
REMARK  status: ('A' for Active; 'I' for Inactive)
REMARK    1  A    between atoms: C_2  and  O_3
REMARK    2  A    between atoms: O_3  and  C_4
REMARK    3  A    between atoms: C_4  and  C_6
REMARK    4  A    between atoms: C_8  and  C_9
REMARK    5  A    between atoms: N_15  and  C_16
REMARK    6  A    between atoms: C_16  and  C_17
REMARK    7  A    between atoms: C_17  and  C_18
REMARK    8  A    between atoms: C_18  and  C_19
REMARK    9  A    between atoms: N_21  and  C_22
REMARK   10  A    between atoms: C_27  and  O_28
REMARK                            x       y       z     vdW  Elec       q    Type
REMARK                         _______ _______ _______ _____ _____    ______ ____
ROOT
ATOM      1  C   UNL     1      36.902  -1.353  16.413  0.00  0.00    +0.000 A 
ATOM      2  C   UNL     1      37.997  -1.318  15.590  0.00  0.00    +0.000 A 
ATOM      3  C   UNL     1      38.091  -0.078  14.951  0.00  0.00    +0.000 A 
ATOM      4  N   UNL     1      37.043   0.628  15.403  0.00  0.00    +0.000 N 
ATOM      5  C   UNL     1      36.313  -0.121  16.284  0.00  0.00    +0.000 A 
ATOM      6  C   UNL     1      35.078   0.313  16.994  0.00  0.00    +0.000 C 
ENDROOT
BRANCH   3   7
ATOM      7  C   UNL     1      39.130   0.294  13.989  0.00  0.00    +0.000 A 
ATOM      8  C   UNL     1      40.282   0.957  14.311  0.00  0.00    +0.000 A 
ATOM      9  C   UNL     1      41.233   1.282  13.343  0.00  0.00    +0.000 A 
ATOM     10  C   UNL     1      41.031   0.942  12.037  0.00  0.00    +0.000 A 
ATOM     11  C   UNL     1      39.882   0.276  11.689  0.00  0.00    +0.000 A 
ATOM     12  C   UNL     1      38.952  -0.037  12.663  0.00  0.00    +0.000 A 
ENDBRANCH   3   7
BRANCH   1  13
ATOM     13  C   UNL     1      36.441  -2.462  17.262  0.00  0.00    +0.000 C 
ATOM     14  O   UNL     1      36.795  -2.452  18.462  0.00  0.00    +0.000 OA
BRANCH  13  15
ATOM     15  O   UNL     1      35.656  -3.472  16.772  0.00  0.00    +0.000 OA
BRANCH  15  17
ATOM     16  C   UNL     1      34.690  -4.219  14.679  0.00  0.00    +0.000 C 
ATOM     17  C   UNL     1      34.586  -3.236  15.848  0.00  0.00    +0.000 C 
ENDBRANCH  15  17
ENDBRANCH  13  15
ENDBRANCH   1  13
BRANCH   4  18
ATOM     18  C   UNL     1      36.729   2.011  15.058  0.00  0.00    +0.000 C 
BRANCH  18  19
ATOM     19  C   UNL     1      36.893   2.966  16.196  0.00  0.00    +0.000 C 
BRANCH  19  20
ATOM     20  C   UNL     1      37.450   4.312  15.842  0.00  0.00    +0.000 C 
BRANCH  20  21
ATOM     21  C   UNL     1      38.248   4.819  16.985  0.00  0.00    +0.000 C 
ATOM     22  O   UNL     1      38.412   4.108  17.998  0.00  0.00    +0.000 OA
ATOM     23  N   UNL     1      38.851   6.109  16.982  0.00  0.00    +0.000 NA
BRANCH  23  24
ATOM     24  C   UNL     1      39.600   6.524  18.114  0.00  0.00    +0.000 A 
ATOM     25  C   UNL     1      40.920   6.206  18.341  0.00  0.00    +0.000 A 
ATOM     26  C   UNL     1      41.597   6.647  19.474  0.00  0.00    +0.000 A 
ATOM     27  C   UNL     1      40.929   7.423  20.398  0.00  0.00    +0.000 A 
ATOM     28  C   UNL     1      39.620   7.746  20.187  0.00  0.00    +0.000 A 
ATOM     29  C   UNL     1      38.951   7.302  19.051  0.00  0.00    +0.000 A 
BRANCH  29  30
ATOM     30  O   UNL     1      37.634   7.644  18.869  0.00  0.00    +0.000 OA
ATOM     31  C   UNL     1      37.046   8.676  19.600  0.00  0.00    +0.000 C 
ENDBRANCH  29  30
ENDBRANCH  23  24
ENDBRANCH  20  21
ENDBRANCH  19  20
ENDBRANCH  18  19
ENDBRANCH   4  18
TORSDOF 10
ENDMDL
MODEL 9
REMARK VINA RESULT:      -6.3     22.501     26.124
REMARK  Name = 
REMARK  10 active torsions:
REMARK  status: ('A' for Active; 'I' for Inactive)
REMARK    1  A    between atoms: C_2  and  O_3
REMARK    2  A    between atoms: O_3  and  C_4
REMARK    3  A    between atoms: C_4  and  C_6
REMARK    4  A    between atoms: C_8  and  C_9
REMARK    5  A    between atoms: N_15  and  C_16
REMARK    6  A    between atoms: C_16  and  C_17
REMARK    7  A    between atoms: C_17  and  C_18
REMARK    8  A    between atoms: C_18  and  C_19
REMARK    9  A    between atoms: N_21  and  C_22
REMARK   10  A    between atoms: C_27  and  O_28
REMARK                            x       y       z     vdW  Elec       q    Type
REMARK                         _______ _______ _______ _____ _____    ______ ____
ROOT
ATOM      1  C   UNL     1      25.657  15.279  38.879  0.00  0.00    +0.000 A 
ATOM      2  C   UNL     1      25.090  15.161  37.636  0.00  0.00    +0.000 A 
ATOM      3  C   UNL     1      25.967  15.627  36.651  0.00  0.00    +0.000 A 
ATOM      4  N   UNL     1      27.062  16.023  37.318  0.00  0.00    +0.000 N 
ATOM      5  C   UNL     1      26.896  15.823  38.660  0.00  0.00    +0.000 A 
ATOM      6  C   UNL     1      27.889  16.140  39.725  0.00  0.00    +0.000 C 
ENDROOT
BRANCH   3   7
ATOM      7  C   UNL     1      25.674  15.664  35.216  0.00  0.00    +0.000 A 
ATOM      8  C   UNL     1      25.852  14.611  34.363  0.00  0.00    +0.000 A 
ATOM      9  C   UNL     1      25.552  14.713  33.004  0.00  0.00    +0.000 A 
ATOM     10  C   UNL     1      25.071  15.883  32.491  0.00  0.00    +0.000 A 
ATOM     11  C   UNL     1      24.884  16.954  33.328  0.00  0.00    +0.000 A 
ATOM     12  C   UNL     1      25.187  16.833  34.672  0.00  0.00    +0.000 A 
ENDBRANCH   3   7
BRANCH   1  13
ATOM     13  C   UNL     1      25.077  14.908  40.178  0.00  0.00    +0.000 C 
ATOM     14  O   UNL     1      24.431  15.787  40.791  0.00  0.00    +0.000 OA
BRANCH  13  15
ATOM     15  O   UNL     1      25.230  13.654  40.708  0.00  0.00    +0.000 OA
BRANCH  15  17
ATOM     16  C   UNL     1      26.876  11.894  40.963  0.00  0.00    +0.000 C 
ATOM     17  C   UNL     1      26.398  13.268  41.443  0.00  0.00    +0.000 C 
ENDBRANCH  15  17
ENDBRANCH  13  15
ENDBRANCH   1  13
BRANCH   4  18
ATOM     18  C   UNL     1      28.285  16.550  36.719  0.00  0.00    +0.000 C 
BRANCH  18  19
ATOM     19  C   UNL     1      29.175  15.496  36.144  0.00  0.00    +0.000 C 
BRANCH  19  20
ATOM     20  C   UNL     1      29.560  15.680  34.708  0.00  0.00    +0.000 C 
BRANCH  20  21
ATOM     21  C   UNL     1      31.037  15.779  34.613  0.00  0.00    +0.000 C 
ATOM     22  O   UNL     1      31.611  16.856  34.879  0.00  0.00    +0.000 OA
ATOM     23  N   UNL     1      31.852  14.678  34.223  0.00  0.00    +0.000 NA
BRANCH  23  24
ATOM     24  C   UNL     1      33.260  14.851  34.155  0.00  0.00    +0.000 A 
ATOM     25  C   UNL     1      34.125  14.657  35.208  0.00  0.00    +0.000 A 
ATOM     26  C   UNL     1      35.498  14.844  35.072  0.00  0.00    +0.000 A 
ATOM     27  C   UNL     1      36.007  15.235  33.852  0.00  0.00    +0.000 A 
ATOM     28  C   UNL     1      35.161  15.431  32.799  0.00  0.00    +0.000 A 
ATOM     29  C   UNL     1      33.791  15.242  32.943  0.00  0.00    +0.000 A 
BRANCH  29  30
ATOM     30  O   UNL     1      32.966  15.448  31.865  0.00  0.00    +0.000 OA
ATOM     31  C   UNL     1      33.024  16.628  31.124  0.00  0.00    +0.000 C 
ENDBRANCH  29  30
ENDBRANCH  23  24
ENDBRANCH  20  21
ENDBRANCH  19  20
ENDBRANCH  18  19
ENDBRANCH   4  18
TORSDOF 10
ENDMDL
MODEL 10
REMARK VINA RESULT:      -6.3      2.570      5.337
REMARK  Name = 
REMARK  10 active torsions:
REMARK  status: ('A' for Active; 'I' for Inactive)
REMARK    1  A    between atoms: C_2  and  O_3
REMARK    2  A    between atoms: O_3  and  C_4
REMARK    3  A    between atoms: C_4  and  C_6
REMARK    4  A    between atoms: C_8  and  C_9
REMARK    5  A    between atoms: N_15  and  C_16
REMARK    6  A    between atoms: C_16  and  C_17
REMARK    7  A    between atoms: C_17  and  C_18
REMARK    8  A    between atoms: C_18  and  C_19
REMARK    9  A    between atoms: N_21  and  C_22
REMARK   10  A    between atoms: C_27  and  O_28
REMARK                            x       y       z     vdW  Elec       q    Type
REMARK                         _______ _______ _______ _____ _____    ______ ____
ROOT
ATOM      1  C   UNL     1      36.542   3.092  16.329  0.00  0.00    +0.000 A 
ATOM      2  C   UNL     1      37.410   3.581  17.271  0.00  0.00    +0.000 A 
ATOM      3  C   UNL     1      38.209   4.591  16.724  0.00  0.00    +0.000 A 
ATOM      4  N   UNL     1      37.808   4.700  15.448  0.00  0.00    +0.000 N 
ATOM      5  C   UNL     1      36.806   3.807  15.189  0.00  0.00    +0.000 A 
ATOM      6  C   UNL     1      36.106   3.624  13.887  0.00  0.00    +0.000 C 
ENDROOT
BRANCH   3   7
ATOM      7  C   UNL     1      39.256   5.317  17.446  0.00  0.00    +0.000 A 
ATOM      8  C   UNL     1      40.390   5.816  16.869  0.00  0.00    +0.000 A 
ATOM      9  C   UNL     1      41.350   6.500  17.616  0.00  0.00    +0.000 A 
ATOM     10  C   UNL     1      41.176   6.686  18.957  0.00  0.00    +0.000 A 
ATOM     11  C   UNL     1      40.045   6.193  19.559  0.00  0.00    +0.000 A 
ATOM     12  C   UNL     1      39.105   5.518  18.802  0.00  0.00    +0.000 A 
ENDBRANCH   3   7
BRANCH   1  13
ATOM     13  C   UNL     1      35.537   2.031  16.488  0.00  0.00    +0.000 C 
ATOM     14  O   UNL     1      34.338   2.381  16.546  0.00  0.00    +0.000 OA
BRANCH  13  15
ATOM     15  O   UNL     1      35.886   0.708  16.572  0.00  0.00    +0.000 OA
BRANCH  15  17
ATOM     16  C   UNL     1      37.475  -1.078  16.177  0.00  0.00    +0.000 C 
ATOM     17  C   UNL     1      36.645   0.048  15.552  0.00  0.00    +0.000 C 
ENDBRANCH  15  17
ENDBRANCH  13  15
ENDBRANCH   1  13
BRANCH   4  18
ATOM     18  C   UNL     1      38.317   5.656  14.470  0.00  0.00    +0.000 C 
BRANCH  18  19
ATOM     19  C   UNL     1      39.092   5.024  13.358  0.00  0.00    +0.000 C 
BRANCH  19  20
ATOM     20  C   UNL     1      40.443   4.491  13.727  0.00  0.00    +0.000 C 
BRANCH  20  21
ATOM     21  C   UNL     1      40.489   3.040  13.422  0.00  0.00    +0.000 C 
ATOM     22  O   UNL     1      41.230   2.615  12.510  0.00  0.00    +0.000 OA
ATOM     23  N   UNL     1      39.710   2.085  14.135  0.00  0.00    +0.000 NA
BRANCH  23  24
ATOM     24  C   UNL     1      39.807   0.713  13.783  0.00  0.00    +0.000 A 
ATOM     25  C   UNL     1      40.679  -0.184  14.359  0.00  0.00    +0.000 A 
ATOM     26  C   UNL     1      40.723  -1.519  13.967  0.00  0.00    +0.000 A 
ATOM     27  C   UNL     1      39.872  -1.957  12.974  0.00  0.00    +0.000 A 
ATOM     28  C   UNL     1      39.002  -1.079  12.394  0.00  0.00    +0.000 A 
ATOM     29  C   UNL     1      38.965   0.252  12.792  0.00  0.00    +0.000 A 
BRANCH  29  30
ATOM     30  O   UNL     1      38.079   1.110  12.189  0.00  0.00    +0.000 OA
ATOM     31  C   UNL     1      36.894   0.645  11.619  0.00  0.00    +0.000 C 
ENDBRANCH  29  30
ENDBRANCH  23  24
ENDBRANCH  20  21
ENDBRANCH  19  20
ENDBRANCH  18  19
ENDBRANCH   4  18
TORSDOF 10
ENDMDL
