MODEL 1
REMARK VINA RESULT:      -6.7      0.000      0.000
REMARK  Name = 
REMARK  4 active torsions:
REMARK  status: ('A' for Active; 'I' for Inactive)
REMARK    1  A    between atoms: C_2  and  C_5
REMARK    2  A    between atoms: C_8  and  C_9
REMARK    3  A    between atoms: C_9  and  S_10
REMARK    4  A    between atoms: S_10  and  C_11
REMARK                            x       y       z     vdW  Elec       q    Type
REMARK                         _______ _______ _______ _____ _____    ______ ____
ROOT
ATOM      1  C   UNL     1      15.519  11.968  32.429  0.00  0.00    +0.000 A 
ATOM      2  C   UNL     1      16.463  11.007  32.224  0.00  0.00    +0.000 A 
ATOM      3  C   UNL     1      17.049  10.277  33.252  0.00  0.00    +0.000 A 
ATOM      4  C   UNL     1      16.648  10.535  34.573  0.00  0.00    +0.000 A 
ATOM      5  C   UNL     1      15.704  11.490  34.777  0.00  0.00    +0.000 A 
ATOM      6  C   UNL     1      15.121  12.218  33.742  0.00  0.00    +0.000 A 
ENDROOT
BRANCH   1   8
ATOM      7  C   UNL     1      15.972  13.513  30.558  0.00  0.00    +0.000 C 
ATOM      8  C   UNL     1      14.916  12.717  31.279  0.00  0.00    +0.000 C 
ATOM      9  C   UNL     1      14.264  11.749  30.323  0.00  0.00    +0.000 C 
ATOM     10  C   UNL     1      13.894  13.681  31.817  0.00  0.00    +0.000 C 
ENDBRANCH   1   8
BRANCH   4  11
ATOM     11  C   UNL     1      17.278   9.752  35.672  0.00  0.00    +0.000 C 
BRANCH  11  12
ATOM     12  S   UNL     1      16.996  10.542  37.272  0.00  0.00    +0.000 S 
BRANCH  12  13
ATOM     13  C   UNL     1      18.451  11.530  37.700  0.00  0.00    +0.000 A 
ATOM     14  N   UNL     1      18.553  12.857  37.622  0.00  0.00    +0.000 NA
ATOM     15  N   UNL     1      19.635  13.422  37.945  0.00  0.00    +0.000 NA
ATOM     16  C   UNL     1      20.668  12.689  38.361  0.00  0.00    +0.000 A 
ATOM     17  N   UNL     1      21.978  13.138  38.763  0.00  0.00    +0.000 NA
ATOM     18  S   UNL     1      19.996  11.106  38.265  0.00  0.00    +0.000 S 
ENDBRANCH  12  13
ENDBRANCH  11  12
ENDBRANCH   4  11
TORSDOF 4
ENDMDL
MODEL 2
REMARK VINA RESULT:      -6.5      1.924      2.205
REMARK  Name = 
REMARK  4 active torsions:
REMARK  status: ('A' for Active; 'I' for Inactive)
REMARK    1  A    between atoms: C_2  and  C_5
REMARK    2  A    between atoms: C_8  and  C_9
REMARK    3  A    between atoms: C_9  and  S_10
REMARK    4  A    between atoms: S_10  and  C_11
REMARK                            x       y       z     vdW  Elec       q    Type
REMARK                         _______ _______ _______ _____ _____    ______ ____
ROOT
ATOM      1  C   UNL     1      15.673  11.738  32.917  0.00  0.00    +0.000 A 
ATOM      2  C   UNL     1      16.658  10.798  32.875  0.00  0.00    +0.000 A 
ATOM      3  C   UNL     1      17.191  10.195  34.009  0.00  0.00    +0.000 A 
ATOM      4  C   UNL     1      16.689  10.567  35.267  0.00  0.00    +0.000 A 
ATOM      5  C   UNL     1      15.704  11.501  35.309  0.00  0.00    +0.000 A 
ATOM      6  C   UNL     1      15.175  12.100  34.169  0.00  0.00    +0.000 A 
ENDROOT
BRANCH   1   8
ATOM      7  C   UNL     1      14.104  13.398  31.983  0.00  0.00    +0.000 C 
ATOM      8  C   UNL     1      15.131  12.347  31.659  0.00  0.00    +0.000 C 
ATOM      9  C   UNL     1      16.255  12.958  30.861  0.00  0.00    +0.000 C 
ATOM     10  C   UNL     1      14.454  11.269  30.858  0.00  0.00    +0.000 C 
ENDBRANCH   1   8
BRANCH   4  11
ATOM     11  C   UNL     1      17.262   9.921  36.480  0.00  0.00    +0.000 C 
BRANCH  11  12
ATOM     12  S   UNL     1      18.196  11.111  37.467  0.00  0.00    +0.000 S 
BRANCH  12  13
ATOM     13  C   UNL     1      19.949  10.664  37.417  0.00  0.00    +0.000 A 
ATOM     14  N   UNL     1      20.527   9.841  36.542  0.00  0.00    +0.000 NA
ATOM     15  N   UNL     1      21.765   9.607  36.626  0.00  0.00    +0.000 NA
ATOM     16  C   UNL     1      22.485  10.182  37.589  0.00  0.00    +0.000 A 
ATOM     17  N   UNL     1      23.895  10.038  37.858  0.00  0.00    +0.000 NA
ATOM     18  S   UNL     1      21.270  11.102  38.391  0.00  0.00    +0.000 S 
ENDBRANCH  12  13
ENDBRANCH  11  12
ENDBRANCH   4  11
TORSDOF 4
ENDMDL
MODEL 3
REMARK VINA RESULT:      -5.9     18.927     21.188
REMARK  Name = 
REMARK  4 active torsions:
REMARK  status: ('A' for Active; 'I' for Inactive)
REMARK    1  A    between atoms: C_2  and  C_5
REMARK    2  A    between atoms: C_8  and  C_9
REMARK    3  A    between atoms: C_9  and  S_10
REMARK    4  A    between atoms: S_10  and  C_11
REMARK                            x       y       z     vdW  Elec       q    Type
REMARK                         _______ _______ _______ _____ _____    ______ ____
ROOT
ATOM      1  C   UNL     1      33.760   3.340  34.472  0.00  0.00    +0.000 A 
ATOM      2  C   UNL     1      33.724   2.304  35.356  0.00  0.00    +0.000 A 
ATOM      3  C   UNL     1      33.782   0.968  34.974  0.00  0.00    +0.000 A 
ATOM      4  C   UNL     1      33.887   0.664  33.606  0.00  0.00    +0.000 A 
ATOM      5  C   UNL     1      33.926   1.697  32.725  0.00  0.00    +0.000 A 
ATOM      6  C   UNL     1      33.868   3.033  33.116  0.00  0.00    +0.000 A 
ENDROOT
BRANCH   1   8
ATOM      7  C   UNL     1      35.037   5.434  34.750  0.00  0.00    +0.000 C 
ATOM      8  C   UNL     1      33.704   4.762  34.945  0.00  0.00    +0.000 C 
ATOM      9  C   UNL     1      32.637   5.511  34.187  0.00  0.00    +0.000 C 
ATOM     10  C   UNL     1      33.393   4.765  36.416  0.00  0.00    +0.000 C 
ENDBRANCH   1   8
BRANCH   4  11
ATOM     11  C   UNL     1      33.947  -0.767  33.199  0.00  0.00    +0.000 C 
BRANCH  11  12
ATOM     12  S   UNL     1      33.089  -1.816  34.393  0.00  0.00    +0.000 S 
BRANCH  12  13
ATOM     13  C   UNL     1      33.089  -3.520  33.780  0.00  0.00    +0.000 A 
ATOM     14  N   UNL     1      33.616  -3.943  32.632  0.00  0.00    +0.000 NA
ATOM     15  N   UNL     1      33.538  -5.164  32.320  0.00  0.00    +0.000 NA
ATOM     16  C   UNL     1      32.929  -6.021  33.139  0.00  0.00    +0.000 A 
ATOM     17  N   UNL     1      32.729  -7.439  32.963  0.00  0.00    +0.000 NA
ATOM     18  S   UNL     1      32.460  -4.964  34.416  0.00  0.00    +0.000 S 
ENDBRANCH  12  13
ENDBRANCH  11  12
ENDBRANCH   4  11
TORSDOF 4
ENDMDL
MODEL 4
REMARK VINA RESULT:      -5.8      4.395      8.231
REMARK  Name = 
REMARK  4 active torsions:
REMARK  status: ('A' for Active; 'I' for Inactive)
REMARK    1  A    between atoms: C_2  and  C_5
REMARK    2  A    between atoms: C_8  and  C_9
REMARK    3  A    between atoms: C_9  and  S_10
REMARK    4  A    between atoms: S_10  and  C_11
REMARK                            x       y       z     vdW  Elec       q    Type
REMARK                         _______ _______ _______ _____ _____    ______ ____
ROOT
ATOM      1  C   UNL     1      17.537   8.697  40.240  0.00  0.00    +0.000 A 
ATOM      2  C   UNL     1      16.642   9.649  39.855  0.00  0.00    +0.000 A 
ATOM      3  C   UNL     1      16.716  10.326  38.643  0.00  0.00    +0.000 A 
ATOM      4  C   UNL     1      17.765  10.013  37.762  0.00  0.00    +0.000 A 
ATOM      5  C   UNL     1      18.656   9.061  38.144  0.00  0.00    +0.000 A 
ATOM      6  C   UNL     1      18.574   8.388  39.360  0.00  0.00    +0.000 A 
ENDROOT
BRANCH   1   8
ATOM      7  C   UNL     1      16.380   8.690  42.420  0.00  0.00    +0.000 C 
ATOM      8  C   UNL     1      17.400   7.994  41.558  0.00  0.00    +0.000 C 
ATOM      9  C   UNL     1      16.988   6.561  41.333  0.00  0.00    +0.000 C 
ATOM     10  C   UNL     1      18.724   8.047  42.270  0.00  0.00    +0.000 C 
ENDBRANCH   1   8
BRANCH   4  11
ATOM     11  C   UNL     1      17.843  10.740  36.464  0.00  0.00    +0.000 C 
BRANCH  11  12
ATOM     12  S   UNL     1      17.429   9.649  35.086  0.00  0.00    +0.000 S 
BRANCH  12  13
ATOM     13  C   UNL     1      16.498  10.592  33.853  0.00  0.00    +0.000 A 
ATOM     14  N   UNL     1      16.650  10.523  32.530  0.00  0.00    +0.000 NA
ATOM     15  N   UNL     1      15.937  11.247  31.780  0.00  0.00    +0.000 NA
ATOM     16  C   UNL     1      15.040  12.075  32.315  0.00  0.00    +0.000 A 
ATOM     17  N   UNL     1      14.145  12.981  31.637  0.00  0.00    +0.000 NA
ATOM     18  S   UNL     1      15.272  11.758  33.992  0.00  0.00    +0.000 S 
ENDBRANCH  12  13
ENDBRANCH  11  12
ENDBRANCH   4  11
TORSDOF 4
ENDMDL
MODEL 5
REMARK VINA RESULT:      -5.7     19.407     20.730
REMARK  Name = 
REMARK  4 active torsions:
REMARK  status: ('A' for Active; 'I' for Inactive)
REMARK    1  A    between atoms: C_2  and  C_5
REMARK    2  A    between atoms: C_8  and  C_9
REMARK    3  A    between atoms: C_9  and  S_10
REMARK    4  A    between atoms: S_10  and  C_11
REMARK                            x       y       z     vdW  Elec       q    Type
REMARK                         _______ _______ _______ _____ _____    ______ ____
ROOT
ATOM      1  C   UNL     1      34.469   4.359  35.297  0.00  0.00    +0.000 A 
ATOM      2  C   UNL     1      34.047   4.248  34.006  0.00  0.00    +0.000 A 
ATOM      3  C   UNL     1      33.519   3.078  33.470  0.00  0.00    +0.000 A 
ATOM      4  C   UNL     1      33.409   1.950  34.299  0.00  0.00    +0.000 A 
ATOM      5  C   UNL     1      33.826   2.061  35.587  0.00  0.00    +0.000 A 
ATOM      6  C   UNL     1      34.353   3.236  36.117  0.00  0.00    +0.000 A 
ENDROOT
BRANCH   1   8
ATOM      7  C   UNL     1      36.188   6.101  34.984  0.00  0.00    +0.000 C 
ATOM      8  C   UNL     1      35.021   5.650  35.822  0.00  0.00    +0.000 C 
ATOM      9  C   UNL     1      33.946   6.708  35.813  0.00  0.00    +0.000 C 
ATOM     10  C   UNL     1      35.516   5.426  37.224  0.00  0.00    +0.000 C 
ENDBRANCH   1   8
BRANCH   4  11
ATOM     11  C   UNL     1      32.844   0.697  33.723  0.00  0.00    +0.000 C 
BRANCH  11  12
ATOM     12  S   UNL     1      34.111  -0.584  33.594  0.00  0.00    +0.000 S 
BRANCH  12  13
ATOM     13  C   UNL     1      33.351  -2.193  33.925  0.00  0.00    +0.000 A 
ATOM     14  N   UNL     1      33.504  -3.300  33.197  0.00  0.00    +0.000 NA
ATOM     15  N   UNL     1      32.905  -4.359  33.537  0.00  0.00    +0.000 NA
ATOM     16  C   UNL     1      32.126  -4.363  34.618  0.00  0.00    +0.000 A 
ATOM     17  N   UNL     1      31.358  -5.457  35.162  0.00  0.00    +0.000 NA
ATOM     18  S   UNL     1      32.296  -2.731  35.141  0.00  0.00    +0.000 S 
ENDBRANCH  12  13
ENDBRANCH  11  12
ENDBRANCH   4  11
TORSDOF 4
ENDMDL
MODEL 6
REMARK VINA RESULT:      -5.6      3.320      7.574
REMARK  Name = 
REMARK  4 active torsions:
REMARK  status: ('A' for Active; 'I' for Inactive)
REMARK    1  A    between atoms: C_2  and  C_5
REMARK    2  A    between atoms: C_8  and  C_9
REMARK    3  A    between atoms: C_9  and  S_10
REMARK    4  A    between atoms: S_10  and  C_11
REMARK                            x       y       z     vdW  Elec       q    Type
REMARK                         _______ _______ _______ _____ _____    ______ ____
ROOT
ATOM      1  C   UNL     1      20.044  12.106  38.349  0.00  0.00    +0.000 A 
ATOM      2  C   UNL     1      18.963  12.828  37.939  0.00  0.00    +0.000 A 
ATOM      3  C   UNL     1      17.911  12.285  37.210  0.00  0.00    +0.000 A 
ATOM      4  C   UNL     1      17.957  10.921  36.878  0.00  0.00    +0.000 A 
ATOM      5  C   UNL     1      19.033  10.200  37.290  0.00  0.00    +0.000 A 
ATOM      6  C   UNL     1      20.082  10.751  38.021  0.00  0.00    +0.000 A 
ENDROOT
BRANCH   1   8
ATOM      7  C   UNL     1      21.188  12.175  40.535  0.00  0.00    +0.000 C 
ATOM      8  C   UNL     1      21.144  12.746  39.142  0.00  0.00    +0.000 C 
ATOM      9  C   UNL     1      22.468  12.521  38.455  0.00  0.00    +0.000 C 
ATOM     10  C   UNL     1      20.861  14.219  39.253  0.00  0.00    +0.000 C 
ENDBRANCH   1   8
BRANCH   4  11
ATOM     11  C   UNL     1      16.830  10.341  36.095  0.00  0.00    +0.000 C 
BRANCH  11  12
ATOM     12  S   UNL     1      17.250  10.231  34.342  0.00  0.00    +0.000 S 
BRANCH  12  13
ATOM     13  C   UNL     1      16.131  11.301  33.404  0.00  0.00    +0.000 A 
ATOM     14  N   UNL     1      15.187  12.093  33.914  0.00  0.00    +0.000 NA
ATOM     15  N   UNL     1      14.466  12.784  33.142  0.00  0.00    +0.000 NA
ATOM     16  C   UNL     1      14.651  12.717  31.824  0.00  0.00    +0.000 A 
ATOM     17  N   UNL     1      13.933  13.413  30.784  0.00  0.00    +0.000 NA
ATOM     18  S   UNL     1      15.946  11.584  31.740  0.00  0.00    +0.000 S 
ENDBRANCH  12  13
ENDBRANCH  11  12
ENDBRANCH   4  11
TORSDOF 4
ENDMDL
MODEL 7
REMARK VINA RESULT:      -5.6     17.314     18.953
REMARK  Name = 
REMARK  4 active torsions:
REMARK  status: ('A' for Active; 'I' for Inactive)
REMARK    1  A    between atoms: C_2  and  C_5
REMARK    2  A    between atoms: C_8  and  C_9
REMARK    3  A    between atoms: C_9  and  S_10
REMARK    4  A    between atoms: S_10  and  C_11
REMARK                            x       y       z     vdW  Elec       q    Type
REMARK                         _______ _______ _______ _____ _____    ______ ____
ROOT
ATOM      1  C   UNL     1      26.962  22.965  28.545  0.00  0.00    +0.000 A 
ATOM      2  C   UNL     1      27.860  22.303  27.762  0.00  0.00    +0.000 A 
ATOM      3  C   UNL     1      27.866  22.376  26.373  0.00  0.00    +0.000 A 
ATOM      4  C   UNL     1      26.902  23.176  25.738  0.00  0.00    +0.000 A 
ATOM      5  C   UNL     1      26.009  23.839  26.519  0.00  0.00    +0.000 A 
ATOM      6  C   UNL     1      26.009  23.761  27.909  0.00  0.00    +0.000 A 
ENDROOT
BRANCH   1   8
ATOM      7  C   UNL     1      26.356  24.052  30.676  0.00  0.00    +0.000 C 
ATOM      8  C   UNL     1      27.011  22.855  30.039  0.00  0.00    +0.000 C 
ATOM      9  C   UNL     1      26.314  21.593  30.483  0.00  0.00    +0.000 C 
ATOM     10  C   UNL     1      28.451  22.829  30.471  0.00  0.00    +0.000 C 
ENDBRANCH   1   8
BRANCH   4  11
ATOM     11  C   UNL     1      26.909  23.251  24.251  0.00  0.00    +0.000 C 
BRANCH  11  12
ATOM     12  S   UNL     1      27.828  24.698  23.681  0.00  0.00    +0.000 S 
BRANCH  12  13
ATOM     13  C   UNL     1      29.576  24.481  24.099  0.00  0.00    +0.000 A 
ATOM     14  N   UNL     1      30.345  23.448  23.755  0.00  0.00    +0.000 NA
ATOM     15  N   UNL     1      31.553  23.418  24.122  0.00  0.00    +0.000 NA
ATOM     16  C   UNL     1      32.051  24.417  24.850  0.00  0.00    +0.000 A 
ATOM     17  N   UNL     1      33.388  24.565  25.370  0.00  0.00    +0.000 NA
ATOM     18  S   UNL     1      30.666  25.433  24.988  0.00  0.00    +0.000 S 
ENDBRANCH  12  13
ENDBRANCH  11  12
ENDBRANCH   4  11
TORSDOF 4
ENDMDL
MODEL 8
REMARK VINA RESULT:      -5.5      2.899      7.466
REMARK  Name = 
REMARK  4 active torsions:
REMARK  status: ('A' for Active; 'I' for Inactive)
REMARK    1  A    between atoms: C_2  and  C_5
REMARK    2  A    between atoms: C_8  and  C_9
REMARK    3  A    between atoms: C_9  and  S_10
REMARK    4  A    between atoms: S_10  and  C_11
REMARK                            x       y       z     vdW  Elec       q    Type
REMARK                         _______ _______ _______ _____ _____    ______ ____
ROOT
ATOM      1  C   UNL     1      20.368  12.998  38.910  0.00  0.00    +0.000 A 
ATOM      2  C   UNL     1      19.379  13.272  38.014  0.00  0.00    +0.000 A 
ATOM      3  C   UNL     1      18.460  12.325  37.575  0.00  0.00    +0.000 A 
ATOM      4  C   UNL     1      18.548  11.018  38.080  0.00  0.00    +0.000 A 
ATOM      5  C   UNL     1      19.532  10.746  38.976  0.00  0.00    +0.000 A 
ATOM      6  C   UNL     1      20.449  11.699  39.412  0.00  0.00    +0.000 A 
ENDROOT
BRANCH   1   8
ATOM      7  C   UNL     1      22.699  13.803  38.795  0.00  0.00    +0.000 C 
ATOM      8  C   UNL     1      21.325  14.064  39.354  0.00  0.00    +0.000 C 
ATOM      9  C   UNL     1      20.835  15.415  38.897  0.00  0.00    +0.000 C 
ATOM     10  C   UNL     1      21.420  14.028  40.855  0.00  0.00    +0.000 C 
ENDBRANCH   1   8
BRANCH   4  11
ATOM     11  C   UNL     1      17.563  10.005  37.607  0.00  0.00    +0.000 C 
BRANCH  11  12
ATOM     12  S   UNL     1      17.864   9.568  35.880  0.00  0.00    +0.000 S 
BRANCH  12  13
ATOM     13  C   UNL     1      16.769  10.553  34.829  0.00  0.00    +0.000 A 
ATOM     14  N   UNL     1      15.837  11.410  35.247  0.00  0.00    +0.000 NA
ATOM     15  N   UNL     1      15.132  12.028  34.401  0.00  0.00    +0.000 NA
ATOM     16  C   UNL     1      15.322  11.821  33.099  0.00  0.00    +0.000 A 
ATOM     17  N   UNL     1      14.622  12.417  31.987  0.00  0.00    +0.000 NA
ATOM     18  S   UNL     1      16.597  10.663  33.142  0.00  0.00    +0.000 S 
ENDBRANCH  12  13
ENDBRANCH  11  12
ENDBRANCH   4  11
TORSDOF 4
ENDMDL
MODEL 9
REMARK VINA RESULT:      -5.5     21.440     23.073
REMARK  Name = 
REMARK  4 active torsions:
REMARK  status: ('A' for Active; 'I' for Inactive)
REMARK    1  A    between atoms: C_2  and  C_5
REMARK    2  A    between atoms: C_8  and  C_9
REMARK    3  A    between atoms: C_9  and  S_10
REMARK    4  A    between atoms: S_10  and  C_11
REMARK                            x       y       z     vdW  Elec       q    Type
REMARK                         _______ _______ _______ _____ _____    ______ ____
ROOT
ATOM      1  C   UNL     1      21.610  -7.210  24.862  0.00  0.00    +0.000 A 
ATOM      2  C   UNL     1      21.134  -5.978  25.196  0.00  0.00    +0.000 A 
ATOM      3  C   UNL     1      19.917  -5.775  25.838  0.00  0.00    +0.000 A 
ATOM      4  C   UNL     1      19.135  -6.895  26.166  0.00  0.00    +0.000 A 
ATOM      5  C   UNL     1      19.611  -8.124  25.836  0.00  0.00    +0.000 A 
ATOM      6  C   UNL     1      20.832  -8.319  25.194  0.00  0.00    +0.000 A 
ENDROOT
BRANCH   1   8
ATOM      7  C   UNL     1      22.752  -7.425  22.685  0.00  0.00    +0.000 C 
ATOM      8  C   UNL     1      22.935  -7.368  24.178  0.00  0.00    +0.000 C 
ATOM      9  C   UNL     1      23.838  -6.214  24.539  0.00  0.00    +0.000 C 
ATOM     10  C   UNL     1      23.552  -8.666  24.621  0.00  0.00    +0.000 C 
ENDBRANCH   1   8
BRANCH   4  11
ATOM     11  C   UNL     1      17.832  -6.675  26.852  0.00  0.00    +0.000 C 
BRANCH  11  12
ATOM     12  S   UNL     1      16.948  -8.234  27.077  0.00  0.00    +0.000 S 
BRANCH  12  13
ATOM     13  C   UNL     1      15.970  -8.571  25.593  0.00  0.00    +0.000 A 
ATOM     14  N   UNL     1      14.755  -8.091  25.324  0.00  0.00    +0.000 NA
ATOM     15  N   UNL     1      14.177  -8.416  24.249  0.00  0.00    +0.000 NA
ATOM     16  C   UNL     1      14.784  -9.236  23.391  0.00  0.00    +0.000 A 
ATOM     17  N   UNL     1      14.294  -9.727  22.127  0.00  0.00    +0.000 NA
ATOM     18  S   UNL     1      16.265  -9.528  24.221  0.00  0.00    +0.000 S 
ENDBRANCH  12  13
ENDBRANCH  11  12
ENDBRANCH   4  11
TORSDOF 4
ENDMDL
MODEL 10
REMARK VINA RESULT:      -5.4     17.728     18.485
REMARK  Name = 
REMARK  4 active torsions:
REMARK  status: ('A' for Active; 'I' for Inactive)
REMARK    1  A    between atoms: C_2  and  C_5
REMARK    2  A    between atoms: C_8  and  C_9
REMARK    3  A    between atoms: C_9  and  S_10
REMARK    4  A    between atoms: S_10  and  C_11
REMARK                            x       y       z     vdW  Elec       q    Type
REMARK                         _______ _______ _______ _____ _____    ______ ____
ROOT
ATOM      1  C   UNL     1      28.019  23.389  24.348  0.00  0.00    +0.000 A 
ATOM      2  C   UNL     1      29.327  23.143  24.054  0.00  0.00    +0.000 A 
ATOM      3  C   UNL     1      30.238  22.638  24.977  0.00  0.00    +0.000 A 
ATOM      4  C   UNL     1      29.791  22.361  26.279  0.00  0.00    +0.000 A 
ATOM      5  C   UNL     1      28.486  22.603  26.571  0.00  0.00    +0.000 A 
ATOM      6  C   UNL     1      27.580  23.108  25.641  0.00  0.00    +0.000 A 
ENDROOT
BRANCH   1   8
ATOM      7  C   UNL     1      27.689  23.796  21.936  0.00  0.00    +0.000 C 
ATOM      8  C   UNL     1      27.082  23.926  23.308  0.00  0.00    +0.000 C 
ATOM      9  C   UNL     1      25.774  23.177  23.362  0.00  0.00    +0.000 C 
ATOM     10  C   UNL     1      26.853  25.388  23.577  0.00  0.00    +0.000 C 
ENDBRANCH   1   8
BRANCH   4  11
ATOM     11  C   UNL     1      30.768  21.822  27.266  0.00  0.00    +0.000 C 
BRANCH  11  12
ATOM     12  S   UNL     1      30.815  22.844  28.754  0.00  0.00    +0.000 S 
BRANCH  12  13
ATOM     13  C   UNL     1      31.882  22.045  29.979  0.00  0.00    +0.000 A 
ATOM     14  N   UNL     1      31.497  21.553  31.157  0.00  0.00    +0.000 NA
ATOM     15  N   UNL     1      32.351  21.027  31.924  0.00  0.00    +0.000 NA
ATOM     16  C   UNL     1      33.629  20.966  31.552  0.00  0.00    +0.000 A 
ATOM     17  N   UNL     1      34.747  20.418  32.281  0.00  0.00    +0.000 NA
ATOM     18  S   UNL     1      33.549  21.721  30.006  0.00  0.00    +0.000 S 
ENDBRANCH  12  13
ENDBRANCH  11  12
ENDBRANCH   4  11
TORSDOF 4
ENDMDL
