MODEL 1
REMARK VINA RESULT:      -7.9      0.000      0.000
REMARK  Name = 
REMARK  7 active torsions:
REMARK  status: ('A' for Active; 'I' for Inactive)
REMARK    1  A    between atoms: O_2  and  C_3
REMARK    2  A    between atoms: C_6  and  C_7
REMARK    3  A    between atoms: C_10  and  C_11
REMARK    4  A    between atoms: C_14  and  C_15
REMARK    5  A    between atoms: C_23  and  C_24
REMARK    6  A    between atoms: N_26  and  C_27
REMARK    7  A    between atoms: C_27  and  C_29
REMARK                            x       y       z     vdW  Elec       q    Type
REMARK                         _______ _______ _______ _____ _____    ______ ____
ROOT
ATOM      1  C   UNL     1      36.836  -0.973  18.041  0.00  0.00    +0.000 A 
ATOM      2  N   UNL     1      35.968  -0.320  18.878  0.00  0.00    +0.000 NA
ATOM      3  O   UNL     1      35.567   0.742  18.299  0.00  0.00    +0.000 OA
ATOM      4  C   UNL     1      36.121   0.871  17.067  0.00  0.00    +0.000 A 
ATOM      5  C   UNL     1      36.926  -0.213  16.898  0.00  0.00    +0.000 A 
ENDROOT
BRANCH   1   9
ATOM      6  C   UNL     1      38.693  -4.604  18.989  0.00  0.00    +0.000 A 
ATOM      7  C   UNL     1      38.187  -4.431  17.722  0.00  0.00    +0.000 A 
ATOM      8  C   UNL     1      37.583  -3.244  17.385  0.00  0.00    +0.000 A 
ATOM      9  C   UNL     1      37.500  -2.235  18.350  0.00  0.00    +0.000 A 
ATOM     10  C   UNL     1      38.017  -2.438  19.609  0.00  0.00    +0.000 A 
ATOM     11  C   UNL     1      38.620  -3.626  19.945  0.00  0.00    +0.000 A 
BRANCH   6  13
ATOM     12  C   UNL     1      39.002  -6.364  20.653  0.00  0.00    +0.000 C 
ATOM     13  O   UNL     1      39.320  -5.806  19.372  0.00  0.00    +0.000 OA
ENDBRANCH   6  13
ENDBRANCH   1   9
BRANCH   4  14
ATOM     14  C   UNL     1      35.812   2.005  16.220  0.00  0.00    +0.000 A 
ATOM     15  C   UNL     1      36.857   2.716  15.635  0.00  0.00    +0.000 A 
ATOM     16  C   UNL     1      36.565   3.796  14.828  0.00  0.00    +0.000 A 
ATOM     17  C   UNL     1      35.280   4.200  14.577  0.00  0.00    +0.000 A 
ATOM     18  C   UNL     1      34.245   3.511  15.146  0.00  0.00    +0.000 A 
ATOM     19  C   UNL     1      34.551   2.412  15.966  0.00  0.00    +0.000 A 
BRANCH  17  20
ATOM     20  C   UNL     1      35.025   5.333  13.727  0.00  0.00    +0.000 A 
ATOM     21  C   UNL     1      34.084   6.308  14.015  0.00  0.00    +0.000 A 
ATOM     22  C   UNL     1      33.840   7.395  13.203  0.00  0.00    +0.000 A 
ATOM     23  C   UNL     1      34.548   7.557  12.031  0.00  0.00    +0.000 A 
ATOM     24  C   UNL     1      35.493   6.610  11.707  0.00  0.00    +0.000 A 
ATOM     25  C   UNL     1      35.722   5.532  12.533  0.00  0.00    +0.000 A 
ENDBRANCH  17  20
ENDBRANCH   4  14
BRANCH   5  26
ATOM     26  C   UNL     1      37.718  -0.554  15.735  0.00  0.00    +0.000 C 
ATOM     27  O   UNL     1      37.151  -1.011  14.683  0.00  0.00    +0.000 OA
ATOM     28  N   UNL     1      39.119  -0.446  15.593  0.00  0.00    +0.000 NA
BRANCH  28  29
ATOM     29  C   UNL     1      39.703  -0.896  14.204  0.00  0.00    +0.000 C 
ATOM     30  C   UNL     1      40.748  -1.999  14.857  0.00  0.00    +0.000 C 
BRANCH  29  31
ATOM     31  C   UNL     1      40.819   0.318  14.133  0.00  0.00    +0.000 C 
ATOM     32  C   UNL     1      40.118   1.604  13.991  0.00  0.00    +0.000 C 
ATOM     33  C   UNL     1      41.601  -0.023  12.884  0.00  0.00    +0.000 C 
ENDBRANCH  29  31
ENDBRANCH  28  29
ENDBRANCH   5  26
TORSDOF 7
ENDMDL
MODEL 2
REMARK VINA RESULT:      -7.9      1.321      2.149
REMARK  Name = 
REMARK  7 active torsions:
REMARK  status: ('A' for Active; 'I' for Inactive)
REMARK    1  A    between atoms: O_2  and  C_3
REMARK    2  A    between atoms: C_6  and  C_7
REMARK    3  A    between atoms: C_10  and  C_11
REMARK    4  A    between atoms: C_14  and  C_15
REMARK    5  A    between atoms: C_23  and  C_24
REMARK    6  A    between atoms: N_26  and  C_27
REMARK    7  A    between atoms: C_27  and  C_29
REMARK                            x       y       z     vdW  Elec       q    Type
REMARK                         _______ _______ _______ _____ _____    ______ ____
ROOT
ATOM      1  C   UNL     1      36.457  -0.514  16.834  0.00  0.00    +0.000 A 
ATOM      2  N   UNL     1      35.275  -0.052  17.353  0.00  0.00    +0.000 NA
ATOM      3  O   UNL     1      34.970   1.036  16.764  0.00  0.00    +0.000 OA
ATOM      4  C   UNL     1      35.900   1.370  15.833  0.00  0.00    +0.000 A 
ATOM      5  C   UNL     1      36.845   0.391  15.873  0.00  0.00    +0.000 A 
ENDROOT
BRANCH   1   9
ATOM      6  C   UNL     1      38.344  -4.031  18.101  0.00  0.00    +0.000 A 
ATOM      7  C   UNL     1      37.548  -4.074  16.980  0.00  0.00    +0.000 A 
ATOM      8  C   UNL     1      36.928  -2.931  16.540  0.00  0.00    +0.000 A 
ATOM      9  C   UNL     1      37.127  -1.742  17.251  0.00  0.00    +0.000 A 
ATOM     10  C   UNL     1      37.929  -1.731  18.367  0.00  0.00    +0.000 A 
ATOM     11  C   UNL     1      38.549  -2.876  18.808  0.00  0.00    +0.000 A 
BRANCH   6  13
ATOM     12  C   UNL     1      39.063  -5.387  20.000  0.00  0.00    +0.000 C 
ATOM     13  O   UNL     1      38.997  -5.182  18.583  0.00  0.00    +0.000 OA
ENDBRANCH   6  13
ENDBRANCH   1   9
BRANCH   4  14
ATOM     14  C   UNL     1      35.766   2.571  15.036  0.00  0.00    +0.000 A 
ATOM     15  C   UNL     1      34.694   3.427  15.277  0.00  0.00    +0.000 A 
ATOM     16  C   UNL     1      34.565   4.571  14.517  0.00  0.00    +0.000 A 
ATOM     17  C   UNL     1      35.454   4.903  13.530  0.00  0.00    +0.000 A 
ATOM     18  C   UNL     1      36.511   4.071  13.283  0.00  0.00    +0.000 A 
ATOM     19  C   UNL     1      36.636   2.908  14.060  0.00  0.00    +0.000 A 
BRANCH  17  20
ATOM     20  C   UNL     1      35.278   6.109  12.765  0.00  0.00    +0.000 A 
ATOM     21  C   UNL     1      35.609   6.219  11.425  0.00  0.00    +0.000 A 
ATOM     22  C   UNL     1      35.440   7.374  10.690  0.00  0.00    +0.000 A 
ATOM     23  C   UNL     1      34.914   8.501  11.283  0.00  0.00    +0.000 A 
ATOM     24  C   UNL     1      34.571   8.435  12.615  0.00  0.00    +0.000 A 
ATOM     25  C   UNL     1      34.748   7.271  13.331  0.00  0.00    +0.000 A 
ENDBRANCH  17  20
ENDBRANCH   4  14
BRANCH   5  26
ATOM     26  C   UNL     1      38.031   0.273  15.052  0.00  0.00    +0.000 C 
ATOM     27  O   UNL     1      39.039   1.032  15.266  0.00  0.00    +0.000 OA
ATOM     28  N   UNL     1      38.241  -0.619  13.977  0.00  0.00    +0.000 NA
BRANCH  28  29
ATOM     29  C   UNL     1      39.640  -0.514  13.265  0.00  0.00    +0.000 C 
ATOM     30  C   UNL     1      39.007  -0.550  11.737  0.00  0.00    +0.000 C 
BRANCH  29  31
ATOM     31  C   UNL     1      39.936  -2.137  13.323  0.00  0.00    +0.000 C 
ATOM     32  C   UNL     1      38.670  -2.862  13.134  0.00  0.00    +0.000 C 
ATOM     33  C   UNL     1      40.475  -2.326  14.724  0.00  0.00    +0.000 C 
ENDBRANCH  29  31
ENDBRANCH  28  29
ENDBRANCH   5  26
TORSDOF 7
ENDMDL
MODEL 3
REMARK VINA RESULT:      -7.7      6.570     10.884
REMARK  Name = 
REMARK  7 active torsions:
REMARK  status: ('A' for Active; 'I' for Inactive)
REMARK    1  A    between atoms: O_2  and  C_3
REMARK    2  A    between atoms: C_6  and  C_7
REMARK    3  A    between atoms: C_10  and  C_11
REMARK    4  A    between atoms: C_14  and  C_15
REMARK    5  A    between atoms: C_23  and  C_24
REMARK    6  A    between atoms: N_26  and  C_27
REMARK    7  A    between atoms: C_27  and  C_29
REMARK                            x       y       z     vdW  Elec       q    Type
REMARK                         _______ _______ _______ _____ _____    ______ ____
ROOT
ATOM      1  C   UNL     1      37.053   5.817  14.886  0.00  0.00    +0.000 A 
ATOM      2  N   UNL     1      37.381   4.521  15.189  0.00  0.00    +0.000 NA
ATOM      3  O   UNL     1      38.278   4.529  16.094  0.00  0.00    +0.000 OA
ATOM      4  C   UNL     1      38.603   5.798  16.454  0.00  0.00    +0.000 A 
ATOM      5  C   UNL     1      37.829   6.618  15.691  0.00  0.00    +0.000 A 
ENDROOT
BRANCH   1   9
ATOM      6  C   UNL     1      34.203   6.888  12.012  0.00  0.00    +0.000 A 
ATOM      7  C   UNL     1      33.833   6.873  13.336  0.00  0.00    +0.000 A 
ATOM      8  C   UNL     1      34.754   6.535  14.297  0.00  0.00    +0.000 A 
ATOM      9  C   UNL     1      36.055   6.214  13.897  0.00  0.00    +0.000 A 
ATOM     10  C   UNL     1      36.395   6.239  12.565  0.00  0.00    +0.000 A 
ATOM     11  C   UNL     1      35.472   6.576  11.603  0.00  0.00    +0.000 A 
BRANCH   6  13
ATOM     12  C   UNL     1      33.745   7.241   9.639  0.00  0.00    +0.000 C 
ATOM     13  O   UNL     1      33.287   7.230  10.997  0.00  0.00    +0.000 OA
ENDBRANCH   6  13
ENDBRANCH   1   9
BRANCH   4  14
ATOM     14  C   UNL     1      39.602   6.058  17.469  0.00  0.00    +0.000 A 
ATOM     15  C   UNL     1      39.213   6.102  18.805  0.00  0.00    +0.000 A 
ATOM     16  C   UNL     1      40.164   6.349  19.774  0.00  0.00    +0.000 A 
ATOM     17  C   UNL     1      41.484   6.555  19.473  0.00  0.00    +0.000 A 
ATOM     18  C   UNL     1      41.880   6.515  18.164  0.00  0.00    +0.000 A 
ATOM     19  C   UNL     1      40.906   6.262  17.184  0.00  0.00    +0.000 A 
BRANCH  17  20
ATOM     20  C   UNL     1      42.440   6.808  20.518  0.00  0.00    +0.000 A 
ATOM     21  C   UNL     1      42.842   8.079  20.894  0.00  0.00    +0.000 A 
ATOM     22  C   UNL     1      43.756   8.324  21.897  0.00  0.00    +0.000 A 
ATOM     23  C   UNL     1      44.325   7.275  22.587  0.00  0.00    +0.000 A 
ATOM     24  C   UNL     1      43.952   5.994  22.244  0.00  0.00    +0.000 A 
ATOM     25  C   UNL     1      43.037   5.772  21.239  0.00  0.00    +0.000 A 
ENDBRANCH  17  20
ENDBRANCH   4  14
BRANCH   5  26
ATOM     26  C   UNL     1      37.781   8.064  15.717  0.00  0.00    +0.000 C 
ATOM     27  O   UNL     1      38.753   8.748  15.242  0.00  0.00    +0.000 OA
ATOM     28  N   UNL     1      36.746   8.876  16.229  0.00  0.00    +0.000 NA
BRANCH  28  29
ATOM     29  C   UNL     1      36.975  10.428  16.121  0.00  0.00    +0.000 C 
ATOM     30  C   UNL     1      36.626  10.720  17.711  0.00  0.00    +0.000 C 
BRANCH  29  31
ATOM     31  C   UNL     1      35.447  10.749  15.589  0.00  0.00    +0.000 C 
ATOM     32  C   UNL     1      34.493   9.921  16.344  0.00  0.00    +0.000 C 
ATOM     33  C   UNL     1      35.506  10.332  14.136  0.00  0.00    +0.000 C 
ENDBRANCH  29  31
ENDBRANCH  28  29
ENDBRANCH   5  26
TORSDOF 7
ENDMDL
MODEL 4
REMARK VINA RESULT:      -7.4      1.981      3.392
REMARK  Name = 
REMARK  7 active torsions:
REMARK  status: ('A' for Active; 'I' for Inactive)
REMARK    1  A    between atoms: O_2  and  C_3
REMARK    2  A    between atoms: C_6  and  C_7
REMARK    3  A    between atoms: C_10  and  C_11
REMARK    4  A    between atoms: C_14  and  C_15
REMARK    5  A    between atoms: C_23  and  C_24
REMARK    6  A    between atoms: N_26  and  C_27
REMARK    7  A    between atoms: C_27  and  C_29
REMARK                            x       y       z     vdW  Elec       q    Type
REMARK                         _______ _______ _______ _____ _____    ______ ____
ROOT
ATOM      1  C   UNL     1      35.433   1.632  16.490  0.00  0.00    +0.000 A 
ATOM      2  N   UNL     1      34.107   1.982  16.459  0.00  0.00    +0.000 NA
ATOM      3  O   UNL     1      33.969   2.985  15.684  0.00  0.00    +0.000 OA
ATOM      4  C   UNL     1      35.160   3.365  15.154  0.00  0.00    +0.000 A 
ATOM      5  C   UNL     1      36.091   2.511  15.661  0.00  0.00    +0.000 A 
ENDROOT
BRANCH   1   9
ATOM      6  C   UNL     1      36.952  -1.542  18.758  0.00  0.00    +0.000 A 
ATOM      7  C   UNL     1      36.731  -1.735  17.415  0.00  0.00    +0.000 A 
ATOM      8  C   UNL     1      36.244  -0.705  16.649  0.00  0.00    +0.000 A 
ATOM      9  C   UNL     1      35.984   0.524  17.263  0.00  0.00    +0.000 A 
ATOM     10  C   UNL     1      36.215   0.687  18.609  0.00  0.00    +0.000 A 
ATOM     11  C   UNL     1      36.703  -0.345  19.375  0.00  0.00    +0.000 A 
BRANCH   6  13
ATOM     12  C   UNL     1      38.650  -3.248  19.173  0.00  0.00    +0.000 C 
ATOM     13  O   UNL     1      37.452  -2.574  19.577  0.00  0.00    +0.000 OA
ENDBRANCH   6  13
ENDBRANCH   1   9
BRANCH   4  14
ATOM     14  C   UNL     1      35.251   4.485  14.241  0.00  0.00    +0.000 A 
ATOM     15  C   UNL     1      36.184   4.441  13.207  0.00  0.00    +0.000 A 
ATOM     16  C   UNL     1      36.272   5.508  12.337  0.00  0.00    +0.000 A 
ATOM     17  C   UNL     1      35.475   6.616  12.448  0.00  0.00    +0.000 A 
ATOM     18  C   UNL     1      34.556   6.672  13.459  0.00  0.00    +0.000 A 
ATOM     19  C   UNL     1      34.471   5.583  14.341  0.00  0.00    +0.000 A 
BRANCH  17  20
ATOM     20  C   UNL     1      35.603   7.704  11.514  0.00  0.00    +0.000 A 
ATOM     21  C   UNL     1      34.781   7.865  10.412  0.00  0.00    +0.000 A 
ATOM     22  C   UNL     1      34.902   8.908   9.517  0.00  0.00    +0.000 A 
ATOM     23  C   UNL     1      35.880   9.862   9.694  0.00  0.00    +0.000 A 
ATOM     24  C   UNL     1      36.719   9.739  10.780  0.00  0.00    +0.000 A 
ATOM     25  C   UNL     1      36.581   8.690  11.661  0.00  0.00    +0.000 A 
ENDBRANCH  17  20
ENDBRANCH   4  14
BRANCH   5  26
ATOM     26  C   UNL     1      37.510   2.482  15.379  0.00  0.00    +0.000 C 
ATOM     27  O   UNL     1      38.304   3.277  15.992  0.00  0.00    +0.000 OA
ATOM     28  N   UNL     1      38.182   1.646  14.460  0.00  0.00    +0.000 NA
BRANCH  28  29
ATOM     29  C   UNL     1      39.740   1.844  14.367  0.00  0.00    +0.000 C 
ATOM     30  C   UNL     1      39.704   2.405  12.812  0.00  0.00    +0.000 C 
BRANCH  29  31
ATOM     31  C   UNL     1      40.044   0.280  13.937  0.00  0.00    +0.000 C 
ATOM     32  C   UNL     1      39.502  -0.615  14.972  0.00  0.00    +0.000 C 
ATOM     33  C   UNL     1      41.556   0.232  13.905  0.00  0.00    +0.000 C 
ENDBRANCH  29  31
ENDBRANCH  28  29
ENDBRANCH   5  26
TORSDOF 7
ENDMDL
MODEL 5
REMARK VINA RESULT:      -7.3      4.143      6.482
REMARK  Name = 
REMARK  7 active torsions:
REMARK  status: ('A' for Active; 'I' for Inactive)
REMARK    1  A    between atoms: O_2  and  C_3
REMARK    2  A    between atoms: C_6  and  C_7
REMARK    3  A    between atoms: C_10  and  C_11
REMARK    4  A    between atoms: C_14  and  C_15
REMARK    5  A    between atoms: C_23  and  C_24
REMARK    6  A    between atoms: N_26  and  C_27
REMARK    7  A    between atoms: C_27  and  C_29
REMARK                            x       y       z     vdW  Elec       q    Type
REMARK                         _______ _______ _______ _____ _____    ______ ____
ROOT
ATOM      1  C   UNL     1      39.132  -0.193  11.628  0.00  0.00    +0.000 A 
ATOM      2  N   UNL     1      39.955  -0.173  10.531  0.00  0.00    +0.000 NA
ATOM      3  O   UNL     1      39.436   0.584   9.647  0.00  0.00    +0.000 OA
ATOM      4  C   UNL     1      38.262   1.113  10.079  0.00  0.00    +0.000 A 
ATOM      5  C   UNL     1      38.065   0.623  11.334  0.00  0.00    +0.000 A 
ENDROOT
BRANCH   1   9
ATOM      6  C   UNL     1      39.891  -2.417  15.093  0.00  0.00    +0.000 A 
ATOM      7  C   UNL     1      40.666  -1.312  14.833  0.00  0.00    +0.000 A 
ATOM      8  C   UNL     1      40.429  -0.561  13.709  0.00  0.00    +0.000 A 
ATOM      9  C   UNL     1      39.393  -0.945  12.851  0.00  0.00    +0.000 A 
ATOM     10  C   UNL     1      38.635  -2.056  13.137  0.00  0.00    +0.000 A 
ATOM     11  C   UNL     1      38.874  -2.808  14.263  0.00  0.00    +0.000 A 
BRANCH   6  13
ATOM     12  C   UNL     1      38.997  -3.460  17.112  0.00  0.00    +0.000 C 
ATOM     13  O   UNL     1      40.103  -3.213  16.236  0.00  0.00    +0.000 OA
ENDBRANCH   6  13
ENDBRANCH   1   9
BRANCH   4  14
ATOM     14  C   UNL     1      37.489   2.007   9.242  0.00  0.00    +0.000 A 
ATOM     15  C   UNL     1      37.070   1.567   7.989  0.00  0.00    +0.000 A 
ATOM     16  C   UNL     1      36.334   2.418   7.191  0.00  0.00    +0.000 A 
ATOM     17  C   UNL     1      35.995   3.686   7.584  0.00  0.00    +0.000 A 
ATOM     18  C   UNL     1      36.400   4.130   8.812  0.00  0.00    +0.000 A 
ATOM     19  C   UNL     1      37.149   3.258   9.619  0.00  0.00    +0.000 A 
BRANCH  17  20
ATOM     20  C   UNL     1      35.223   4.537   6.716  0.00  0.00    +0.000 A 
ATOM     21  C   UNL     1      35.071   4.307   5.359  0.00  0.00    +0.000 A 
ATOM     22  C   UNL     1      34.331   5.121   4.527  0.00  0.00    +0.000 A 
ATOM     23  C   UNL     1      33.692   6.232   5.034  0.00  0.00    +0.000 A 
ATOM     24  C   UNL     1      33.818   6.497   6.380  0.00  0.00    +0.000 A 
ATOM     25  C   UNL     1      34.562   5.671   7.193  0.00  0.00    +0.000 A 
ENDBRANCH  17  20
ENDBRANCH   4  14
BRANCH   5  26
ATOM     26  C   UNL     1      36.968   0.911  12.232  0.00  0.00    +0.000 C 
ATOM     27  O   UNL     1      35.774   0.576  11.916  0.00  0.00    +0.000 OA
ATOM     28  N   UNL     1      37.037   1.553  13.488  0.00  0.00    +0.000 NA
BRANCH  28  29
ATOM     29  C   UNL     1      35.668   1.730  14.243  0.00  0.00    +0.000 C 
ATOM     30  C   UNL     1      35.916   3.330  14.580  0.00  0.00    +0.000 C 
BRANCH  29  31
ATOM     31  C   UNL     1      36.250   1.198  15.693  0.00  0.00    +0.000 C 
ATOM     32  C   UNL     1      36.447  -0.259  15.624  0.00  0.00    +0.000 C 
ATOM     33  C   UNL     1      35.135   1.557  16.650  0.00  0.00    +0.000 C 
ENDBRANCH  29  31
ENDBRANCH  28  29
ENDBRANCH   5  26
TORSDOF 7
ENDMDL
MODEL 6
REMARK VINA RESULT:      -7.2      4.467     10.331
REMARK  Name = 
REMARK  7 active torsions:
REMARK  status: ('A' for Active; 'I' for Inactive)
REMARK    1  A    between atoms: O_2  and  C_3
REMARK    2  A    between atoms: C_6  and  C_7
REMARK    3  A    between atoms: C_10  and  C_11
REMARK    4  A    between atoms: C_14  and  C_15
REMARK    5  A    between atoms: C_23  and  C_24
REMARK    6  A    between atoms: N_26  and  C_27
REMARK    7  A    between atoms: C_27  and  C_29
REMARK                            x       y       z     vdW  Elec       q    Type
REMARK                         _______ _______ _______ _____ _____    ______ ____
ROOT
ATOM      1  C   UNL     1      35.562   7.174  14.078  0.00  0.00    +0.000 A 
ATOM      2  N   UNL     1      34.829   6.336  13.278  0.00  0.00    +0.000 NA
ATOM      3  O   UNL     1      35.399   5.196  13.252  0.00  0.00    +0.000 OA
ATOM      4  C   UNL     1      36.523   5.191  14.014  0.00  0.00    +0.000 A 
ATOM      5  C   UNL     1      36.630   6.442  14.540  0.00  0.00    +0.000 A 
ENDROOT
BRANCH   1   9
ATOM      6  C   UNL     1      34.556  11.172  14.811  0.00  0.00    +0.000 A 
ATOM      7  C   UNL     1      34.074  10.202  15.659  0.00  0.00    +0.000 A 
ATOM      8  C   UNL     1      34.400   8.886  15.445  0.00  0.00    +0.000 A 
ATOM      9  C   UNL     1      35.222   8.565  14.359  0.00  0.00    +0.000 A 
ATOM     10  C   UNL     1      35.688   9.558  13.529  0.00  0.00    +0.000 A 
ATOM     11  C   UNL     1      35.361  10.875  13.744  0.00  0.00    +0.000 A 
BRANCH   6  13
ATOM     12  C   UNL     1      32.947  12.997  14.608  0.00  0.00    +0.000 C 
ATOM     13  O   UNL     1      34.245  12.533  14.999  0.00  0.00    +0.000 OA
ENDBRANCH   6  13
ENDBRANCH   1   9
BRANCH   4  14
ATOM     14  C   UNL     1      37.340   4.002  14.138  0.00  0.00    +0.000 A 
ATOM     15  C   UNL     1      38.508   3.903  13.387  0.00  0.00    +0.000 A 
ATOM     16  C   UNL     1      39.287   2.770  13.503  0.00  0.00    +0.000 A 
ATOM     17  C   UNL     1      38.957   1.732  14.334  0.00  0.00    +0.000 A 
ATOM     18  C   UNL     1      37.812   1.816  15.076  0.00  0.00    +0.000 A 
ATOM     19  C   UNL     1      37.024   2.972  14.953  0.00  0.00    +0.000 A 
BRANCH  17  20
ATOM     20  C   UNL     1      39.802   0.571  14.422  0.00  0.00    +0.000 A 
ATOM     21  C   UNL     1      41.109   0.541  13.965  0.00  0.00    +0.000 A 
ATOM     22  C   UNL     1      41.922  -0.570  14.051  0.00  0.00    +0.000 A 
ATOM     23  C   UNL     1      41.445  -1.734  14.616  0.00  0.00    +0.000 A 
ATOM     24  C   UNL     1      40.150  -1.747  15.083  0.00  0.00    +0.000 A 
ATOM     25  C   UNL     1      39.356  -0.625  14.988  0.00  0.00    +0.000 A 
ENDBRANCH  17  20
ENDBRANCH   4  14
BRANCH   5  26
ATOM     26  C   UNL     1      37.647   6.936  15.444  0.00  0.00    +0.000 C 
ATOM     27  O   UNL     1      38.295   8.002  15.161  0.00  0.00    +0.000 OA
ATOM     28  N   UNL     1      38.048   6.366  16.672  0.00  0.00    +0.000 NA
BRANCH  28  29
ATOM     29  C   UNL     1      39.187   7.131  17.442  0.00  0.00    +0.000 C 
ATOM     30  C   UNL     1      40.393   6.133  16.909  0.00  0.00    +0.000 C 
BRANCH  29  31
ATOM     31  C   UNL     1      38.957   6.315  18.858  0.00  0.00    +0.000 C 
ATOM     32  C   UNL     1      40.123   6.530  19.729  0.00  0.00    +0.000 C 
ATOM     33  C   UNL     1      38.870   4.875  18.402  0.00  0.00    +0.000 C 
ENDBRANCH  29  31
ENDBRANCH  28  29
ENDBRANCH   5  26
TORSDOF 7
ENDMDL
MODEL 7
REMARK VINA RESULT:      -7.0     25.155     28.816
REMARK  Name = 
REMARK  7 active torsions:
REMARK  status: ('A' for Active; 'I' for Inactive)
REMARK    1  A    between atoms: O_2  and  C_3
REMARK    2  A    between atoms: C_6  and  C_7
REMARK    3  A    between atoms: C_10  and  C_11
REMARK    4  A    between atoms: C_14  and  C_15
REMARK    5  A    between atoms: C_23  and  C_24
REMARK    6  A    between atoms: N_26  and  C_27
REMARK    7  A    between atoms: C_27  and  C_29
REMARK                            x       y       z     vdW  Elec       q    Type
REMARK                         _______ _______ _______ _____ _____    ______ ____
ROOT
ATOM      1  C   UNL     1       8.730   2.088  10.501  0.00  0.00    +0.000 A 
ATOM      2  N   UNL     1       8.575   0.798  10.942  0.00  0.00    +0.000 NA
ATOM      3  O   UNL     1       9.471   0.073  10.399  0.00  0.00    +0.000 OA
ATOM      4  C   UNL     1      10.269   0.805   9.580  0.00  0.00    +0.000 A 
ATOM      5  C   UNL     1       9.803   2.083   9.642  0.00  0.00    +0.000 A 
ENDROOT
BRANCH   1   9
ATOM      6  C   UNL     1       6.366   5.360  11.615  0.00  0.00    +0.000 A 
ATOM      7  C   UNL     1       5.746   4.215  11.171  0.00  0.00    +0.000 A 
ATOM      8  C   UNL     1       6.500   3.126  10.812  0.00  0.00    +0.000 A 
ATOM      9  C   UNL     1       7.893   3.212  10.907  0.00  0.00    +0.000 A 
ATOM     10  C   UNL     1       8.485   4.371  11.354  0.00  0.00    +0.000 A 
ATOM     11  C   UNL     1       7.729   5.461  11.714  0.00  0.00    +0.000 A 
BRANCH   6  13
ATOM     12  C   UNL     1       4.414   6.310  12.732  0.00  0.00    +0.000 C 
ATOM     13  O   UNL     1       5.628   6.498  11.993  0.00  0.00    +0.000 OA
ENDBRANCH   6  13
ENDBRANCH   1   9
BRANCH   4  14
ATOM     14  C   UNL     1      11.361   0.194   8.852  0.00  0.00    +0.000 A 
ATOM     15  C   UNL     1      12.065  -0.853   9.443  0.00  0.00    +0.000 A 
ATOM     16  C   UNL     1      13.106  -1.436   8.750  0.00  0.00    +0.000 A 
ATOM     17  C   UNL     1      13.477  -1.026   7.498  0.00  0.00    +0.000 A 
ATOM     18  C   UNL     1      12.795   0.001   6.906  0.00  0.00    +0.000 A 
ATOM     19  C   UNL     1      11.736   0.590   7.617  0.00  0.00    +0.000 A 
BRANCH  17  20
ATOM     20  C   UNL     1      14.570  -1.667   6.814  0.00  0.00    +0.000 A 
ATOM     21  C   UNL     1      15.440  -0.998   5.969  0.00  0.00    +0.000 A 
ATOM     22  C   UNL     1      16.488  -1.611   5.315  0.00  0.00    +0.000 A 
ATOM     23  C   UNL     1      16.717  -2.960   5.484  0.00  0.00    +0.000 A 
ATOM     24  C   UNL     1      15.874  -3.663   6.317  0.00  0.00    +0.000 A 
ATOM     25  C   UNL     1      14.833  -3.031   6.960  0.00  0.00    +0.000 A 
ENDBRANCH  17  20
ENDBRANCH   4  14
BRANCH   5  26
ATOM     26  C   UNL     1      10.333   3.250   8.968  0.00  0.00    +0.000 C 
ATOM     27  O   UNL     1      11.510   3.671   9.243  0.00  0.00    +0.000 OA
ATOM     28  N   UNL     1       9.688   4.038   7.991  0.00  0.00    +0.000 NA
BRANCH  28  29
ATOM     29  C   UNL     1      10.517   5.255   7.436  0.00  0.00    +0.000 C 
ATOM     30  C   UNL     1       9.677   6.386   8.300  0.00  0.00    +0.000 C 
BRANCH  29  31
ATOM     31  C   UNL     1       9.603   5.424   6.072  0.00  0.00    +0.000 C 
ATOM     32  C   UNL     1      10.414   5.047   4.903  0.00  0.00    +0.000 C 
ATOM     33  C   UNL     1       9.286   6.903   6.067  0.00  0.00    +0.000 C 
ENDBRANCH  29  31
ENDBRANCH  28  29
ENDBRANCH   5  26
TORSDOF 7
ENDMDL
MODEL 8
REMARK VINA RESULT:      -6.9     22.884     25.720
REMARK  Name = 
REMARK  7 active torsions:
REMARK  status: ('A' for Active; 'I' for Inactive)
REMARK    1  A    between atoms: O_2  and  C_3
REMARK    2  A    between atoms: C_6  and  C_7
REMARK    3  A    between atoms: C_10  and  C_11
REMARK    4  A    between atoms: C_14  and  C_15
REMARK    5  A    between atoms: C_23  and  C_24
REMARK    6  A    between atoms: N_26  and  C_27
REMARK    7  A    between atoms: C_27  and  C_29
REMARK                            x       y       z     vdW  Elec       q    Type
REMARK                         _______ _______ _______ _____ _____    ______ ____
ROOT
ATOM      1  C   UNL     1      19.155   1.926   1.803  0.00  0.00    +0.000 A 
ATOM      2  N   UNL     1      20.158   1.655   2.698  0.00  0.00    +0.000 NA
ATOM      3  O   UNL     1      19.743   0.773   3.519  0.00  0.00    +0.000 OA
ATOM      4  C   UNL     1      18.468   0.402   3.240  0.00  0.00    +0.000 A 
ATOM      5  C   UNL     1      18.090   1.129   2.153  0.00  0.00    +0.000 A 
ENDROOT
BRANCH   1   9
ATOM      6  C   UNL     1      19.441   4.724  -1.299  0.00  0.00    +0.000 A 
ATOM      7  C   UNL     1      20.415   3.760  -1.185  0.00  0.00    +0.000 A 
ATOM      8  C   UNL     1      20.337   2.826  -0.182  0.00  0.00    +0.000 A 
ATOM      9  C   UNL     1      19.255   2.881   0.704  0.00  0.00    +0.000 A 
ATOM     10  C   UNL     1      18.296   3.856   0.564  0.00  0.00    +0.000 A 
ATOM     11  C   UNL     1      18.376   4.792  -0.440  0.00  0.00    +0.000 A 
BRANCH   6  13
ATOM     12  C   UNL     1      20.759   6.045  -2.873  0.00  0.00    +0.000 C 
ATOM     13  O   UNL     1      19.486   5.699  -2.314  0.00  0.00    +0.000 OA
ENDBRANCH   6  13
ENDBRANCH   1   9
BRANCH   4  14
ATOM     14  C   UNL     1      17.782  -0.591   4.042  0.00  0.00    +0.000 A 
ATOM     15  C   UNL     1      16.844  -0.170   4.982  0.00  0.00    +0.000 A 
ATOM     16  C   UNL     1      16.191  -1.114   5.746  0.00  0.00    +0.000 A 
ATOM     17  C   UNL     1      16.428  -2.457   5.619  0.00  0.00    +0.000 A 
ATOM     18  C   UNL     1      17.348  -2.883   4.700  0.00  0.00    +0.000 A 
ATOM     19  C   UNL     1      18.009  -1.916   3.925  0.00  0.00    +0.000 A 
BRANCH  17  20
ATOM     20  C   UNL     1      15.720  -3.405   6.439  0.00  0.00    +0.000 A 
ATOM     21  C   UNL     1      14.613  -3.076   7.203  0.00  0.00    +0.000 A 
ATOM     22  C   UNL     1      13.933  -3.983   7.988  0.00  0.00    +0.000 A 
ATOM     23  C   UNL     1      14.345  -5.298   8.043  0.00  0.00    +0.000 A 
ATOM     24  C   UNL     1      15.443  -5.666   7.298  0.00  0.00    +0.000 A 
ATOM     25  C   UNL     1      16.108  -4.744   6.520  0.00  0.00    +0.000 A 
ENDBRANCH  17  20
ENDBRANCH   4  14
BRANCH   5  26
ATOM     26  C   UNL     1      16.826   1.077   1.451  0.00  0.00    +0.000 C 
ATOM     27  O   UNL     1      16.724   0.416   0.360  0.00  0.00    +0.000 OA
ATOM     28  N   UNL     1      15.614   1.696   1.826  0.00  0.00    +0.000 NA
BRANCH  28  29
ATOM     29  C   UNL     1      14.397   1.462   0.857  0.00  0.00    +0.000 C 
ATOM     30  C   UNL     1      14.292   3.047   0.398  0.00  0.00    +0.000 C 
BRANCH  29  31
ATOM     31  C   UNL     1      13.258   1.593   2.044  0.00  0.00    +0.000 C 
ATOM     32  C   UNL     1      13.376   2.916   2.677  0.00  0.00    +0.000 C 
ATOM     33  C   UNL     1      13.648   0.489   3.002  0.00  0.00    +0.000 C 
ENDBRANCH  29  31
ENDBRANCH  28  29
ENDBRANCH   5  26
TORSDOF 7
ENDMDL
MODEL 9
REMARK VINA RESULT:      -6.9      7.708     11.988
REMARK  Name = 
REMARK  7 active torsions:
REMARK  status: ('A' for Active; 'I' for Inactive)
REMARK    1  A    between atoms: O_2  and  C_3
REMARK    2  A    between atoms: C_6  and  C_7
REMARK    3  A    between atoms: C_10  and  C_11
REMARK    4  A    between atoms: C_14  and  C_15
REMARK    5  A    between atoms: C_23  and  C_24
REMARK    6  A    between atoms: N_26  and  C_27
REMARK    7  A    between atoms: C_27  and  C_29
REMARK                            x       y       z     vdW  Elec       q    Type
REMARK                         _______ _______ _______ _____ _____    ______ ____
ROOT
ATOM      1  C   UNL     1      37.527  10.147  18.705  0.00  0.00    +0.000 A 
ATOM      2  N   UNL     1      37.683  10.550  20.007  0.00  0.00    +0.000 NA
ATOM      3  O   UNL     1      38.697   9.954  20.498  0.00  0.00    +0.000 OA
ATOM      4  C   UNL     1      39.276   9.132  19.585  0.00  0.00    +0.000 A 
ATOM      5  C   UNL     1      38.538   9.251  18.447  0.00  0.00    +0.000 A 
ENDROOT
BRANCH   1   9
ATOM      6  C   UNL     1      34.461  11.495  16.193  0.00  0.00    +0.000 A 
ATOM      7  C   UNL     1      35.606  12.248  16.302  0.00  0.00    +0.000 A 
ATOM      8  C   UNL     1      36.629  11.820  17.111  0.00  0.00    +0.000 A 
ATOM      9  C   UNL     1      36.476  10.617  17.809  0.00  0.00    +0.000 A 
ATOM     10  C   UNL     1      35.318   9.886  17.679  0.00  0.00    +0.000 A 
ATOM     11  C   UNL     1      34.294  10.315  16.869  0.00  0.00    +0.000 A 
BRANCH   6  13
ATOM     12  C   UNL     1      33.559  11.846  13.951  0.00  0.00    +0.000 C 
ATOM     13  O   UNL     1      33.390  11.900  15.372  0.00  0.00    +0.000 OA
ENDBRANCH   6  13
ENDBRANCH   1   9
BRANCH   4  14
ATOM     14  C   UNL     1      40.447   8.348  19.917  0.00  0.00    +0.000 A 
ATOM     15  C   UNL     1      41.663   8.998  20.114  0.00  0.00    +0.000 A 
ATOM     16  C   UNL     1      42.779   8.252  20.430  0.00  0.00    +0.000 A 
ATOM     17  C   UNL     1      42.741   6.889  20.559  0.00  0.00    +0.000 A 
ATOM     18  C   UNL     1      41.554   6.238  20.367  0.00  0.00    +0.000 A 
ATOM     19  C   UNL     1      40.421   7.004  20.046  0.00  0.00    +0.000 A 
BRANCH  17  20
ATOM     20  C   UNL     1      43.933   6.154  20.891  0.00  0.00    +0.000 A 
ATOM     21  C   UNL     1      43.998   5.232  21.922  0.00  0.00    +0.000 A 
ATOM     22  C   UNL     1      45.139   4.525  22.241  0.00  0.00    +0.000 A 
ATOM     23  C   UNL     1      46.298   4.718  21.519  0.00  0.00    +0.000 A 
ATOM     24  C   UNL     1      46.275   5.627  20.485  0.00  0.00    +0.000 A 
ATOM     25  C   UNL     1      45.125   6.322  20.183  0.00  0.00    +0.000 A 
ENDBRANCH  17  20
ENDBRANCH   4  14
BRANCH   5  26
ATOM     26  C   UNL     1      38.764   8.598  17.175  0.00  0.00    +0.000 C 
ATOM     27  O   UNL     1      39.317   9.238  16.214  0.00  0.00    +0.000 OA
ATOM     28  N   UNL     1      38.436   7.270  16.826  0.00  0.00    +0.000 NA
BRANCH  28  29
ATOM     29  C   UNL     1      38.803   6.838  15.359  0.00  0.00    +0.000 C 
ATOM     30  C   UNL     1      37.398   6.000  15.117  0.00  0.00    +0.000 C 
BRANCH  29  31
ATOM     31  C   UNL     1      39.669   5.513  15.827  0.00  0.00    +0.000 C 
ATOM     32  C   UNL     1      39.036   4.924  17.018  0.00  0.00    +0.000 C 
ATOM     33  C   UNL     1      41.023   6.100  16.157  0.00  0.00    +0.000 C 
ENDBRANCH  29  31
ENDBRANCH  28  29
ENDBRANCH   5  26
TORSDOF 7
ENDMDL
MODEL 10
REMARK VINA RESULT:      -6.9      5.595      8.399
REMARK  Name = 
REMARK  7 active torsions:
REMARK  status: ('A' for Active; 'I' for Inactive)
REMARK    1  A    between atoms: O_2  and  C_3
REMARK    2  A    between atoms: C_6  and  C_7
REMARK    3  A    between atoms: C_10  and  C_11
REMARK    4  A    between atoms: C_14  and  C_15
REMARK    5  A    between atoms: C_23  and  C_24
REMARK    6  A    between atoms: N_26  and  C_27
REMARK    7  A    between atoms: C_27  and  C_29
REMARK                            x       y       z     vdW  Elec       q    Type
REMARK                         _______ _______ _______ _____ _____    ______ ____
ROOT
ATOM      1  C   UNL     1      39.148   4.163  14.098  0.00  0.00    +0.000 A 
ATOM      2  N   UNL     1      40.236   3.594  13.487  0.00  0.00    +0.000 NA
ATOM      3  O   UNL     1      39.922   3.299  12.288  0.00  0.00    +0.000 OA
ATOM      4  C   UNL     1      38.636   3.642  12.017  0.00  0.00    +0.000 A 
ATOM      5  C   UNL     1      38.141   4.190  13.161  0.00  0.00    +0.000 A 
ENDROOT
BRANCH   1   9
ATOM      6  C   UNL     1      39.050   5.601  18.029  0.00  0.00    +0.000 A 
ATOM      7  C   UNL     1      38.307   4.488  17.712  0.00  0.00    +0.000 A 
ATOM      8  C   UNL     1      38.332   3.992  16.433  0.00  0.00    +0.000 A 
ATOM      9  C   UNL     1      39.122   4.640  15.477  0.00  0.00    +0.000 A 
ATOM     10  C   UNL     1      39.854   5.751  15.823  0.00  0.00    +0.000 A 
ATOM     11  C   UNL     1      39.828   6.247  17.105  0.00  0.00    +0.000 A 
BRANCH   6  13
ATOM     12  C   UNL     1      40.307   6.481  19.928  0.00  0.00    +0.000 C 
ATOM     13  O   UNL     1      39.050   6.139  19.331  0.00  0.00    +0.000 OA
ENDBRANCH   6  13
ENDBRANCH   1   9
BRANCH   4  14
ATOM     14  C   UNL     1      38.054   3.402  10.713  0.00  0.00    +0.000 A 
ATOM     15  C   UNL     1      37.779   2.093  10.326  0.00  0.00    +0.000 A 
ATOM     16  C   UNL     1      37.224   1.863   9.084  0.00  0.00    +0.000 A 
ATOM     17  C   UNL     1      36.931   2.876   8.211  0.00  0.00    +0.000 A 
ATOM     18  C   UNL     1      37.196   4.166   8.578  0.00  0.00    +0.000 A 
ATOM     19  C   UNL     1      37.760   4.393   9.844  0.00  0.00    +0.000 A 
BRANCH  17  20
ATOM     20  C   UNL     1      36.351   2.586   6.925  0.00  0.00    +0.000 A 
ATOM     21  C   UNL     1      35.646   3.515   6.178  0.00  0.00    +0.000 A 
ATOM     22  C   UNL     1      35.092   3.240   4.946  0.00  0.00    +0.000 A 
ATOM     23  C   UNL     1      35.224   1.984   4.392  0.00  0.00    +0.000 A 
ATOM     24  C   UNL     1      35.918   1.030   5.103  0.00  0.00    +0.000 A 
ATOM     25  C   UNL     1      36.464   1.327   6.332  0.00  0.00    +0.000 A 
ENDBRANCH  17  20
ENDBRANCH   4  14
BRANCH   5  26
ATOM     26  C   UNL     1      36.820   4.739  13.378  0.00  0.00    +0.000 C 
ATOM     27  O   UNL     1      35.889   4.002  13.855  0.00  0.00    +0.000 OA
ATOM     28  N   UNL     1      36.389   6.058  13.118  0.00  0.00    +0.000 NA
BRANCH  28  29
ATOM     29  C   UNL     1      34.883   6.366  13.456  0.00  0.00    +0.000 C 
ATOM     30  C   UNL     1      34.497   6.818  11.913  0.00  0.00    +0.000 C 
BRANCH  29  31
ATOM     31  C   UNL     1      35.178   7.904  13.975  0.00  0.00    +0.000 C 
ATOM     32  C   UNL     1      36.331   7.889  14.889  0.00  0.00    +0.000 C 
ATOM     33  C   UNL     1      33.902   8.259  14.705  0.00  0.00    +0.000 C 
ENDBRANCH  29  31
ENDBRANCH  28  29
ENDBRANCH   5  26
TORSDOF 7
ENDMDL
