MODEL 1
REMARK VINA RESULT:      -7.7      0.000      0.000
REMARK  Name = 
REMARK  3 active torsions:
REMARK  status: ('A' for Active; 'I' for Inactive)
REMARK    1  A    between atoms: C_2  and  C_4
REMARK    2  A    between atoms: C_7  and  C_8
REMARK    3  A    between atoms: N_9  and  C_10
REMARK                            x       y       z     vdW  Elec       q    Type
REMARK                         _______ _______ _______ _____ _____    ______ ____
ROOT
ATOM      1  C   UNL     1      16.813  10.055  35.373  0.00  0.00    +0.000 C 
ATOM      2  N   UNL     1      17.140  10.733  36.411  0.00  0.00    +0.000 NA
ENDROOT
BRANCH   2   3
ATOM      3  C   UNL     1      17.602  10.119  37.618  0.00  0.00    +0.000 A 
ATOM      4  C   UNL     1      18.801   9.497  37.740  0.00  0.00    +0.000 A 
ATOM      5  C   UNL     1      19.184   8.928  38.931  0.00  0.00    +0.000 A 
ATOM      6  C   UNL     1      18.360   8.981  40.013  0.00  0.00    +0.000 A 
ATOM      7  N   UNL     1      18.477   8.515  41.282  0.00  0.00    +0.000 NA
ATOM      8  C   UNL     1      17.362   8.841  41.954  0.00  0.00    +0.000 A 
ATOM      9  O   UNL     1      17.109   8.577  43.157  0.00  0.00    +0.000 OA
ATOM     10  N   UNL     1      16.553   9.506  41.112  0.00  0.00    +0.000 NA
ATOM     11  C   UNL     1      17.139   9.607  39.908  0.00  0.00    +0.000 A 
ATOM     12  C   UNL     1      16.767  10.174  38.710  0.00  0.00    +0.000 A 
ENDBRANCH   2   3
BRANCH   1  16
ATOM     13  C   UNL     1      15.388  12.144  31.918  0.00  0.00    +0.000 A 
ATOM     14  C   UNL     1      16.292  11.113  31.788  0.00  0.00    +0.000 A 
ATOM     15  C   UNL     1      16.756  10.436  32.896  0.00  0.00    +0.000 A 
ATOM     16  C   UNL     1      16.350  10.744  34.176  0.00  0.00    +0.000 A 
ATOM     17  C   UNL     1      15.444  11.776  34.304  0.00  0.00    +0.000 A 
ATOM     18  C   UNL     1      14.970  12.466  33.189  0.00  0.00    +0.000 A 
BRANCH  13  20
ATOM     19  C   UNL     1      13.634  13.688  31.165  0.00  0.00    +0.000 C 
ATOM     20  C   UNL     1      14.871  12.891  30.738  0.00  0.00    +0.000 C 
ATOM     21  C   UNL     1      15.912  13.809  30.189  0.00  0.00    +0.000 C 
ENDBRANCH  13  20
ENDBRANCH   1  16
TORSDOF 3
ENDMDL
MODEL 2
REMARK VINA RESULT:      -7.5      1.253      2.093
REMARK  Name = 
REMARK  3 active torsions:
REMARK  status: ('A' for Active; 'I' for Inactive)
REMARK    1  A    between atoms: C_2  and  C_4
REMARK    2  A    between atoms: C_7  and  C_8
REMARK    3  A    between atoms: N_9  and  C_10
REMARK                            x       y       z     vdW  Elec       q    Type
REMARK                         _______ _______ _______ _____ _____    ______ ____
ROOT
ATOM      1  C   UNL     1      16.742  10.331  35.629  0.00  0.00    +0.000 C 
ATOM      2  N   UNL     1      16.584  10.883  36.776  0.00  0.00    +0.000 NA
ENDROOT
BRANCH   2   3
ATOM      3  C   UNL     1      17.061  10.292  37.988  0.00  0.00    +0.000 A 
ATOM      4  C   UNL     1      16.301  10.127  39.099  0.00  0.00    +0.000 A 
ATOM      5  C   UNL     1      16.822   9.551  40.232  0.00  0.00    +0.000 A 
ATOM      6  C   UNL     1      18.118   9.135  40.257  0.00  0.00    +0.000 A 
ATOM      7  N   UNL     1      18.878   8.548  41.216  0.00  0.00    +0.000 NA
ATOM      8  C   UNL     1      20.105   8.345  40.714  0.00  0.00    +0.000 A 
ATOM      9  O   UNL     1      21.081   7.822  41.310  0.00  0.00    +0.000 OA
ATOM     10  N   UNL     1      20.115   8.801  39.450  0.00  0.00    +0.000 NA
ATOM     11  C   UNL     1      18.905   9.295  39.139  0.00  0.00    +0.000 A 
ATOM     12  C   UNL     1      18.371   9.873  38.010  0.00  0.00    +0.000 A 
ENDBRANCH   2   3
BRANCH   1  16
ATOM     13  C   UNL     1      15.311  12.201  32.053  0.00  0.00    +0.000 A 
ATOM     14  C   UNL     1      14.783  12.541  33.279  0.00  0.00    +0.000 A 
ATOM     15  C   UNL     1      15.238  11.943  34.436  0.00  0.00    +0.000 A 
ATOM     16  C   UNL     1      16.231  10.987  34.434  0.00  0.00    +0.000 A 
ATOM     17  C   UNL     1      16.758  10.649  33.205  0.00  0.00    +0.000 A 
ATOM     18  C   UNL     1      16.304  11.248  32.032  0.00  0.00    +0.000 A 
BRANCH  13  20
ATOM     19  C   UNL     1      13.617  13.703  31.105  0.00  0.00    +0.000 C 
ATOM     20  C   UNL     1      14.837  12.832  30.791  0.00  0.00    +0.000 C 
ATOM     21  C   UNL     1      15.914  13.658  30.169  0.00  0.00    +0.000 C 
ENDBRANCH  13  20
ENDBRANCH   1  16
TORSDOF 3
ENDMDL
MODEL 3
REMARK VINA RESULT:      -7.2      3.469      8.875
REMARK  Name = 
REMARK  3 active torsions:
REMARK  status: ('A' for Active; 'I' for Inactive)
REMARK    1  A    between atoms: C_2  and  C_4
REMARK    2  A    between atoms: C_7  and  C_8
REMARK    3  A    between atoms: N_9  and  C_10
REMARK                            x       y       z     vdW  Elec       q    Type
REMARK                         _______ _______ _______ _____ _____    ______ ____
ROOT
ATOM      1  C   UNL     1      17.520  10.033  37.716  0.00  0.00    +0.000 C 
ATOM      2  N   UNL     1      16.496  10.451  37.067  0.00  0.00    +0.000 NA
ENDROOT
BRANCH   2   3
ATOM      3  C   UNL     1      16.511  10.653  35.650  0.00  0.00    +0.000 A 
ATOM      4  C   UNL     1      17.388  10.052  34.809  0.00  0.00    +0.000 A 
ATOM      5  C   UNL     1      17.347  10.290  33.457  0.00  0.00    +0.000 A 
ATOM      6  C   UNL     1      16.419  11.140  32.938  0.00  0.00    +0.000 A 
ATOM      7  N   UNL     1      16.155  11.552  31.672  0.00  0.00    +0.000 NA
ATOM      8  C   UNL     1      15.120  12.405  31.715  0.00  0.00    +0.000 A 
ATOM      9  O   UNL     1      14.593  12.992  30.737  0.00  0.00    +0.000 OA
ATOM     10  N   UNL     1      14.739  12.527  32.998  0.00  0.00    +0.000 NA
ATOM     11  C   UNL     1      15.521  11.761  33.776  0.00  0.00    +0.000 A 
ATOM     12  C   UNL     1      15.572  11.513  35.129  0.00  0.00    +0.000 A 
ENDBRANCH   2   3
BRANCH   1  16
ATOM     13  C   UNL     1      17.163   9.493  41.948  0.00  0.00    +0.000 A 
ATOM     14  C   UNL     1      18.404   9.584  41.357  0.00  0.00    +0.000 A 
ATOM     15  C   UNL     1      18.527   9.758  39.994  0.00  0.00    +0.000 A 
ATOM     16  C   UNL     1      17.436   9.849  39.158  0.00  0.00    +0.000 A 
ATOM     17  C   UNL     1      16.195   9.757  39.752  0.00  0.00    +0.000 A 
ATOM     18  C   UNL     1      16.061   9.582  41.129  0.00  0.00    +0.000 A 
BRANCH  13  20
ATOM     19  C   UNL     1      18.366   8.944  44.017  0.00  0.00    +0.000 C 
ATOM     20  C   UNL     1      17.003   9.305  43.416  0.00  0.00    +0.000 C 
ATOM     21  C   UNL     1      16.469  10.543  44.058  0.00  0.00    +0.000 C 
ENDBRANCH  13  20
ENDBRANCH   1  16
TORSDOF 3
ENDMDL
MODEL 4
REMARK VINA RESULT:      -7.1      1.690      2.130
REMARK  Name = 
REMARK  3 active torsions:
REMARK  status: ('A' for Active; 'I' for Inactive)
REMARK    1  A    between atoms: C_2  and  C_4
REMARK    2  A    between atoms: C_7  and  C_8
REMARK    3  A    between atoms: N_9  and  C_10
REMARK                            x       y       z     vdW  Elec       q    Type
REMARK                         _______ _______ _______ _____ _____    ______ ____
ROOT
ATOM      1  C   UNL     1      17.596  10.469  35.690  0.00  0.00    +0.000 C 
ATOM      2  N   UNL     1      17.693  10.982  36.861  0.00  0.00    +0.000 NA
ENDROOT
BRANCH   2   3
ATOM      3  C   UNL     1      18.539  10.433  37.876  0.00  0.00    +0.000 A 
ATOM      4  C   UNL     1      19.601  11.085  38.410  0.00  0.00    +0.000 A 
ATOM      5  C   UNL     1      20.373  10.500  39.384  0.00  0.00    +0.000 A 
ATOM      6  C   UNL     1      20.082   9.248  39.830  0.00  0.00    +0.000 A 
ATOM      7  N   UNL     1      20.659   8.444  40.759  0.00  0.00    +0.000 NA
ATOM      8  C   UNL     1      19.967   7.296  40.810  0.00  0.00    +0.000 A 
ATOM      9  O   UNL     1      20.205   6.311  41.555  0.00  0.00    +0.000 OA
ATOM     10  N   UNL     1      18.963   7.379  39.921  0.00  0.00    +0.000 NA
ATOM     11  C   UNL     1      19.008   8.569  39.300  0.00  0.00    +0.000 A 
ATOM     12  C   UNL     1      18.242   9.167  38.325  0.00  0.00    +0.000 A 
ENDBRANCH   2   3
BRANCH   1  16
ATOM     13  C   UNL     1      15.064  12.211  32.710  0.00  0.00    +0.000 A 
ATOM     14  C   UNL     1      14.841  12.456  34.046  0.00  0.00    +0.000 A 
ATOM     15  C   UNL     1      15.652  11.898  35.013  0.00  0.00    +0.000 A 
ATOM     16  C   UNL     1      16.715  11.078  34.704  0.00  0.00    +0.000 A 
ATOM     17  C   UNL     1      16.936  10.834  33.364  0.00  0.00    +0.000 A 
ATOM     18  C   UNL     1      16.122  11.394  32.382  0.00  0.00    +0.000 A 
BRANCH  13  20
ATOM     19  C   UNL     1      13.623  14.122  32.163  0.00  0.00    +0.000 C 
ATOM     20  C   UNL     1      14.204  12.801  31.648  0.00  0.00    +0.000 C 
ATOM     21  C   UNL     1      14.983  13.034  30.396  0.00  0.00    +0.000 C 
ENDBRANCH  13  20
ENDBRANCH   1  16
TORSDOF 3
ENDMDL
MODEL 5
REMARK VINA RESULT:      -6.9     19.231     21.537
REMARK  Name = 
REMARK  3 active torsions:
REMARK  status: ('A' for Active; 'I' for Inactive)
REMARK    1  A    between atoms: C_2  and  C_4
REMARK    2  A    between atoms: C_7  and  C_8
REMARK    3  A    between atoms: N_9  and  C_10
REMARK                            x       y       z     vdW  Elec       q    Type
REMARK                         _______ _______ _______ _____ _____    ______ ____
ROOT
ATOM      1  C   UNL     1      33.658  -0.993  33.491  0.00  0.00    +0.000 C 
ATOM      2  N   UNL     1      32.920  -1.695  34.271  0.00  0.00    +0.000 NA
ENDROOT
BRANCH   2   3
ATOM      3  C   UNL     1      32.821  -3.118  34.166  0.00  0.00    +0.000 A 
ATOM      4  C   UNL     1      32.072  -3.887  34.993  0.00  0.00    +0.000 A 
ATOM      5  C   UNL     1      32.020  -5.251  34.837  0.00  0.00    +0.000 A 
ATOM      6  C   UNL     1      32.727  -5.855  33.842  0.00  0.00    +0.000 A 
ATOM      7  N   UNL     1      32.860  -7.151  33.464  0.00  0.00    +0.000 NA
ATOM      8  C   UNL     1      33.686  -7.199  32.408  0.00  0.00    +0.000 A 
ATOM      9  O   UNL     1      34.045  -8.229  31.784  0.00  0.00    +0.000 OA
ATOM     10  N   UNL     1      34.067  -5.941  32.126  0.00  0.00    +0.000 NA
ATOM     11  C   UNL     1      33.494  -5.091  32.993  0.00  0.00    +0.000 A 
ATOM     12  C   UNL     1      33.536  -3.725  33.160  0.00  0.00    +0.000 A 
ENDBRANCH   2   3
BRANCH   1  16
ATOM     13  C   UNL     1      33.809   3.245  34.076  0.00  0.00    +0.000 A 
ATOM     14  C   UNL     1      33.871   2.712  32.808  0.00  0.00    +0.000 A 
ATOM     15  C   UNL     1      33.824   1.347  32.611  0.00  0.00    +0.000 A 
ATOM     16  C   UNL     1      33.712   0.453  33.652  0.00  0.00    +0.000 A 
ATOM     17  C   UNL     1      33.649   0.989  34.922  0.00  0.00    +0.000 A 
ATOM     18  C   UNL     1      33.697   2.366  35.129  0.00  0.00    +0.000 A 
BRANCH  13  20
ATOM     19  C   UNL     1      32.506   5.320  33.925  0.00  0.00    +0.000 C 
ATOM     20  C   UNL     1      33.858   4.713  34.315  0.00  0.00    +0.000 C 
ATOM     21  C   UNL     1      34.164   5.012  35.746  0.00  0.00    +0.000 C 
ENDBRANCH  13  20
ENDBRANCH   1  16
TORSDOF 3
ENDMDL
MODEL 6
REMARK VINA RESULT:      -6.8     21.469     23.147
REMARK  Name = 
REMARK  3 active torsions:
REMARK  status: ('A' for Active; 'I' for Inactive)
REMARK    1  A    between atoms: C_2  and  C_4
REMARK    2  A    between atoms: C_7  and  C_8
REMARK    3  A    between atoms: N_9  and  C_10
REMARK                            x       y       z     vdW  Elec       q    Type
REMARK                         _______ _______ _______ _____ _____    ______ ____
ROOT
ATOM      1  C   UNL     1      22.372  -7.684  23.931  0.00  0.00    +0.000 C 
ATOM      2  N   UNL     1      22.083  -6.928  24.926  0.00  0.00    +0.000 NA
ENDROOT
BRANCH   2   3
ATOM      3  C   UNL     1      20.746  -6.766  25.409  0.00  0.00    +0.000 A 
ATOM      4  C   UNL     1      20.256  -5.604  25.905  0.00  0.00    +0.000 A 
ATOM      5  C   UNL     1      18.960  -5.517  26.353  0.00  0.00    +0.000 A 
ATOM      6  C   UNL     1      18.143  -6.605  26.305  0.00  0.00    +0.000 A 
ATOM      7  N   UNL     1      16.851  -6.802  26.670  0.00  0.00    +0.000 NA
ATOM      8  C   UNL     1      16.530  -8.078  26.406  0.00  0.00    +0.000 A 
ATOM      9  O   UNL     1      15.417  -8.627  26.610  0.00  0.00    +0.000 OA
ATOM     10  N   UNL     1      17.612  -8.675  25.879  0.00  0.00    +0.000 NA
ATOM     11  C   UNL     1      18.623  -7.794  25.805  0.00  0.00    +0.000 A 
ATOM     12  C   UNL     1      19.922  -7.868  25.359  0.00  0.00    +0.000 A 
ENDBRANCH   2   3
BRANCH   1  16
ATOM     13  C   UNL     1      26.414  -8.131  22.591  0.00  0.00    +0.000 A 
ATOM     14  C   UNL     1      26.027  -7.005  23.283  0.00  0.00    +0.000 A 
ATOM     15  C   UNL     1      24.727  -6.853  23.718  0.00  0.00    +0.000 A 
ATOM     16  C   UNL     1      23.755  -7.803  23.490  0.00  0.00    +0.000 A 
ATOM     17  C   UNL     1      24.144  -8.930  22.797  0.00  0.00    +0.000 A 
ATOM     18  C   UNL     1      25.456  -9.091  22.355  0.00  0.00    +0.000 A 
BRANCH  13  20
ATOM     19  C   UNL     1      28.423  -6.943  21.831  0.00  0.00    +0.000 C 
ATOM     20  C   UNL     1      27.810  -8.320  22.111  0.00  0.00    +0.000 C 
ATOM     21  C   UNL     1      28.629  -9.053  23.122  0.00  0.00    +0.000 C 
ENDBRANCH  13  20
ENDBRANCH   1  16
TORSDOF 3
ENDMDL
MODEL 7
REMARK VINA RESULT:      -6.6     22.616     24.263
REMARK  Name = 
REMARK  3 active torsions:
REMARK  status: ('A' for Active; 'I' for Inactive)
REMARK    1  A    between atoms: C_2  and  C_4
REMARK    2  A    between atoms: C_7  and  C_8
REMARK    3  A    between atoms: N_9  and  C_10
REMARK                            x       y       z     vdW  Elec       q    Type
REMARK                         _______ _______ _______ _____ _____    ______ ____
ROOT
ATOM      1  C   UNL     1      23.642  -8.514  24.496  0.00  0.00    +0.000 C 
ATOM      2  N   UNL     1      24.481  -7.716  23.945  0.00  0.00    +0.000 NA
ENDROOT
BRANCH   2   3
ATOM      3  C   UNL     1      25.756  -8.151  23.463  0.00  0.00    +0.000 A 
ATOM      4  C   UNL     1      26.273  -9.383  23.695  0.00  0.00    +0.000 A 
ATOM      5  C   UNL     1      27.505  -9.737  23.201  0.00  0.00    +0.000 A 
ATOM      6  C   UNL     1      28.232  -8.849  22.469  0.00  0.00    +0.000 A 
ATOM      7  N   UNL     1      29.448  -8.926  21.873  0.00  0.00    +0.000 NA
ATOM      8  C   UNL     1      29.696  -7.752  21.271  0.00  0.00    +0.000 A 
ATOM      9  O   UNL     1      30.727  -7.449  20.617  0.00  0.00    +0.000 OA
ATOM     10  N   UNL     1      28.643  -6.947  21.488  0.00  0.00    +0.000 NA
ATOM     11  C   UNL     1      27.724  -7.593  22.224  0.00  0.00    +0.000 A 
ATOM     12  C   UNL     1      26.488  -7.252  22.723  0.00  0.00    +0.000 A 
ENDBRANCH   2   3
BRANCH   1  16
ATOM     13  C   UNL     1      19.905  -6.915  25.841  0.00  0.00    +0.000 A 
ATOM     14  C   UNL     1      20.183  -8.256  25.985  0.00  0.00    +0.000 A 
ATOM     15  C   UNL     1      21.385  -8.779  25.554  0.00  0.00    +0.000 A 
ATOM     16  C   UNL     1      22.361  -8.005  24.965  0.00  0.00    +0.000 A 
ATOM     17  C   UNL     1      22.079  -6.662  24.822  0.00  0.00    +0.000 A 
ATOM     18  C   UNL     1      20.868  -6.126  25.255  0.00  0.00    +0.000 A 
BRANCH  13  20
ATOM     19  C   UNL     1      18.068  -7.177  27.448  0.00  0.00    +0.000 C 
ATOM     20  C   UNL     1      18.616  -6.326  26.298  0.00  0.00    +0.000 C 
ATOM     21  C   UNL     1      18.802  -4.914  26.745  0.00  0.00    +0.000 C 
ENDBRANCH  13  20
ENDBRANCH   1  16
TORSDOF 3
ENDMDL
MODEL 8
REMARK VINA RESULT:      -6.5     18.172     19.347
REMARK  Name = 
REMARK  3 active torsions:
REMARK  status: ('A' for Active; 'I' for Inactive)
REMARK    1  A    between atoms: C_2  and  C_4
REMARK    2  A    between atoms: C_7  and  C_8
REMARK    3  A    between atoms: N_9  and  C_10
REMARK                            x       y       z     vdW  Elec       q    Type
REMARK                         _______ _______ _______ _____ _____    ______ ____
ROOT
ATOM      1  C   UNL     1      34.123   5.776  35.894  0.00  0.00    +0.000 C 
ATOM      2  N   UNL     1      35.140   6.478  35.550  0.00  0.00    +0.000 NA
ENDROOT
BRANCH   2   3
ATOM      3  C   UNL     1      35.389   7.785  36.076  0.00  0.00    +0.000 A 
ATOM      4  C   UNL     1      36.561   8.162  36.642  0.00  0.00    +0.000 A 
ATOM      5  C   UNL     1      36.734   9.435  37.128  0.00  0.00    +0.000 A 
ATOM      6  C   UNL     1      35.724  10.343  37.048  0.00  0.00    +0.000 A 
ATOM      7  N   UNL     1      35.618  11.639  37.437  0.00  0.00    +0.000 NA
ATOM      8  C   UNL     1      34.389  12.074  37.119  0.00  0.00    +0.000 A 
ATOM      9  O   UNL     1      33.926  13.225  37.325  0.00  0.00    +0.000 OA
ATOM     10  N   UNL     1      33.730  11.059  36.535  0.00  0.00    +0.000 NA
ATOM     11  C   UNL     1      34.525   9.979  36.477  0.00  0.00    +0.000 A 
ATOM     12  C   UNL     1      34.365   8.700  35.994  0.00  0.00    +0.000 A 
ENDBRANCH   2   3
BRANCH   1  16
ATOM     13  C   UNL     1      33.534   1.930  34.106  0.00  0.00    +0.000 A 
ATOM     14  C   UNL     1      33.848   2.039  35.443  0.00  0.00    +0.000 A 
ATOM     15  C   UNL     1      34.040   3.274  36.026  0.00  0.00    +0.000 A 
ATOM     16  C   UNL     1      33.930   4.452  35.319  0.00  0.00    +0.000 A 
ATOM     17  C   UNL     1      33.614   4.341  33.981  0.00  0.00    +0.000 A 
ATOM     18  C   UNL     1      33.419   3.097  33.384  0.00  0.00    +0.000 A 
BRANCH  13  20
ATOM     19  C   UNL     1      34.339   0.454  32.318  0.00  0.00    +0.000 C 
ATOM     20  C   UNL     1      33.321   0.610  33.453  0.00  0.00    +0.000 C 
ATOM     21  C   UNL     1      33.471  -0.504  34.436  0.00  0.00    +0.000 C 
ENDBRANCH  13  20
ENDBRANCH   1  16
TORSDOF 3
ENDMDL
MODEL 9
REMARK VINA RESULT:      -6.5      3.693      8.867
REMARK  Name = 
REMARK  3 active torsions:
REMARK  status: ('A' for Active; 'I' for Inactive)
REMARK    1  A    between atoms: C_2  and  C_4
REMARK    2  A    between atoms: C_7  and  C_8
REMARK    3  A    between atoms: N_9  and  C_10
REMARK                            x       y       z     vdW  Elec       q    Type
REMARK                         _______ _______ _______ _____ _____    ______ ____
ROOT
ATOM      1  C   UNL     1      16.876  10.529  36.868  0.00  0.00    +0.000 C 
ATOM      2  N   UNL     1      15.977  11.439  36.967  0.00  0.00    +0.000 NA
ENDROOT
BRANCH   2   3
ATOM      3  C   UNL     1      15.371  12.052  35.826  0.00  0.00    +0.000 A 
ATOM      4  C   UNL     1      14.445  13.040  35.900  0.00  0.00    +0.000 A 
ATOM      5  C   UNL     1      13.902  13.587  34.763  0.00  0.00    +0.000 A 
ATOM      6  C   UNL     1      14.287  13.141  33.536  0.00  0.00    +0.000 A 
ATOM      7  N   UNL     1      13.925  13.490  32.275  0.00  0.00    +0.000 NA
ATOM      8  C   UNL     1      14.617  12.728  31.414  0.00  0.00    +0.000 A 
ATOM      9  O   UNL     1      14.548  12.766  30.159  0.00  0.00    +0.000 OA
ATOM     10  N   UNL     1      15.406  11.909  32.130  0.00  0.00    +0.000 NA
ATOM     11  C   UNL     1      15.225  12.139  33.440  0.00  0.00    +0.000 A 
ATOM     12  C   UNL     1      15.762  11.600  34.587  0.00  0.00    +0.000 A 
ENDBRANCH   2   3
BRANCH   1  16
ATOM     13  C   UNL     1      18.479   8.844  40.462  0.00  0.00    +0.000 A 
ATOM     14  C   UNL     1      19.210   8.826  39.295  0.00  0.00    +0.000 A 
ATOM     15  C   UNL     1      18.700   9.367  38.133  0.00  0.00    +0.000 A 
ATOM     16  C   UNL     1      17.452   9.947  38.071  0.00  0.00    +0.000 A 
ATOM     17  C   UNL     1      16.721   9.964  39.241  0.00  0.00    +0.000 A 
ATOM     18  C   UNL     1      17.229   9.420  40.420  0.00  0.00    +0.000 A 
BRANCH  13  20
ATOM     19  C   UNL     1      20.147   7.303  41.393  0.00  0.00    +0.000 C 
ATOM     20  C   UNL     1      19.005   8.268  41.730  0.00  0.00    +0.000 C 
ATOM     21  C   UNL     1      19.491   9.343  42.645  0.00  0.00    +0.000 C 
ENDBRANCH  13  20
ENDBRANCH   1  16
TORSDOF 3
ENDMDL
MODEL 10
REMARK VINA RESULT:      -6.5     18.121     20.413
REMARK  Name = 
REMARK  3 active torsions:
REMARK  status: ('A' for Active; 'I' for Inactive)
REMARK    1  A    between atoms: C_2  and  C_4
REMARK    2  A    between atoms: C_7  and  C_8
REMARK    3  A    between atoms: N_9  and  C_10
REMARK                            x       y       z     vdW  Elec       q    Type
REMARK                         _______ _______ _______ _____ _____    ______ ____
ROOT
ATOM      1  C   UNL     1      33.056   0.546  34.984  0.00  0.00    +0.000 C 
ATOM      2  N   UNL     1      33.479   1.397  34.122  0.00  0.00    +0.000 NA
ENDROOT
BRANCH   2   3
ATOM      3  C   UNL     1      33.554   2.799  34.395  0.00  0.00    +0.000 A 
ATOM      4  C   UNL     1      33.144   3.761  33.532  0.00  0.00    +0.000 A 
ATOM      5  C   UNL     1      33.244   5.092  33.858  0.00  0.00    +0.000 A 
ATOM      6  C   UNL     1      33.761   5.467  35.060  0.00  0.00    +0.000 A 
ATOM      7  N   UNL     1      33.974   6.679  35.632  0.00  0.00    +0.000 NA
ATOM      8  C   UNL     1      34.513   6.483  36.845  0.00  0.00    +0.000 A 
ATOM      9  O   UNL     1      34.847   7.372  37.668  0.00  0.00    +0.000 OA
ATOM     10  N   UNL     1      34.637   5.158  37.031  0.00  0.00    +0.000 NA
ATOM     11  C   UNL     1      34.183   4.505  35.949  0.00  0.00    +0.000 A 
ATOM     12  C   UNL     1      34.077   3.175  35.611  0.00  0.00    +0.000 A 
ENDBRANCH   2   3
BRANCH   1  16
ATOM     13  C   UNL     1      32.978  -3.593  33.890  0.00  0.00    +0.000 A 
ATOM     14  C   UNL     1      32.224  -3.135  34.948  0.00  0.00    +0.000 A 
ATOM     15  C   UNL     1      32.244  -1.803  35.307  0.00  0.00    +0.000 A 
ATOM     16  C   UNL     1      33.005  -0.868  34.640  0.00  0.00    +0.000 A 
ATOM     17  C   UNL     1      33.759  -1.329  33.581  0.00  0.00    +0.000 A 
ATOM     18  C   UNL     1      33.744  -2.673  33.211  0.00  0.00    +0.000 A 
BRANCH  13  20
ATOM     19  C   UNL     1      31.580  -5.606  33.745  0.00  0.00    +0.000 C 
ATOM     20  C   UNL     1      32.973  -5.024  33.483  0.00  0.00    +0.000 C 
ATOM     21  C   UNL     1      33.330  -5.171  32.040  0.00  0.00    +0.000 C 
ENDBRANCH  13  20
ENDBRANCH   1  16
TORSDOF 3
ENDMDL
