MODEL 1
REMARK VINA RESULT:      -6.9      0.000      0.000
REMARK  Name = 
REMARK  4 active torsions:
REMARK  status: ('A' for Active; 'I' for Inactive)
REMARK    1  A    between atoms: O_2  and  C_3
REMARK    2  A    between atoms: C_6  and  C_7
REMARK    3  A    between atoms: C_11  and  N_12
REMARK    4  A    between atoms: C_20  and  O_21
REMARK                            x       y       z     vdW  Elec       q    Type
REMARK                         _______ _______ _______ _____ _____    ______ ____
ROOT
ATOM      1  C   UNL     1      17.193  10.396  36.425  0.00  0.00    +0.000 A 
ATOM      2  C   UNL     1      16.229  11.371  36.201  0.00  0.00    +0.000 A 
ATOM      3  C   UNL     1      15.984  11.495  34.846  0.00  0.00    +0.000 A 
ATOM      4  C   UNL     1      15.141  12.292  34.079  0.00  0.00    +0.000 A 
ATOM      5  C   UNL     1      15.116  12.189  32.701  0.00  0.00    +0.000 A 
ATOM      6  C   UNL     1      15.963  11.259  32.138  0.00  0.00    +0.000 A 
ATOM      7  C   UNL     1      16.808  10.457  32.875  0.00  0.00    +0.000 A 
ATOM      8  C   UNL     1      16.823  10.572  34.254  0.00  0.00    +0.000 A 
ATOM      9  N   UNL     1      17.528   9.935  35.210  0.00  0.00    +0.000 NA
ENDROOT
BRANCH   1  13
ATOM     10  C   UNL     1      18.734   9.149  40.154  0.00  0.00    +0.000 A 
ATOM     11  C   UNL     1      19.532   9.116  39.045  0.00  0.00    +0.000 A 
ATOM     12  C   UNL     1      19.035   9.521  37.832  0.00  0.00    +0.000 A 
ATOM     13  C   UNL     1      17.730   9.964  37.717  0.00  0.00    +0.000 A 
ATOM     14  C   UNL     1      16.921  10.005  38.807  0.00  0.00    +0.000 A 
ATOM     15  C   UNL     1      17.436   9.594  40.019  0.00  0.00    +0.000 A 
BRANCH  10  17
ATOM     16  C   UNL     1      19.221   7.395  41.791  0.00  0.00    +0.000 C 
ATOM     17  O   UNL     1      19.160   8.759  41.415  0.00  0.00    +0.000 OA
ENDBRANCH  10  17
BRANCH  15  18
ATOM     18  O   UNL     1      16.601   9.639  41.130  0.00  0.00    +0.000 OA
ATOM     19  C   UNL     1      15.623   8.673  41.370  0.00  0.00    +0.000 C 
ENDBRANCH  15  18
ENDBRANCH   1  13
BRANCH   5  20
ATOM     20  N   UNL     1      14.261  12.995  31.895  0.00  0.00    +0.000 N 
ATOM     21  O   UNL     1      13.581  13.874  32.454  0.00  0.00    +0.000 OA
ATOM     22  O   UNL     1      14.161  12.840  30.539  0.00  0.00    +0.000 OA
ENDBRANCH   5  20
TORSDOF 4
ENDMDL
MODEL 2
REMARK VINA RESULT:      -6.9      0.781      2.051
REMARK  Name = 
REMARK  4 active torsions:
REMARK  status: ('A' for Active; 'I' for Inactive)
REMARK    1  A    between atoms: O_2  and  C_3
REMARK    2  A    between atoms: C_6  and  C_7
REMARK    3  A    between atoms: C_11  and  N_12
REMARK    4  A    between atoms: C_20  and  O_21
REMARK                            x       y       z     vdW  Elec       q    Type
REMARK                         _______ _______ _______ _____ _____    ______ ____
ROOT
ATOM      1  C   UNL     1      16.847  10.479  36.386  0.00  0.00    +0.000 A 
ATOM      2  C   UNL     1      15.892  11.441  36.086  0.00  0.00    +0.000 A 
ATOM      3  C   UNL     1      15.753  11.561  34.716  0.00  0.00    +0.000 A 
ATOM      4  C   UNL     1      14.964  12.348  33.883  0.00  0.00    +0.000 A 
ATOM      5  C   UNL     1      15.048  12.243  32.508  0.00  0.00    +0.000 A 
ATOM      6  C   UNL     1      15.948  11.323  32.015  0.00  0.00    +0.000 A 
ATOM      7  C   UNL     1      16.742  10.531  32.817  0.00  0.00    +0.000 A 
ATOM      8  C   UNL     1      16.647  10.648  34.193  0.00  0.00    +0.000 A 
ATOM      9  N   UNL     1      17.282  10.020  35.203  0.00  0.00    +0.000 NA
ENDROOT
BRANCH   1  13
ATOM     10  C   UNL     1      18.119   9.253  40.223  0.00  0.00    +0.000 A 
ATOM     11  C   UNL     1      16.850   9.727  40.049  0.00  0.00    +0.000 A 
ATOM     12  C   UNL     1      16.433  10.126  38.804  0.00  0.00    +0.000 A 
ATOM     13  C   UNL     1      17.286  10.054  37.717  0.00  0.00    +0.000 A 
ATOM     14  C   UNL     1      18.551   9.586  37.870  0.00  0.00    +0.000 A 
ATOM     15  C   UNL     1      18.954   9.189  39.128  0.00  0.00    +0.000 A 
BRANCH  10  17
ATOM     16  C   UNL     1      18.231   7.593  42.019  0.00  0.00    +0.000 C 
ATOM     17  O   UNL     1      18.617   8.830  41.446  0.00  0.00    +0.000 OA
ENDBRANCH  10  17
BRANCH  15  18
ATOM     18  O   UNL     1      20.252   8.711  39.275  0.00  0.00    +0.000 OA
ATOM     19  C   UNL     1      21.369   9.543  39.201  0.00  0.00    +0.000 C 
ENDBRANCH  15  18
ENDBRANCH   1  13
BRANCH   5  20
ATOM     20  N   UNL     1      14.249  13.038  31.636  0.00  0.00    +0.000 N 
ATOM     21  O   UNL     1      14.283  12.790  30.417  0.00  0.00    +0.000 OA
ATOM     22  O   UNL     1      13.453  14.056  32.084  0.00  0.00    +0.000 OA
ENDBRANCH   5  20
TORSDOF 4
ENDMDL
MODEL 3
REMARK VINA RESULT:      -6.7     21.931     23.497
REMARK  Name = 
REMARK  4 active torsions:
REMARK  status: ('A' for Active; 'I' for Inactive)
REMARK    1  A    between atoms: O_2  and  C_3
REMARK    2  A    between atoms: C_6  and  C_7
REMARK    3  A    between atoms: C_11  and  N_12
REMARK    4  A    between atoms: C_20  and  O_21
REMARK                            x       y       z     vdW  Elec       q    Type
REMARK                         _______ _______ _______ _____ _____    ______ ____
ROOT
ATOM      1  C   UNL     1      23.253  -7.868  24.569  0.00  0.00    +0.000 A 
ATOM      2  C   UNL     1      22.516  -6.692  24.595  0.00  0.00    +0.000 A 
ATOM      3  C   UNL     1      21.349  -6.878  25.312  0.00  0.00    +0.000 A 
ATOM      4  C   UNL     1      20.273  -6.063  25.648  0.00  0.00    +0.000 A 
ATOM      5  C   UNL     1      19.217  -6.544  26.399  0.00  0.00    +0.000 A 
ATOM      6  C   UNL     1      19.293  -7.862  26.794  0.00  0.00    +0.000 A 
ATOM      7  C   UNL     1      20.348  -8.691  26.475  0.00  0.00    +0.000 A 
ATOM      8  C   UNL     1      21.397  -8.196  25.722  0.00  0.00    +0.000 A 
ATOM      9  N   UNL     1      22.534  -8.760  25.268  0.00  0.00    +0.000 NA
ENDROOT
BRANCH   1  13
ATOM     10  C   UNL     1      26.978  -8.508  22.684  0.00  0.00    +0.000 A 
ATOM     11  C   UNL     1      26.511  -7.234  22.847  0.00  0.00    +0.000 A 
ATOM     12  C   UNL     1      25.301  -7.023  23.459  0.00  0.00    +0.000 A 
ATOM     13  C   UNL     1      24.545  -8.087  23.916  0.00  0.00    +0.000 A 
ATOM     14  C   UNL     1      24.993  -9.361  23.763  0.00  0.00    +0.000 A 
ATOM     15  C   UNL     1      26.210  -9.556  23.146  0.00  0.00    +0.000 A 
BRANCH  10  17
ATOM     16  C   UNL     1      29.411  -8.762  22.793  0.00  0.00    +0.000 C 
ATOM     17  O   UNL     1      28.189  -8.806  22.078  0.00  0.00    +0.000 OA
ENDBRANCH  10  17
BRANCH  15  18
ATOM     18  O   UNL     1      26.662 -10.863  22.993  0.00  0.00    +0.000 OA
ATOM     19  C   UNL     1      27.230 -11.585  24.043  0.00  0.00    +0.000 C 
ENDBRANCH  15  18
ENDBRANCH   1  13
BRANCH   5  20
ATOM     20  N   UNL     1      18.105  -5.728  26.755  0.00  0.00    +0.000 N 
ATOM     21  O   UNL     1      17.096  -6.281  27.228  0.00  0.00    +0.000 OA
ATOM     22  O   UNL     1      18.103  -4.369  26.598  0.00  0.00    +0.000 OA
ENDBRANCH   5  20
TORSDOF 4
ENDMDL
MODEL 4
REMARK VINA RESULT:      -6.5     19.373     20.383
REMARK  Name = 
REMARK  4 active torsions:
REMARK  status: ('A' for Active; 'I' for Inactive)
REMARK    1  A    between atoms: O_2  and  C_3
REMARK    2  A    between atoms: C_6  and  C_7
REMARK    3  A    between atoms: C_11  and  N_12
REMARK    4  A    between atoms: C_20  and  O_21
REMARK                            x       y       z     vdW  Elec       q    Type
REMARK                         _______ _______ _______ _____ _____    ______ ____
ROOT
ATOM      1  C   UNL     1      30.696  22.452  27.725  0.00  0.00    +0.000 A 
ATOM      2  C   UNL     1      31.122  22.728  26.432  0.00  0.00    +0.000 A 
ATOM      3  C   UNL     1      30.032  22.880  25.595  0.00  0.00    +0.000 A 
ATOM      4  C   UNL     1      29.876  23.157  24.241  0.00  0.00    +0.000 A 
ATOM      5  C   UNL     1      28.622  23.250  23.669  0.00  0.00    +0.000 A 
ATOM      6  C   UNL     1      27.546  23.056  24.509  0.00  0.00    +0.000 A 
ATOM      7  C   UNL     1      27.673  22.780  25.853  0.00  0.00    +0.000 A 
ATOM      8  C   UNL     1      28.935  22.690  26.412  0.00  0.00    +0.000 A 
ATOM      9  N   UNL     1      29.356  22.438  27.668  0.00  0.00    +0.000 NA
ENDROOT
BRANCH   1  13
ATOM     10  C   UNL     1      33.114  21.798  31.126  0.00  0.00    +0.000 A 
ATOM     11  C   UNL     1      33.641  21.630  29.876  0.00  0.00    +0.000 A 
ATOM     12  C   UNL     1      32.859  21.841  28.769  0.00  0.00    +0.000 A 
ATOM     13  C   UNL     1      31.536  22.225  28.902  0.00  0.00    +0.000 A 
ATOM     14  C   UNL     1      30.994  22.398  30.135  0.00  0.00    +0.000 A 
ATOM     15  C   UNL     1      31.794  22.181  31.237  0.00  0.00    +0.000 A 
BRANCH  10  17
ATOM     16  C   UNL     1      34.755  20.535  32.433  0.00  0.00    +0.000 C 
ATOM     17  O   UNL     1      33.837  21.606  32.293  0.00  0.00    +0.000 OA
ENDBRANCH  10  17
BRANCH  15  18
ATOM     18  O   UNL     1      31.231  22.360  32.497  0.00  0.00    +0.000 OA
ATOM     19  C   UNL     1      30.371  21.424  33.071  0.00  0.00    +0.000 C 
ENDBRANCH  15  18
ENDBRANCH   1  13
BRANCH   5  20
ATOM     20  N   UNL     1      28.438  23.533  22.284  0.00  0.00    +0.000 N 
ATOM     21  O   UNL     1      27.306  23.370  21.795  0.00  0.00    +0.000 OA
ATOM     22  O   UNL     1      29.452  23.974  21.478  0.00  0.00    +0.000 OA
ENDBRANCH   5  20
TORSDOF 4
ENDMDL
MODEL 5
REMARK VINA RESULT:      -6.5      2.314      3.393
REMARK  Name = 
REMARK  4 active torsions:
REMARK  status: ('A' for Active; 'I' for Inactive)
REMARK    1  A    between atoms: O_2  and  C_3
REMARK    2  A    between atoms: C_6  and  C_7
REMARK    3  A    between atoms: C_11  and  N_12
REMARK    4  A    between atoms: C_20  and  O_21
REMARK                            x       y       z     vdW  Elec       q    Type
REMARK                         _______ _______ _______ _____ _____    ______ ____
ROOT
ATOM      1  C   UNL     1      16.475  10.779  38.061  0.00  0.00    +0.000 A 
ATOM      2  C   UNL     1      16.689  11.541  36.920  0.00  0.00    +0.000 A 
ATOM      3  C   UNL     1      15.504  12.121  36.507  0.00  0.00    +0.000 A 
ATOM      4  C   UNL     1      15.144  12.957  35.455  0.00  0.00    +0.000 A 
ATOM      5  C   UNL     1      13.840  13.385  35.294  0.00  0.00    +0.000 A 
ATOM      6  C   UNL     1      12.927  12.943  36.227  0.00  0.00    +0.000 A 
ATOM      7  C   UNL     1      13.257  12.114  37.278  0.00  0.00    +0.000 A 
ATOM      8  C   UNL     1      14.566  11.693  37.427  0.00  0.00    +0.000 A 
ATOM      9  N   UNL     1      15.167  10.900  38.336  0.00  0.00    +0.000 NA
ENDROOT
BRANCH   1  13
ATOM     10  C   UNL     1      19.351   8.557  40.212  0.00  0.00    +0.000 A 
ATOM     11  C   UNL     1      18.040   8.517  40.593  0.00  0.00    +0.000 A 
ATOM     12  C   UNL     1      17.102   9.237  39.897  0.00  0.00    +0.000 A 
ATOM     13  C   UNL     1      17.470  10.008  38.808  0.00  0.00    +0.000 A 
ATOM     14  C   UNL     1      18.768  10.061  38.414  0.00  0.00    +0.000 A 
ATOM     15  C   UNL     1      19.698   9.331  39.125  0.00  0.00    +0.000 A 
BRANCH  10  17
ATOM     16  C   UNL     1      20.766   8.191  42.177  0.00  0.00    +0.000 C 
ATOM     17  O   UNL     1      20.358   7.859  40.861  0.00  0.00    +0.000 OA
ENDBRANCH  10  17
BRANCH  15  18
ATOM     18  O   UNL     1      21.026   9.391  38.714  0.00  0.00    +0.000 OA
ATOM     19  C   UNL     1      21.430  10.118  37.594  0.00  0.00    +0.000 C 
ENDBRANCH  15  18
ENDBRANCH   1  13
BRANCH   5  20
ATOM     20  N   UNL     1      13.450  14.242  34.224  0.00  0.00    +0.000 N 
ATOM     21  O   UNL     1      13.832  13.960  33.074  0.00  0.00    +0.000 OA
ATOM     22  O   UNL     1      12.676  15.354  34.412  0.00  0.00    +0.000 OA
ENDBRANCH   5  20
TORSDOF 4
ENDMDL
MODEL 6
REMARK VINA RESULT:      -6.4      2.188      8.195
REMARK  Name = 
REMARK  4 active torsions:
REMARK  status: ('A' for Active; 'I' for Inactive)
REMARK    1  A    between atoms: O_2  and  C_3
REMARK    2  A    between atoms: C_6  and  C_7
REMARK    3  A    between atoms: C_11  and  N_12
REMARK    4  A    between atoms: C_20  and  O_21
REMARK                            x       y       z     vdW  Elec       q    Type
REMARK                         _______ _______ _______ _____ _____    ______ ____
ROOT
ATOM      1  C   UNL     1      17.208  10.203  36.880  0.00  0.00    +0.000 A 
ATOM      2  C   UNL     1      18.419   9.571  37.130  0.00  0.00    +0.000 A 
ATOM      3  C   UNL     1      18.532   9.277  38.476  0.00  0.00    +0.000 A 
ATOM      4  C   UNL     1      19.504   8.666  39.261  0.00  0.00    +0.000 A 
ATOM      5  C   UNL     1      19.332   8.509  40.623  0.00  0.00    +0.000 A 
ATOM      6  C   UNL     1      18.152   8.987  41.153  0.00  0.00    +0.000 A 
ATOM      7  C   UNL     1      17.173   9.596  40.398  0.00  0.00    +0.000 A 
ATOM      8  C   UNL     1      17.359   9.747  39.036  0.00  0.00    +0.000 A 
ATOM      9  N   UNL     1      16.594  10.291  38.069  0.00  0.00    +0.000 NA
ENDROOT
BRANCH   1  13
ATOM     10  C   UNL     1      15.763  11.569  33.153  0.00  0.00    +0.000 A 
ATOM     11  C   UNL     1      16.708  10.582  33.194  0.00  0.00    +0.000 A 
ATOM     12  C   UNL     1      17.180  10.136  34.403  0.00  0.00    +0.000 A 
ATOM     13  C   UNL     1      16.708  10.675  35.587  0.00  0.00    +0.000 A 
ATOM     14  C   UNL     1      15.770  11.656  35.567  0.00  0.00    +0.000 A 
ATOM     15  C   UNL     1      15.306  12.093  34.344  0.00  0.00    +0.000 A 
BRANCH  10  17
ATOM     16  C   UNL     1      14.749  11.223  30.952  0.00  0.00    +0.000 C 
ATOM     17  O   UNL     1      15.235  12.074  31.975  0.00  0.00    +0.000 OA
ENDBRANCH  10  17
BRANCH  15  18
ATOM     18  O   UNL     1      14.345  13.098  34.333  0.00  0.00    +0.000 OA
ATOM     19  C   UNL     1      13.556  13.391  35.446  0.00  0.00    +0.000 C 
ENDBRANCH  15  18
ENDBRANCH   1  13
BRANCH   5  20
ATOM     20  N   UNL     1      20.314   7.886  41.446  0.00  0.00    +0.000 N 
ATOM     21  O   UNL     1      20.463   8.307  42.607  0.00  0.00    +0.000 OA
ATOM     22  O   UNL     1      21.095   6.850  41.011  0.00  0.00    +0.000 OA
ENDBRANCH   5  20
TORSDOF 4
ENDMDL
MODEL 7
REMARK VINA RESULT:      -6.2     19.162     21.590
REMARK  Name = 
REMARK  4 active torsions:
REMARK  status: ('A' for Active; 'I' for Inactive)
REMARK    1  A    between atoms: O_2  and  C_3
REMARK    2  A    between atoms: C_6  and  C_7
REMARK    3  A    between atoms: C_11  and  N_12
REMARK    4  A    between atoms: C_20  and  O_21
REMARK                            x       y       z     vdW  Elec       q    Type
REMARK                         _______ _______ _______ _____ _____    ______ ____
ROOT
ATOM      1  C   UNL     1      30.516  22.374  27.982  0.00  0.00    +0.000 A 
ATOM      2  C   UNL     1      31.779  21.862  28.252  0.00  0.00    +0.000 A 
ATOM      3  C   UNL     1      32.003  21.844  29.616  0.00  0.00    +0.000 A 
ATOM      4  C   UNL     1      33.064  21.445  30.422  0.00  0.00    +0.000 A 
ATOM      5  C   UNL     1      32.996  21.550  31.798  0.00  0.00    +0.000 A 
ATOM      6  C   UNL     1      31.829  22.065  32.319  0.00  0.00    +0.000 A 
ATOM      7  C   UNL     1      30.763  22.468  31.543  0.00  0.00    +0.000 A 
ATOM      8  C   UNL     1      30.845  22.357  30.167  0.00  0.00    +0.000 A 
ATOM      9  N   UNL     1      29.982  22.664  29.178  0.00  0.00    +0.000 NA
ENDROOT
BRANCH   1  13
ATOM     10  C   UNL     1      28.732  22.908  24.191  0.00  0.00    +0.000 A 
ATOM     11  C   UNL     1      30.093  22.893  24.304  0.00  0.00    +0.000 A 
ATOM     12  C   UNL     1      30.677  22.720  25.534  0.00  0.00    +0.000 A 
ATOM     13  C   UNL     1      29.900  22.559  26.667  0.00  0.00    +0.000 A 
ATOM     14  C   UNL     1      28.545  22.571  26.576  0.00  0.00    +0.000 A 
ATOM     15  C   UNL     1      27.975  22.746  25.332  0.00  0.00    +0.000 A 
BRANCH  10  17
ATOM     16  C   UNL     1      28.581  23.904  21.960  0.00  0.00    +0.000 C 
ATOM     17  O   UNL     1      28.065  23.076  22.987  0.00  0.00    +0.000 OA
ENDBRANCH  10  17
BRANCH  15  18
ATOM     18  O   UNL     1      26.586  22.757  25.248  0.00  0.00    +0.000 OA
ATOM     19  C   UNL     1      25.809  23.752  25.842  0.00  0.00    +0.000 C 
ENDBRANCH  15  18
ENDBRANCH   1  13
BRANCH   5  20
ATOM     20  N   UNL     1      34.070  21.147  32.644  0.00  0.00    +0.000 N 
ATOM     21  O   UNL     1      34.811  20.225  32.258  0.00  0.00    +0.000 OA
ATOM     22  O   UNL     1      34.315  21.732  33.857  0.00  0.00    +0.000 OA
ENDBRANCH   5  20
TORSDOF 4
ENDMDL
MODEL 8
REMARK VINA RESULT:      -6.0      1.921      2.882
REMARK  Name = 
REMARK  4 active torsions:
REMARK  status: ('A' for Active; 'I' for Inactive)
REMARK    1  A    between atoms: O_2  and  C_3
REMARK    2  A    between atoms: C_6  and  C_7
REMARK    3  A    between atoms: C_11  and  N_12
REMARK    4  A    between atoms: C_20  and  O_21
REMARK                            x       y       z     vdW  Elec       q    Type
REMARK                         _______ _______ _______ _____ _____    ______ ____
ROOT
ATOM      1  C   UNL     1      17.957   9.422  38.425  0.00  0.00    +0.000 A 
ATOM      2  C   UNL     1      16.930  10.342  38.257  0.00  0.00    +0.000 A 
ATOM      3  C   UNL     1      16.737  10.598  36.913  0.00  0.00    +0.000 A 
ATOM      4  C   UNL     1      15.869  11.412  36.192  0.00  0.00    +0.000 A 
ATOM      5  C   UNL     1      15.913  11.461  34.812  0.00  0.00    +0.000 A 
ATOM      6  C   UNL     1      16.855  10.663  34.197  0.00  0.00    +0.000 A 
ATOM      7  C   UNL     1      17.726   9.848  34.887  0.00  0.00    +0.000 A 
ATOM      8  C   UNL     1      17.671   9.810  36.269  0.00  0.00    +0.000 A 
ATOM      9  N   UNL     1      18.380   9.124  37.187  0.00  0.00    +0.000 NA
ENDROOT
BRANCH   1  13
ATOM     10  C   UNL     1      19.432   7.878  42.069  0.00  0.00    +0.000 A 
ATOM     11  C   UNL     1      19.337   9.230  41.894  0.00  0.00    +0.000 A 
ATOM     12  C   UNL     1      18.859   9.735  40.712  0.00  0.00    +0.000 A 
ATOM     13  C   UNL     1      18.468   8.889  39.689  0.00  0.00    +0.000 A 
ATOM     14  C   UNL     1      18.554   7.542  39.844  0.00  0.00    +0.000 A 
ATOM     15  C   UNL     1      19.038   7.051  41.039  0.00  0.00    +0.000 A 
BRANCH  10  17
ATOM     16  C   UNL     1      20.983   7.842  43.963  0.00  0.00    +0.000 C 
ATOM     17  O   UNL     1      19.903   7.288  43.232  0.00  0.00    +0.000 OA
ENDBRANCH  10  17
BRANCH  15  18
ATOM     18  O   UNL     1      19.122   5.671  41.189  0.00  0.00    +0.000 OA
ATOM     19  C   UNL     1      19.561   4.832  40.163  0.00  0.00    +0.000 C 
ENDBRANCH  15  18
ENDBRANCH   1  13
BRANCH   5  20
ATOM     20  N   UNL     1      15.035  12.287  34.053  0.00  0.00    +0.000 N 
ATOM     21  O   UNL     1      14.334  13.117  34.661  0.00  0.00    +0.000 OA
ATOM     22  O   UNL     1      14.932  12.203  32.691  0.00  0.00    +0.000 OA
ENDBRANCH   5  20
TORSDOF 4
ENDMDL
MODEL 9
REMARK VINA RESULT:      -6.0      2.770      3.496
REMARK  Name = 
REMARK  4 active torsions:
REMARK  status: ('A' for Active; 'I' for Inactive)
REMARK    1  A    between atoms: O_2  and  C_3
REMARK    2  A    between atoms: C_6  and  C_7
REMARK    3  A    between atoms: C_11  and  N_12
REMARK    4  A    between atoms: C_20  and  O_21
REMARK                            x       y       z     vdW  Elec       q    Type
REMARK                         _______ _______ _______ _____ _____    ______ ____
ROOT
ATOM      1  C   UNL     1      17.921  10.180  38.369  0.00  0.00    +0.000 A 
ATOM      2  C   UNL     1      16.582  10.226  38.732  0.00  0.00    +0.000 A 
ATOM      3  C   UNL     1      15.877  11.021  37.848  0.00  0.00    +0.000 A 
ATOM      4  C   UNL     1      14.545  11.407  37.734  0.00  0.00    +0.000 A 
ATOM      5  C   UNL     1      14.124  12.236  36.712  0.00  0.00    +0.000 A 
ATOM      6  C   UNL     1      15.090  12.652  35.821  0.00  0.00    +0.000 A 
ATOM      7  C   UNL     1      16.415  12.285  35.910  0.00  0.00    +0.000 A 
ATOM      8  C   UNL     1      16.822  11.455  36.939  0.00  0.00    +0.000 A 
ATOM      9  N   UNL     1      18.024  10.943  37.271  0.00  0.00    +0.000 NA
ENDROOT
BRANCH   1  13
ATOM     10  C   UNL     1      21.015   8.067  40.321  0.00  0.00    +0.000 A 
ATOM     11  C   UNL     1      21.309   9.195  39.608  0.00  0.00    +0.000 A 
ATOM     12  C   UNL     1      20.307   9.884  38.973  0.00  0.00    +0.000 A 
ATOM     13  C   UNL     1      18.995   9.449  39.046  0.00  0.00    +0.000 A 
ATOM     14  C   UNL     1      18.682   8.331  39.749  0.00  0.00    +0.000 A 
ATOM     15  C   UNL     1      19.702   7.650  40.382  0.00  0.00    +0.000 A 
BRANCH  10  17
ATOM     16  C   UNL     1      22.450   7.693  42.269  0.00  0.00    +0.000 C 
ATOM     17  O   UNL     1      21.968   7.316  40.991  0.00  0.00    +0.000 OA
ENDBRANCH  10  17
BRANCH  15  18
ATOM     18  O   UNL     1      19.373   6.505  41.100  0.00  0.00    +0.000 OA
ATOM     19  C   UNL     1      18.191   5.798  40.880  0.00  0.00    +0.000 C 
ENDBRANCH  15  18
ENDBRANCH   1  13
BRANCH   5  20
ATOM     20  N   UNL     1      12.766  12.644  36.576  0.00  0.00    +0.000 N 
ATOM     21  O   UNL     1      12.526  13.693  35.953  0.00  0.00    +0.000 OA
ATOM     22  O   UNL     1      11.723  11.931  37.102  0.00  0.00    +0.000 OA
ENDBRANCH   5  20
TORSDOF 4
ENDMDL
MODEL 10
REMARK VINA RESULT:      -5.9     21.859     23.475
REMARK  Name = 
REMARK  4 active torsions:
REMARK  status: ('A' for Active; 'I' for Inactive)
REMARK    1  A    between atoms: O_2  and  C_3
REMARK    2  A    between atoms: C_6  and  C_7
REMARK    3  A    between atoms: C_11  and  N_12
REMARK    4  A    between atoms: C_20  and  O_21
REMARK                            x       y       z     vdW  Elec       q    Type
REMARK                         _______ _______ _______ _____ _____    ______ ____
ROOT
ATOM      1  C   UNL     1      22.874  -8.306  24.881  0.00  0.00    +0.000 A 
ATOM      2  C   UNL     1      23.672  -7.325  24.307  0.00  0.00    +0.000 A 
ATOM      3  C   UNL     1      24.842  -7.885  23.828  0.00  0.00    +0.000 A 
ATOM      4  C   UNL     1      25.966  -7.384  23.179  0.00  0.00    +0.000 A 
ATOM      5  C   UNL     1      27.010  -8.212  22.813  0.00  0.00    +0.000 A 
ATOM      6  C   UNL     1      26.873  -9.548  23.123  0.00  0.00    +0.000 A 
ATOM      7  C   UNL     1      25.771 -10.070  23.764  0.00  0.00    +0.000 A 
ATOM      8  C   UNL     1      24.733  -9.229  24.126  0.00  0.00    +0.000 A 
ATOM      9  N   UNL     1      23.559  -9.452  24.749  0.00  0.00    +0.000 NA
ENDROOT
BRANCH   1  13
ATOM     10  C   UNL     1      19.080  -7.779  26.662  0.00  0.00    +0.000 A 
ATOM     11  C   UNL     1      19.743  -8.964  26.816  0.00  0.00    +0.000 A 
ATOM     12  C   UNL     1      20.976  -9.139  26.239  0.00  0.00    +0.000 A 
ATOM     13  C   UNL     1      21.559  -8.125  25.500  0.00  0.00    +0.000 A 
ATOM     14  C   UNL     1      20.917  -6.940  25.335  0.00  0.00    +0.000 A 
ATOM     15  C   UNL     1      19.678  -6.781  25.922  0.00  0.00    +0.000 A 
BRANCH  10  17
ATOM     16  C   UNL     1      16.638  -7.772  26.496  0.00  0.00    +0.000 C 
ATOM     17  O   UNL     1      17.834  -7.522  27.213  0.00  0.00    +0.000 OA
ENDBRANCH  10  17
BRANCH  15  18
ATOM     18  O   UNL     1      19.027  -5.564  25.748  0.00  0.00    +0.000 OA
ATOM     19  C   UNL     1      19.047  -4.560  26.718  0.00  0.00    +0.000 C 
ENDBRANCH  15  18
ENDBRANCH   1  13
BRANCH   5  20
ATOM     20  N   UNL     1      28.170  -7.721  22.148  0.00  0.00    +0.000 N 
ATOM     21  O   UNL     1      29.198  -8.422  22.163  0.00  0.00    +0.000 OA
ATOM     22  O   UNL     1      28.198  -6.518  21.498  0.00  0.00    +0.000 OA
ENDBRANCH   5  20
TORSDOF 4
ENDMDL
