MODEL 1
REMARK VINA RESULT:      -7.0      0.000      0.000
REMARK  Name = 
REMARK  3 active torsions:
REMARK  status: ('A' for Active; 'I' for Inactive)
REMARK    1  A    between atoms: O_2  and  C_3
REMARK    2  A    between atoms: C_7  and  C_8
REMARK    3  A    between atoms: N_12  and  C_13
REMARK                            x       y       z     vdW  Elec       q    Type
REMARK                         _______ _______ _______ _____ _____    ______ ____
ROOT
ATOM      1  C   UNL     1      16.001  11.395  35.163  0.00  0.00    +0.000 C 
ATOM      2  C   UNL     1      16.574  10.444  34.462  0.00  0.00    +0.000 C 
ATOM      3  S   UNL     1      17.623   9.272  35.297  0.00  0.00    +0.000 S 
ATOM      4  C   UNL     1      17.616   9.741  37.008  0.00  0.00    +0.000 C 
ATOM      5  N   UNL     1      18.363   8.991  37.920  0.00  0.00    +0.000 NA
ATOM      6  N   UNL     1      16.934  10.749  37.383  0.00  0.00    +0.000 NA
ATOM      7  N   UNL     1      16.168  11.545  36.550  0.00  0.00    +0.000 NA
ENDROOT
BRANCH   1  12
ATOM      8  C   UNL     1      14.299  13.226  32.357  0.00  0.00    +0.000 A 
ATOM      9  C   UNL     1      13.518  14.129  33.048  0.00  0.00    +0.000 A 
ATOM     10  C   UNL     1      13.562  14.123  34.407  0.00  0.00    +0.000 A 
ATOM     11  C   UNL     1      14.366  13.239  35.112  0.00  0.00    +0.000 A 
ATOM     12  C   UNL     1      15.150  12.332  34.434  0.00  0.00    +0.000 A 
ATOM     13  C   UNL     1      15.098  12.347  33.053  0.00  0.00    +0.000 A 
BRANCH   8  15
ATOM     14  C   UNL     1      15.377  13.498  30.188  0.00  0.00    +0.000 C 
ATOM     15  O   UNL     1      14.242  13.246  30.973  0.00  0.00    +0.000 OA
ENDBRANCH   8  15
ENDBRANCH   1  12
BRANCH   5  16
ATOM     16  C   UNL     1      18.420   9.280  39.344  0.00  0.00    +0.000 C 
ATOM     17  C   UNL     1      17.014   9.482  39.885  0.00  0.00    +0.000 C 
ATOM     18  C   UNL     1      19.292  10.489  39.561  0.00  0.00    +0.000 C 
ATOM     19  C   UNL     1      19.030   8.049  40.003  0.00  0.00    +0.000 C 
ENDBRANCH   5  16
TORSDOF 3
ENDMDL
MODEL 2
REMARK VINA RESULT:      -6.6      3.185      7.371
REMARK  Name = 
REMARK  3 active torsions:
REMARK  status: ('A' for Active; 'I' for Inactive)
REMARK    1  A    between atoms: O_2  and  C_3
REMARK    2  A    between atoms: C_7  and  C_8
REMARK    3  A    between atoms: N_12  and  C_13
REMARK                            x       y       z     vdW  Elec       q    Type
REMARK                         _______ _______ _______ _____ _____    ______ ____
ROOT
ATOM      1  C   UNL     1      16.578  11.217  36.343  0.00  0.00    +0.000 C 
ATOM      2  C   UNL     1      15.602  11.984  36.768  0.00  0.00    +0.000 C 
ATOM      3  S   UNL     1      14.531  12.757  35.574  0.00  0.00    +0.000 S 
ATOM      4  C   UNL     1      15.118  12.239  33.983  0.00  0.00    +0.000 C 
ATOM      5  N   UNL     1      14.462  12.694  32.836  0.00  0.00    +0.000 NA
ATOM      6  N   UNL     1      16.125  11.462  33.903  0.00  0.00    +0.000 NA
ATOM      7  N   UNL     1      16.832  10.965  34.984  0.00  0.00    +0.000 NA
ENDROOT
BRANCH   1  12
ATOM      8  C   UNL     1      19.595   9.848  38.116  0.00  0.00    +0.000 A 
ATOM      9  C   UNL     1      19.051   9.435  39.313  0.00  0.00    +0.000 A 
ATOM     10  C   UNL     1      17.718   9.609  39.518  0.00  0.00    +0.000 A 
ATOM     11  C   UNL     1      16.898  10.188  38.561  0.00  0.00    +0.000 A 
ATOM     12  C   UNL     1      17.430  10.606  37.360  0.00  0.00    +0.000 A 
ATOM     13  C   UNL     1      18.785  10.423  37.162  0.00  0.00    +0.000 A 
BRANCH   8  15
ATOM     14  C   UNL     1      21.821  10.736  37.668  0.00  0.00    +0.000 C 
ATOM     15  O   UNL     1      20.955   9.663  37.923  0.00  0.00    +0.000 OA
ENDBRANCH   8  15
ENDBRANCH   1  12
BRANCH   5  16
ATOM     16  C   UNL     1      14.851  12.325  31.484  0.00  0.00    +0.000 C 
ATOM     17  C   UNL     1      14.552  10.853  31.248  0.00  0.00    +0.000 C 
ATOM     18  C   UNL     1      16.310  12.646  31.294  0.00  0.00    +0.000 C 
ATOM     19  C   UNL     1      13.987  13.160  30.549  0.00  0.00    +0.000 C 
ENDBRANCH   5  16
TORSDOF 3
ENDMDL
MODEL 3
REMARK VINA RESULT:      -6.6      3.251      7.621
REMARK  Name = 
REMARK  3 active torsions:
REMARK  status: ('A' for Active; 'I' for Inactive)
REMARK    1  A    between atoms: O_2  and  C_3
REMARK    2  A    between atoms: C_7  and  C_8
REMARK    3  A    between atoms: N_12  and  C_13
REMARK                            x       y       z     vdW  Elec       q    Type
REMARK                         _______ _______ _______ _____ _____    ______ ____
ROOT
ATOM      1  C   UNL     1      16.686  11.047  36.345  0.00  0.00    +0.000 C 
ATOM      2  C   UNL     1      15.729  11.817  36.806  0.00  0.00    +0.000 C 
ATOM      3  S   UNL     1      14.644  12.629  35.650  0.00  0.00    +0.000 S 
ATOM      4  C   UNL     1      15.193  12.138  34.037  0.00  0.00    +0.000 C 
ATOM      5  N   UNL     1      14.520  12.627  32.914  0.00  0.00    +0.000 NA
ATOM      6  N   UNL     1      16.188  11.352  33.920  0.00  0.00    +0.000 NA
ATOM      7  N   UNL     1      16.910  10.822  34.975  0.00  0.00    +0.000 NA
ENDROOT
BRANCH   1  12
ATOM      8  C   UNL     1      17.883   9.399  39.502  0.00  0.00    +0.000 A 
ATOM      9  C   UNL     1      19.211   9.173  39.211  0.00  0.00    +0.000 A 
ATOM     10  C   UNL     1      19.689   9.559  37.999  0.00  0.00    +0.000 A 
ATOM     11  C   UNL     1      18.879  10.172  37.053  0.00  0.00    +0.000 A 
ATOM     12  C   UNL     1      17.550  10.403  37.331  0.00  0.00    +0.000 A 
ATOM     13  C   UNL     1      17.076  10.006  38.567  0.00  0.00    +0.000 A 
BRANCH   8  15
ATOM     14  C   UNL     1      16.227   9.510  41.288  0.00  0.00    +0.000 C 
ATOM     15  O   UNL     1      17.413   8.998  40.743  0.00  0.00    +0.000 OA
ENDBRANCH   8  15
ENDBRANCH   1  12
BRANCH   5  16
ATOM     16  C   UNL     1      14.878  12.283  31.547  0.00  0.00    +0.000 C 
ATOM     17  C   UNL     1      14.561  10.819  31.286  0.00  0.00    +0.000 C 
ATOM     18  C   UNL     1      16.335  12.596  31.332  0.00  0.00    +0.000 C 
ATOM     19  C   UNL     1      14.002  13.144  30.647  0.00  0.00    +0.000 C 
ENDBRANCH   5  16
TORSDOF 3
ENDMDL
MODEL 4
REMARK VINA RESULT:      -6.0     21.807     23.290
REMARK  Name = 
REMARK  3 active torsions:
REMARK  status: ('A' for Active; 'I' for Inactive)
REMARK    1  A    between atoms: O_2  and  C_3
REMARK    2  A    between atoms: C_7  and  C_8
REMARK    3  A    between atoms: N_12  and  C_13
REMARK                            x       y       z     vdW  Elec       q    Type
REMARK                         _______ _______ _______ _____ _____    ______ ____
ROOT
ATOM      1  C   UNL     1      21.306  -7.877  24.887  0.00  0.00    +0.000 C 
ATOM      2  C   UNL     1      20.934  -8.882  24.130  0.00  0.00    +0.000 C 
ATOM      3  S   UNL     1      22.162  -9.731  23.159  0.00  0.00    +0.000 S 
ATOM      4  C   UNL     1      23.702  -8.920  23.503  0.00  0.00    +0.000 C 
ATOM      5  N   UNL     1      24.863  -9.377  22.874  0.00  0.00    +0.000 NA
ATOM      6  N   UNL     1      23.732  -7.939  24.314  0.00  0.00    +0.000 NA
ATOM      7  N   UNL     1      22.634  -7.424  24.979  0.00  0.00    +0.000 NA
ENDROOT
BRANCH   1  12
ATOM      8  C   UNL     1      18.375  -7.307  27.169  0.00  0.00    +0.000 A 
ATOM      9  C   UNL     1      18.270  -5.932  27.148  0.00  0.00    +0.000 A 
ATOM     10  C   UNL     1      19.152  -5.222  26.395  0.00  0.00    +0.000 A 
ATOM     11  C   UNL     1      20.147  -5.840  25.652  0.00  0.00    +0.000 A 
ATOM     12  C   UNL     1      20.263  -7.213  25.664  0.00  0.00    +0.000 A 
ATOM     13  C   UNL     1      19.361  -7.925  26.433  0.00  0.00    +0.000 A 
BRANCH   8  15
ATOM     14  C   UNL     1      17.836  -9.172  28.642  0.00  0.00    +0.000 C 
ATOM     15  O   UNL     1      17.468  -8.015  27.941  0.00  0.00    +0.000 OA
ENDBRANCH   8  15
ENDBRANCH   1  12
BRANCH   5  16
ATOM     16  C   UNL     1      26.179  -8.795  23.090  0.00  0.00    +0.000 C 
ATOM     17  C   UNL     1      26.788  -9.360  24.363  0.00  0.00    +0.000 C 
ATOM     18  C   UNL     1      26.044  -7.296  23.142  0.00  0.00    +0.000 C 
ATOM     19  C   UNL     1      27.033  -9.220  21.903  0.00  0.00    +0.000 C 
ENDBRANCH   5  16
TORSDOF 3
ENDMDL
MODEL 5
REMARK VINA RESULT:      -5.8     22.408     25.648
REMARK  Name = 
REMARK  3 active torsions:
REMARK  status: ('A' for Active; 'I' for Inactive)
REMARK    1  A    between atoms: O_2  and  C_3
REMARK    2  A    between atoms: C_7  and  C_8
REMARK    3  A    between atoms: N_12  and  C_13
REMARK                            x       y       z     vdW  Elec       q    Type
REMARK                         _______ _______ _______ _____ _____    ______ ____
ROOT
ATOM      1  C   UNL     1      29.016  26.068  21.070  0.00  0.00    +0.000 C 
ATOM      2  C   UNL     1      28.353  27.181  21.280  0.00  0.00    +0.000 C 
ATOM      3  S   UNL     1      28.475  28.495  20.084  0.00  0.00    +0.000 S 
ATOM      4  C   UNL     1      29.557  27.899  18.811  0.00  0.00    +0.000 C 
ATOM      5  N   UNL     1      29.844  28.727  17.723  0.00  0.00    +0.000 NA
ATOM      6  N   UNL     1      30.057  26.732  18.903  0.00  0.00    +0.000 NA
ATOM      7  N   UNL     1      29.827  25.849  19.943  0.00  0.00    +0.000 NA
ENDROOT
BRANCH   1  12
ATOM      8  C   UNL     1      27.534  23.446  23.316  0.00  0.00    +0.000 A 
ATOM      9  C   UNL     1      28.644  23.015  24.011  0.00  0.00    +0.000 A 
ATOM     10  C   UNL     1      29.848  23.585  23.736  0.00  0.00    +0.000 A 
ATOM     11  C   UNL     1      29.986  24.581  22.780  0.00  0.00    +0.000 A 
ATOM     12  C   UNL     1      28.885  25.020  22.079  0.00  0.00    +0.000 A 
ATOM     13  C   UNL     1      27.667  24.435  22.367  0.00  0.00    +0.000 A 
BRANCH   8  15
ATOM     14  C   UNL     1      25.733  22.948  24.882  0.00  0.00    +0.000 C 
ATOM     15  O   UNL     1      26.315  22.855  23.610  0.00  0.00    +0.000 OA
ENDBRANCH   8  15
ENDBRANCH   1  12
BRANCH   5  16
ATOM     16  C   UNL     1      30.708  28.337  16.620  0.00  0.00    +0.000 C 
ATOM     17  C   UNL     1      30.189  27.055  15.990  0.00  0.00    +0.000 C 
ATOM     18  C   UNL     1      32.116  28.189  17.134  0.00  0.00    +0.000 C 
ATOM     19  C   UNL     1      30.622  29.460  15.594  0.00  0.00    +0.000 C 
ENDBRANCH   5  16
TORSDOF 3
ENDMDL
MODEL 6
REMARK VINA RESULT:      -5.7      5.953      8.047
REMARK  Name = 
REMARK  3 active torsions:
REMARK  status: ('A' for Active; 'I' for Inactive)
REMARK    1  A    between atoms: O_2  and  C_3
REMARK    2  A    between atoms: C_7  and  C_8
REMARK    3  A    between atoms: N_12  and  C_13
REMARK                            x       y       z     vdW  Elec       q    Type
REMARK                         _______ _______ _______ _____ _____    ______ ____
ROOT
ATOM      1  C   UNL     1      18.786   8.988  38.990  0.00  0.00    +0.000 C 
ATOM      2  C   UNL     1      18.343   9.206  37.775  0.00  0.00    +0.000 C 
ATOM      3  S   UNL     1      19.492   9.736  36.521  0.00  0.00    +0.000 S 
ATOM      4  C   UNL     1      21.073   9.839  37.319  0.00  0.00    +0.000 C 
ATOM      5  N   UNL     1      22.184  10.236  36.572  0.00  0.00    +0.000 NA
ATOM      6  N   UNL     1      21.176   9.551  38.555  0.00  0.00    +0.000 NA
ATOM      7  N   UNL     1      20.130   9.150  39.368  0.00  0.00    +0.000 NA
ENDROOT
BRANCH   1  12
ATOM      8  C   UNL     1      16.954   6.893  41.515  0.00  0.00    +0.000 A 
ATOM      9  C   UNL     1      15.926   7.735  41.882  0.00  0.00    +0.000 A 
ATOM     10  C   UNL     1      15.850   8.963  41.302  0.00  0.00    +0.000 A 
ATOM     11  C   UNL     1      16.774   9.387  40.358  0.00  0.00    +0.000 A 
ATOM     12  C   UNL     1      17.806   8.555  39.983  0.00  0.00    +0.000 A 
ATOM     13  C   UNL     1      17.873   7.309  40.578  0.00  0.00    +0.000 A 
BRANCH   8  15
ATOM     14  C   UNL     1      18.234   4.981  42.321  0.00  0.00    +0.000 C 
ATOM     15  O   UNL     1      17.016   5.645  42.115  0.00  0.00    +0.000 OA
ENDBRANCH   8  15
ENDBRANCH   1  12
BRANCH   5  16
ATOM     16  C   UNL     1      23.527  10.344  37.121  0.00  0.00    +0.000 C 
ATOM     17  C   UNL     1      23.916   9.036  37.788  0.00  0.00    +0.000 C 
ATOM     18  C   UNL     1      23.569  11.505  38.079  0.00  0.00    +0.000 C 
ATOM     19  C   UNL     1      24.453  10.588  35.936  0.00  0.00    +0.000 C 
ENDBRANCH   5  16
TORSDOF 3
ENDMDL
MODEL 7
REMARK VINA RESULT:      -5.7      2.297      3.087
REMARK  Name = 
REMARK  3 active torsions:
REMARK  status: ('A' for Active; 'I' for Inactive)
REMARK    1  A    between atoms: O_2  and  C_3
REMARK    2  A    between atoms: C_7  and  C_8
REMARK    3  A    between atoms: N_12  and  C_13
REMARK                            x       y       z     vdW  Elec       q    Type
REMARK                         _______ _______ _______ _____ _____    ______ ____
ROOT
ATOM      1  C   UNL     1      17.138  10.679  37.444  0.00  0.00    +0.000 C 
ATOM      2  C   UNL     1      18.450  10.683  37.435  0.00  0.00    +0.000 C 
ATOM      3  S   UNL     1      19.323  10.101  38.875  0.00  0.00    +0.000 S 
ATOM      4  C   UNL     1      18.076   9.629  40.045  0.00  0.00    +0.000 C 
ATOM      5  N   UNL     1      18.468   9.127  41.288  0.00  0.00    +0.000 NA
ATOM      6  N   UNL     1      16.845   9.752  39.740  0.00  0.00    +0.000 NA
ATOM      7  N   UNL     1      16.370  10.239  38.536  0.00  0.00    +0.000 NA
ENDROOT
BRANCH   1  12
ATOM      8  C   UNL     1      16.235  11.223  33.837  0.00  0.00    +0.000 A 
ATOM      9  C   UNL     1      15.178  12.102  33.945  0.00  0.00    +0.000 A 
ATOM     10  C   UNL     1      14.782  12.498  35.183  0.00  0.00    +0.000 A 
ATOM     11  C   UNL     1      15.410  12.044  36.334  0.00  0.00    +0.000 A 
ATOM     12  C   UNL     1      16.468  11.165  36.241  0.00  0.00    +0.000 A 
ATOM     13  C   UNL     1      16.861  10.770  34.976  0.00  0.00    +0.000 A 
BRANCH   8  15
ATOM     14  C   UNL     1      15.741  10.850  31.479  0.00  0.00    +0.000 C 
ATOM     15  O   UNL     1      16.625  10.830  32.567  0.00  0.00    +0.000 OA
ENDBRANCH   8  15
ENDBRANCH   1  12
BRANCH   5  16
ATOM     16  C   UNL     1      17.532   8.700  42.317  0.00  0.00    +0.000 C 
ATOM     17  C   UNL     1      16.708   7.529  41.807  0.00  0.00    +0.000 C 
ATOM     18  C   UNL     1      16.672   9.873  42.707  0.00  0.00    +0.000 C 
ATOM     19  C   UNL     1      18.378   8.234  43.494  0.00  0.00    +0.000 C 
ENDBRANCH   5  16
TORSDOF 3
ENDMDL
MODEL 8
REMARK VINA RESULT:      -5.7     22.586     25.751
REMARK  Name = 
REMARK  3 active torsions:
REMARK  status: ('A' for Active; 'I' for Inactive)
REMARK    1  A    between atoms: O_2  and  C_3
REMARK    2  A    between atoms: C_7  and  C_8
REMARK    3  A    between atoms: N_12  and  C_13
REMARK                            x       y       z     vdW  Elec       q    Type
REMARK                         _______ _______ _______ _____ _____    ______ ____
ROOT
ATOM      1  C   UNL     1      28.770  25.999  21.147  0.00  0.00    +0.000 C 
ATOM      2  C   UNL     1      27.964  27.032  21.215  0.00  0.00    +0.000 C 
ATOM      3  S   UNL     1      28.155  28.353  20.036  0.00  0.00    +0.000 S 
ATOM      4  C   UNL     1      29.505  27.881  18.988  0.00  0.00    +0.000 C 
ATOM      5  N   UNL     1      29.891  28.737  17.952  0.00  0.00    +0.000 NA
ATOM      6  N   UNL     1      30.104  26.775  19.189  0.00  0.00    +0.000 NA
ATOM      7  N   UNL     1      29.789  25.871  20.187  0.00  0.00    +0.000 NA
ENDROOT
BRANCH   1  12
ATOM      8  C   UNL     1      29.462  23.349  23.720  0.00  0.00    +0.000 A 
ATOM      9  C   UNL     1      28.189  22.919  24.025  0.00  0.00    +0.000 A 
ATOM     10  C   UNL     1      27.134  23.497  23.391  0.00  0.00    +0.000 A 
ATOM     11  C   UNL     1      27.306  24.502  22.450  0.00  0.00    +0.000 A 
ATOM     12  C   UNL     1      28.574  24.942  22.136  0.00  0.00    +0.000 A 
ATOM     13  C   UNL     1      29.638  24.346  22.787  0.00  0.00    +0.000 A 
BRANCH   8  15
ATOM     14  C   UNL     1      31.765  23.387  24.518  0.00  0.00    +0.000 C 
ATOM     15  O   UNL     1      30.525  22.749  24.376  0.00  0.00    +0.000 OA
ENDBRANCH   8  15
ENDBRANCH   1  12
BRANCH   5  16
ATOM     16  C   UNL     1      30.976  28.445  17.028  0.00  0.00    +0.000 C 
ATOM     17  C   UNL     1      30.581  27.291  16.121  0.00  0.00    +0.000 C 
ATOM     18  C   UNL     1      32.221  28.146  17.819  0.00  0.00    +0.000 C 
ATOM     19  C   UNL     1      31.161  29.697  16.181  0.00  0.00    +0.000 C 
ENDBRANCH   5  16
TORSDOF 3
ENDMDL
MODEL 9
REMARK VINA RESULT:      -5.6     21.247     23.900
REMARK  Name = 
REMARK  3 active torsions:
REMARK  status: ('A' for Active; 'I' for Inactive)
REMARK    1  A    between atoms: O_2  and  C_3
REMARK    2  A    between atoms: C_7  and  C_8
REMARK    3  A    between atoms: N_12  and  C_13
REMARK                            x       y       z     vdW  Elec       q    Type
REMARK                         _______ _______ _______ _____ _____    ______ ____
ROOT
ATOM      1  C   UNL     1      32.984  -5.139  32.184  0.00  0.00    +0.000 C 
ATOM      2  C   UNL     1      32.286  -5.765  33.101  0.00  0.00    +0.000 C 
ATOM      3  S   UNL     1      32.021  -4.973  34.673  0.00  0.00    +0.000 S 
ATOM      4  C   UNL     1      32.845  -3.405  34.575  0.00  0.00    +0.000 C 
ATOM      5  N   UNL     1      32.808  -2.549  35.680  0.00  0.00    +0.000 NA
ATOM      6  N   UNL     1      33.457  -3.079  33.507  0.00  0.00    +0.000 NA
ATOM      7  N   UNL     1      33.544  -3.863  32.371  0.00  0.00    +0.000 NA
ENDROOT
BRANCH   1  12
ATOM      8  C   UNL     1      32.524  -7.524  29.316  0.00  0.00    +0.000 A 
ATOM      9  C   UNL     1      33.547  -7.145  28.473  0.00  0.00    +0.000 A 
ATOM     10  C   UNL     1      34.363  -6.126  28.853  0.00  0.00    +0.000 A 
ATOM     11  C   UNL     1      34.193  -5.461  30.059  0.00  0.00    +0.000 A 
ATOM     12  C   UNL     1      33.174  -5.830  30.911  0.00  0.00    +0.000 A 
ATOM     13  C   UNL     1      32.352  -6.868  30.515  0.00  0.00    +0.000 A 
BRANCH   8  15
ATOM     14  C   UNL     1      30.690  -9.073  29.740  0.00  0.00    +0.000 C 
ATOM     15  O   UNL     1      31.703  -8.565  28.914  0.00  0.00    +0.000 OA
ENDBRANCH   8  15
ENDBRANCH   1  12
BRANCH   5  16
ATOM     16  C   UNL     1      33.439  -1.239  35.705  0.00  0.00    +0.000 C 
ATOM     17  C   UNL     1      32.823  -0.352  34.636  0.00  0.00    +0.000 C 
ATOM     18  C   UNL     1      34.923  -1.410  35.515  0.00  0.00    +0.000 C 
ATOM     19  C   UNL     1      33.134  -0.646  37.074  0.00  0.00    +0.000 C 
ENDBRANCH   5  16
TORSDOF 3
ENDMDL
MODEL 10
REMARK VINA RESULT:      -5.5     17.603     19.292
REMARK  Name = 
REMARK  3 active torsions:
REMARK  status: ('A' for Active; 'I' for Inactive)
REMARK    1  A    between atoms: O_2  and  C_3
REMARK    2  A    between atoms: C_7  and  C_8
REMARK    3  A    between atoms: N_12  and  C_13
REMARK                            x       y       z     vdW  Elec       q    Type
REMARK                         _______ _______ _______ _____ _____    ______ ____
ROOT
ATOM      1  C   UNL     1      27.767  23.426  27.748  0.00  0.00    +0.000 C 
ATOM      2  C   UNL     1      27.650  22.465  28.634  0.00  0.00    +0.000 C 
ATOM      3  S   UNL     1      26.673  22.755  30.095  0.00  0.00    +0.000 S 
ATOM      4  C   UNL     1      26.061  24.414  29.952  0.00  0.00    +0.000 C 
ATOM      5  N   UNL     1      25.250  24.927  30.968  0.00  0.00    +0.000 NA
ATOM      6  N   UNL     1      26.365  25.114  28.932  0.00  0.00    +0.000 NA
ATOM      7  N   UNL     1      27.159  24.686  27.884  0.00  0.00    +0.000 NA
ENDROOT
BRANCH   1  12
ATOM      8  C   UNL     1      28.811  22.932  24.172  0.00  0.00    +0.000 A 
ATOM      9  C   UNL     1      30.140  22.593  24.315  0.00  0.00    +0.000 A 
ATOM     10  C   UNL     1      30.667  22.532  25.567  0.00  0.00    +0.000 A 
ATOM     11  C   UNL     1      29.908  22.800  26.696  0.00  0.00    +0.000 A 
ATOM     12  C   UNL     1      28.578  23.141  26.567  0.00  0.00    +0.000 A 
ATOM     13  C   UNL     1      28.053  23.199  25.290  0.00  0.00    +0.000 A 
BRANCH   8  15
ATOM     14  C   UNL     1      28.656  23.995  21.984  0.00  0.00    +0.000 C 
ATOM     15  O   UNL     1      28.290  22.988  22.889  0.00  0.00    +0.000 OA
ENDBRANCH   8  15
ENDBRANCH   1  12
BRANCH   5  16
ATOM     16  C   UNL     1      24.686  26.268  30.949  0.00  0.00    +0.000 C 
ATOM     17  C   UNL     1      23.782  26.462  32.155  0.00  0.00    +0.000 C 
ATOM     18  C   UNL     1      23.952  26.467  29.650  0.00  0.00    +0.000 C 
ATOM     19  C   UNL     1      25.864  27.227  31.057  0.00  0.00    +0.000 C 
ENDBRANCH   5  16
TORSDOF 3
ENDMDL
