MODEL 1
REMARK VINA RESULT:      -7.8      0.000      0.000
REMARK  Name = 
REMARK  8 active torsions:
REMARK  status: ('A' for Active; 'I' for Inactive)
REMARK    1  A    between atoms: C_7  and  N_8
REMARK    2  A    between atoms: C_9  and  C_11
REMARK    3  A    between atoms: C_11  and  C_12
REMARK    4  A    between atoms: C_11  and  N_19
REMARK    5  A    between atoms: C_12  and  C_13
REMARK    6  A    between atoms: C_20  and  O_22
REMARK    7  A    between atoms: O_22  and  C_23
REMARK    8  A    between atoms: C_23  and  C_24
REMARK                            x       y       z     vdW  Elec       q    Type
REMARK                         _______ _______ _______ _____ _____    ______ ____
ROOT
ATOM      1  C   UNL     1      38.789   1.573  14.005  0.00  0.00    +0.000 C 
ENDROOT
BRANCH   1   3
ATOM      2  N   UNL     1      37.545  -0.008  15.514  0.00  0.00    +0.000 NA
ATOM      3  C   UNL     1      37.479   0.722  14.309  0.00  0.00    +0.000 C 
ATOM      4  O   UNL     1      36.512   0.685  13.601  0.00  0.00    +0.000 OA
BRANCH   2  11
ATOM      5  C   UNL     1      34.883  -4.120  15.037  0.00  0.00    +0.000 C 
ATOM      6  C   UNL     1      35.116  -2.817  15.682  0.00  0.00    +0.000 A 
ATOM      7  C   UNL     1      34.274  -2.342  16.664  0.00  0.00    +0.000 A 
ATOM      8  C   UNL     1      34.477  -1.123  17.278  0.00  0.00    +0.000 A 
ATOM      9  C   UNL     1      35.573  -0.356  16.883  0.00  0.00    +0.000 A 
ATOM     10  C   UNL     1      35.868   0.965  17.488  0.00  0.00    +0.000 C 
ATOM     11  C   UNL     1      36.425  -0.816  15.903  0.00  0.00    +0.000 A 
ATOM     12  C   UNL     1      36.201  -2.040  15.304  0.00  0.00    +0.000 A 
ENDBRANCH   2  11
ENDBRANCH   1   3
BRANCH   1  13
ATOM     13  N   UNL     1      38.927   2.236  15.407  0.00  0.00    +0.000 NA
ATOM     14  C   UNL     1      38.418   3.532  15.559  0.00  0.00    +0.000 C 
ATOM     15  O   UNL     1      37.869   4.123  14.601  0.00  0.00    +0.000 OA
BRANCH  14  16
ATOM     16  O   UNL     1      38.491   4.234  16.768  0.00  0.00    +0.000 OA
BRANCH  16  17
ATOM     17  C   UNL     1      38.568   5.644  16.843  0.00  0.00    +0.000 C 
BRANCH  17  18
ATOM     18  C   UNL     1      39.703   5.972  17.749  0.00  0.00    +0.000 A 
ATOM     19  C   UNL     1      40.970   6.227  17.254  0.00  0.00    +0.000 A 
ATOM     20  C   UNL     1      42.019   6.526  18.097  0.00  0.00    +0.000 A 
ATOM     21  C   UNL     1      41.868   6.588  19.465  0.00  0.00    +0.000 A 
ATOM     22  C   UNL     1      40.593   6.333  19.986  0.00  0.00    +0.000 A 
ATOM     23  C   UNL     1      39.564   6.037  19.121  0.00  0.00    +0.000 A 
ENDBRANCH  17  18
ENDBRANCH  16  17
ENDBRANCH  14  16
ENDBRANCH   1  13
BRANCH   1  24
ATOM     24  C   UNL     1      39.878   0.359  14.254  0.00  0.00    +0.000 C 
BRANCH  24  25
ATOM     25  C   UNL     1      39.936  -0.333  12.940  0.00  0.00    +0.000 A 
ATOM     26  C   UNL     1      39.784  -1.703  12.928  0.00  0.00    +0.000 A 
ATOM     27  C   UNL     1      39.815  -2.468  11.799  0.00  0.00    +0.000 A 
ATOM     28  C   UNL     1      40.013  -1.799  10.594  0.00  0.00    +0.000 A 
ATOM     29  C   UNL     1      40.167  -0.430  10.587  0.00  0.00    +0.000 A 
ATOM     30  C   UNL     1      40.130   0.310  11.748  0.00  0.00    +0.000 A 
ENDBRANCH  24  25
ENDBRANCH   1  24
TORSDOF 8
ENDMDL
MODEL 2
REMARK VINA RESULT:      -7.7      1.840      7.983
REMARK  Name = 
REMARK  8 active torsions:
REMARK  status: ('A' for Active; 'I' for Inactive)
REMARK    1  A    between atoms: C_7  and  N_8
REMARK    2  A    between atoms: C_9  and  C_11
REMARK    3  A    between atoms: C_11  and  C_12
REMARK    4  A    between atoms: C_11  and  N_19
REMARK    5  A    between atoms: C_12  and  C_13
REMARK    6  A    between atoms: C_20  and  O_22
REMARK    7  A    between atoms: O_22  and  C_23
REMARK    8  A    between atoms: C_23  and  C_24
REMARK                            x       y       z     vdW  Elec       q    Type
REMARK                         _______ _______ _______ _____ _____    ______ ____
ROOT
ATOM      1  C   UNL     1      36.392   2.353  15.808  0.00  0.00    +0.000 C 
ENDROOT
BRANCH   1   3
ATOM      2  N   UNL     1      38.289   3.632  16.851  0.00  0.00    +0.000 NA
ATOM      3  C   UNL     1      37.108   3.747  16.088  0.00  0.00    +0.000 C 
ATOM      4  O   UNL     1      36.706   4.808  15.701  0.00  0.00    +0.000 OA
BRANCH   2  11
ATOM      5  C   UNL     1      39.521   7.152  20.063  0.00  0.00    +0.000 C 
ATOM      6  C   UNL     1      39.641   6.543  18.727  0.00  0.00    +0.000 A 
ATOM      7  C   UNL     1      40.456   7.089  17.760  0.00  0.00    +0.000 A 
ATOM      8  C   UNL     1      40.579   6.531  16.504  0.00  0.00    +0.000 A 
ATOM      9  C   UNL     1      39.850   5.377  16.216  0.00  0.00    +0.000 A 
ATOM     10  C   UNL     1      39.921   4.711  14.894  0.00  0.00    +0.000 C 
ATOM     11  C   UNL     1      39.030   4.819  17.172  0.00  0.00    +0.000 A 
ATOM     12  C   UNL     1      38.925   5.396  18.422  0.00  0.00    +0.000 A 
ENDBRANCH   2  11
ENDBRANCH   1   3
BRANCH   1  13
ATOM     13  N   UNL     1      37.663   1.457  15.875  0.00  0.00    +0.000 NA
ATOM     14  C   UNL     1      37.999   0.728  14.727  0.00  0.00    +0.000 C 
ATOM     15  O   UNL     1      37.301   0.806  13.690  0.00  0.00    +0.000 OA
BRANCH  14  16
ATOM     16  O   UNL     1      39.113  -0.118  14.669  0.00  0.00    +0.000 OA
BRANCH  16  17
ATOM     17  C   UNL     1      39.123  -1.341  13.960  0.00  0.00    +0.000 C 
BRANCH  17  18
ATOM     18  C   UNL     1      38.690  -2.401  14.912  0.00  0.00    +0.000 A 
ATOM     19  C   UNL     1      39.303  -2.559  16.143  0.00  0.00    +0.000 A 
ATOM     20  C   UNL     1      38.902  -3.544  17.019  0.00  0.00    +0.000 A 
ATOM     21  C   UNL     1      37.879  -4.419  16.723  0.00  0.00    +0.000 A 
ATOM     22  C   UNL     1      37.245  -4.276  15.483  0.00  0.00    +0.000 A 
ATOM     23  C   UNL     1      37.667  -3.283  14.627  0.00  0.00    +0.000 A 
ENDBRANCH  17  18
ENDBRANCH  16  17
ENDBRANCH  14  16
ENDBRANCH   1  13
BRANCH   1  24
ATOM     24  C   UNL     1      35.876   2.079  17.350  0.00  0.00    +0.000 C 
BRANCH  24  25
ATOM     25  C   UNL     1      35.687   0.606  17.400  0.00  0.00    +0.000 A 
ATOM     26  C   UNL     1      36.303  -0.086  18.421  0.00  0.00    +0.000 A 
ATOM     27  C   UNL     1      36.217  -1.437  18.591  0.00  0.00    +0.000 A 
ATOM     28  C   UNL     1      35.454  -2.139  17.662  0.00  0.00    +0.000 A 
ATOM     29  C   UNL     1      34.832  -1.463  16.635  0.00  0.00    +0.000 A 
ATOM     30  C   UNL     1      34.941  -0.098  16.495  0.00  0.00    +0.000 A 
ENDBRANCH  24  25
ENDBRANCH   1  24
TORSDOF 8
ENDMDL
MODEL 3
REMARK VINA RESULT:      -7.7      3.194      6.189
REMARK  Name = 
REMARK  8 active torsions:
REMARK  status: ('A' for Active; 'I' for Inactive)
REMARK    1  A    between atoms: C_7  and  N_8
REMARK    2  A    between atoms: C_9  and  C_11
REMARK    3  A    between atoms: C_11  and  C_12
REMARK    4  A    between atoms: C_11  and  N_19
REMARK    5  A    between atoms: C_12  and  C_13
REMARK    6  A    between atoms: C_20  and  O_22
REMARK    7  A    between atoms: O_22  and  C_23
REMARK    8  A    between atoms: C_23  and  C_24
REMARK                            x       y       z     vdW  Elec       q    Type
REMARK                         _______ _______ _______ _____ _____    ______ ____
ROOT
ATOM      1  C   UNL     1      36.301   2.855  15.429  0.00  0.00    +0.000 C 
ENDROOT
BRANCH   1   3
ATOM      2  N   UNL     1      36.429   5.055  14.219  0.00  0.00    +0.000 NA
ATOM      3  C   UNL     1      35.565   4.150  14.870  0.00  0.00    +0.000 C 
ATOM      4  O   UNL     1      34.390   4.365  14.977  0.00  0.00    +0.000 OA
BRANCH   2  11
ATOM      5  C   UNL     1      33.551   7.335  10.941  0.00  0.00    +0.000 C 
ATOM      6  C   UNL     1      34.487   7.392  12.076  0.00  0.00    +0.000 A 
ATOM      7  C   UNL     1      34.866   8.593  12.634  0.00  0.00    +0.000 A 
ATOM      8  C   UNL     1      35.743   8.664  13.698  0.00  0.00    +0.000 A 
ATOM      9  C   UNL     1      36.255   7.475  14.215  0.00  0.00    +0.000 A 
ATOM     10  C   UNL     1      37.202   7.457  15.356  0.00  0.00    +0.000 C 
ATOM     11  C   UNL     1      35.887   6.265  13.669  0.00  0.00    +0.000 A 
ATOM     12  C   UNL     1      35.007   6.220  12.606  0.00  0.00    +0.000 A 
ENDBRANCH   2  11
ENDBRANCH   1   3
BRANCH   1  13
ATOM     13  N   UNL     1      36.774   3.460  16.783  0.00  0.00    +0.000 NA
ATOM     14  C   UNL     1      38.134   3.772  16.910  0.00  0.00    +0.000 C 
ATOM     15  O   UNL     1      38.929   3.574  15.963  0.00  0.00    +0.000 OA
BRANCH  14  16
ATOM     16  O   UNL     1      38.678   4.313  18.081  0.00  0.00    +0.000 OA
BRANCH  16  17
ATOM     17  C   UNL     1      38.690   5.698  18.363  0.00  0.00    +0.000 C 
BRANCH  17  18
ATOM     18  C   UNL     1      40.102   6.073  18.651  0.00  0.00    +0.000 A 
ATOM     19  C   UNL     1      40.541   6.287  19.946  0.00  0.00    +0.000 A 
ATOM     20  C   UNL     1      41.848   6.638  20.209  0.00  0.00    +0.000 A 
ATOM     21  C   UNL     1      42.782   6.793  19.207  0.00  0.00    +0.000 A 
ATOM     22  C   UNL     1      42.358   6.581  17.890  0.00  0.00    +0.000 A 
ATOM     23  C   UNL     1      41.046   6.232  17.658  0.00  0.00    +0.000 A 
ENDBRANCH  17  18
ENDBRANCH  16  17
ENDBRANCH  14  16
ENDBRANCH   1  13
BRANCH   1  24
ATOM     24  C   UNL     1      34.958   2.096  16.011  0.00  0.00    +0.000 C 
BRANCH  24  25
ATOM     25  C   UNL     1      35.343   0.661  16.021  0.00  0.00    +0.000 A 
ATOM     26  C   UNL     1      34.773  -0.150  16.979  0.00  0.00    +0.000 A 
ATOM     27  C   UNL     1      35.032  -1.483  17.107  0.00  0.00    +0.000 A 
ATOM     28  C   UNL     1      35.933  -2.037  16.201  0.00  0.00    +0.000 A 
ATOM     29  C   UNL     1      36.513  -1.240  15.237  0.00  0.00    +0.000 A 
ATOM     30  C   UNL     1      36.227   0.103  15.139  0.00  0.00    +0.000 A 
ENDBRANCH  24  25
ENDBRANCH   1  24
TORSDOF 8
ENDMDL
MODEL 4
REMARK VINA RESULT:      -7.6      3.442      5.977
REMARK  Name = 
REMARK  8 active torsions:
REMARK  status: ('A' for Active; 'I' for Inactive)
REMARK    1  A    between atoms: C_7  and  N_8
REMARK    2  A    between atoms: C_9  and  C_11
REMARK    3  A    between atoms: C_11  and  C_12
REMARK    4  A    between atoms: C_11  and  N_19
REMARK    5  A    between atoms: C_12  and  C_13
REMARK    6  A    between atoms: C_20  and  O_22
REMARK    7  A    between atoms: O_22  and  C_23
REMARK    8  A    between atoms: C_23  and  C_24
REMARK                            x       y       z     vdW  Elec       q    Type
REMARK                         _______ _______ _______ _____ _____    ______ ____
ROOT
ATOM      1  C   UNL     1      37.367   3.647  14.929  0.00  0.00    +0.000 C 
ENDROOT
BRANCH   1   3
ATOM      2  N   UNL     1      37.145   1.274  15.729  0.00  0.00    +0.000 NA
ATOM      3  C   UNL     1      36.742   2.196  14.740  0.00  0.00    +0.000 C 
ATOM      4  O   UNL     1      35.997   1.886  13.853  0.00  0.00    +0.000 OA
BRANCH   2  11
ATOM      5  C   UNL     1      37.368  -3.278  13.868  0.00  0.00    +0.000 C 
ATOM      6  C   UNL     1      36.744  -2.297  14.773  0.00  0.00    +0.000 A 
ATOM      7  C   UNL     1      35.680  -2.638  15.579  0.00  0.00    +0.000 A 
ATOM      8  C   UNL     1      35.084  -1.731  16.431  0.00  0.00    +0.000 A 
ATOM      9  C   UNL     1      35.585  -0.430  16.470  0.00  0.00    +0.000 A 
ATOM     10  C   UNL     1      35.007   0.609  17.356  0.00  0.00    +0.000 C 
ATOM     11  C   UNL     1      36.649  -0.072  15.671  0.00  0.00    +0.000 A 
ATOM     12  C   UNL     1      37.228  -0.999  14.827  0.00  0.00    +0.000 A 
ENDBRANCH   2  11
ENDBRANCH   1   3
BRANCH   1  13
ATOM     13  N   UNL     1      36.054   4.459  14.731  0.00  0.00    +0.000 NA
ATOM     14  C   UNL     1      35.872   5.097  13.497  0.00  0.00    +0.000 C 
ATOM     15  O   UNL     1      36.735   5.007  12.594  0.00  0.00    +0.000 OA
BRANCH  14  16
ATOM     16  O   UNL     1      34.737   5.863  13.203  0.00  0.00    +0.000 OA
BRANCH  16  17
ATOM     17  C   UNL     1      34.781   7.059  12.451  0.00  0.00    +0.000 C 
BRANCH  17  18
ATOM     18  C   UNL     1      34.472   8.175  13.388  0.00  0.00    +0.000 A 
ATOM     19  C   UNL     1      33.902   7.941  14.626  0.00  0.00    +0.000 A 
ATOM     20  C   UNL     1      33.614   8.977  15.488  0.00  0.00    +0.000 A 
ATOM     21  C   UNL     1      33.876  10.292  15.169  0.00  0.00    +0.000 A 
ATOM     22  C   UNL     1      34.454  10.551  13.920  0.00  0.00    +0.000 A 
ATOM     23  C   UNL     1      34.730   9.495  13.080  0.00  0.00    +0.000 A 
ENDBRANCH  17  18
ENDBRANCH  16  17
ENDBRANCH  14  16
ENDBRANCH   1  13
BRANCH   1  24
ATOM     24  C   UNL     1      37.357   3.656  16.578  0.00  0.00    +0.000 C 
BRANCH  24  25
ATOM     25  C   UNL     1      38.482   4.560  16.931  0.00  0.00    +0.000 A 
ATOM     26  C   UNL     1      38.685   4.845  18.264  0.00  0.00    +0.000 A 
ATOM     27  C   UNL     1      39.677   5.656  18.732  0.00  0.00    +0.000 A 
ATOM     28  C   UNL     1      40.526   6.220  17.784  0.00  0.00    +0.000 A 
ATOM     29  C   UNL     1      40.338   5.947  16.446  0.00  0.00    +0.000 A 
ATOM     30  C   UNL     1      39.325   5.122  16.011  0.00  0.00    +0.000 A 
ENDBRANCH  24  25
ENDBRANCH   1  24
TORSDOF 8
ENDMDL
MODEL 5
REMARK VINA RESULT:      -7.4      3.734      8.235
REMARK  Name = 
REMARK  8 active torsions:
REMARK  status: ('A' for Active; 'I' for Inactive)
REMARK    1  A    between atoms: C_7  and  N_8
REMARK    2  A    between atoms: C_9  and  C_11
REMARK    3  A    between atoms: C_11  and  C_12
REMARK    4  A    between atoms: C_11  and  N_19
REMARK    5  A    between atoms: C_12  and  C_13
REMARK    6  A    between atoms: C_20  and  O_22
REMARK    7  A    between atoms: O_22  and  C_23
REMARK    8  A    between atoms: C_23  and  C_24
REMARK                            x       y       z     vdW  Elec       q    Type
REMARK                         _______ _______ _______ _____ _____    ______ ____
ROOT
ATOM      1  C   UNL     1      37.700   5.266  15.653  0.00  0.00    +0.000 C 
ENDROOT
BRANCH   1   3
ATOM      2  N   UNL     1      36.026   5.405  13.782  0.00  0.00    +0.000 NA
ATOM      3  C   UNL     1      37.143   6.031  14.373  0.00  0.00    +0.000 C 
ATOM      4  O   UNL     1      37.607   7.044  13.930  0.00  0.00    +0.000 OA
BRANCH   2  11
ATOM      5  C   UNL     1      36.036   6.222   8.928  0.00  0.00    +0.000 C 
ATOM      6  C   UNL     1      35.419   6.405  10.253  0.00  0.00    +0.000 A 
ATOM      7  C   UNL     1      34.266   7.142  10.412  0.00  0.00    +0.000 A 
ATOM      8  C   UNL     1      33.676   7.324  11.646  0.00  0.00    +0.000 A 
ATOM      9  C   UNL     1      34.275   6.738  12.761  0.00  0.00    +0.000 A 
ATOM     10  C   UNL     1      33.710   6.881  14.124  0.00  0.00    +0.000 C 
ATOM     11  C   UNL     1      35.428   5.997  12.620  0.00  0.00    +0.000 A 
ATOM     12  C   UNL     1      35.999   5.829  11.373  0.00  0.00    +0.000 A 
ENDBRANCH   2  11
ENDBRANCH   1   3
BRANCH   1  13
ATOM     13  N   UNL     1      37.872   3.868  14.992  0.00  0.00    +0.000 NA
ATOM     14  C   UNL     1      37.613   2.743  15.787  0.00  0.00    +0.000 C 
ATOM     15  O   UNL     1      37.251   2.870  16.979  0.00  0.00    +0.000 OA
BRANCH  14  16
ATOM     16  O   UNL     1      37.741   1.435  15.307  0.00  0.00    +0.000 OA
BRANCH  16  17
ATOM     17  C   UNL     1      38.814   1.009  14.491  0.00  0.00    +0.000 C 
BRANCH  17  18
ATOM     18  C   UNL     1      39.177  -0.368  14.929  0.00  0.00    +0.000 A 
ATOM     19  C   UNL     1      38.385  -1.074  15.817  0.00  0.00    +0.000 A 
ATOM     20  C   UNL     1      38.727  -2.346  16.223  0.00  0.00    +0.000 A 
ATOM     21  C   UNL     1      39.864  -2.980  15.771  0.00  0.00    +0.000 A 
ATOM     22  C   UNL     1      40.678  -2.283  14.870  0.00  0.00    +0.000 A 
ATOM     23  C   UNL     1      40.312  -1.013  14.483  0.00  0.00    +0.000 A 
ENDBRANCH  17  18
ENDBRANCH  16  17
ENDBRANCH  14  16
ENDBRANCH   1  13
BRANCH   1  24
ATOM     24  C   UNL     1      39.271   5.748  15.506  0.00  0.00    +0.000 C 
BRANCH  24  25
ATOM     25  C   UNL     1      39.712   5.937  16.913  0.00  0.00    +0.000 A 
ATOM     26  C   UNL     1      41.031   6.269  17.133  0.00  0.00    +0.000 A 
ATOM     27  C   UNL     1      41.574   6.473  18.368  0.00  0.00    +0.000 A 
ATOM     28  C   UNL     1      40.721   6.332  19.459  0.00  0.00    +0.000 A 
ATOM     29  C   UNL     1      39.398   6.000  19.257  0.00  0.00    +0.000 A 
ATOM     30  C   UNL     1      38.886   5.802  17.995  0.00  0.00    +0.000 A 
ENDBRANCH  24  25
ENDBRANCH   1  24
TORSDOF 8
ENDMDL
MODEL 6
REMARK VINA RESULT:      -7.4      2.930      4.886
REMARK  Name = 
REMARK  8 active torsions:
REMARK  status: ('A' for Active; 'I' for Inactive)
REMARK    1  A    between atoms: C_7  and  N_8
REMARK    2  A    between atoms: C_9  and  C_11
REMARK    3  A    between atoms: C_11  and  C_12
REMARK    4  A    between atoms: C_11  and  N_19
REMARK    5  A    between atoms: C_12  and  C_13
REMARK    6  A    between atoms: C_20  and  O_22
REMARK    7  A    between atoms: O_22  and  C_23
REMARK    8  A    between atoms: C_23  and  C_24
REMARK                            x       y       z     vdW  Elec       q    Type
REMARK                         _______ _______ _______ _____ _____    ______ ____
ROOT
ATOM      1  C   UNL     1      36.219   4.303  15.113  0.00  0.00    +0.000 C 
ENDROOT
BRANCH   1   3
ATOM      2  N   UNL     1      36.546   1.954  15.949  0.00  0.00    +0.000 NA
ATOM      3  C   UNL     1      35.767   2.777  15.109  0.00  0.00    +0.000 C 
ATOM      4  O   UNL     1      34.856   2.339  14.464  0.00  0.00    +0.000 OA
BRANCH   2  11
ATOM      5  C   UNL     1      33.616  -1.683  17.503  0.00  0.00    +0.000 C 
ATOM      6  C   UNL     1      34.820  -1.231  16.785  0.00  0.00    +0.000 A 
ATOM      7  C   UNL     1      35.677  -2.127  16.185  0.00  0.00    +0.000 A 
ATOM      8  C   UNL     1      36.809  -1.721  15.509  0.00  0.00    +0.000 A 
ATOM      9  C   UNL     1      37.085  -0.355  15.439  0.00  0.00    +0.000 A 
ATOM     10  C   UNL     1      38.279   0.171  14.734  0.00  0.00    +0.000 C 
ATOM     11  C   UNL     1      36.239   0.555  16.035  0.00  0.00    +0.000 A 
ATOM     12  C   UNL     1      35.112   0.122  16.704  0.00  0.00    +0.000 A 
ENDBRANCH   2  11
ENDBRANCH   1   3
BRANCH   1  13
ATOM     13  N   UNL     1      37.703   4.072  15.519  0.00  0.00    +0.000 NA
ATOM     14  C   UNL     1      38.390   5.150  16.093  0.00  0.00    +0.000 C 
ATOM     15  O   UNL     1      37.819   6.250  16.275  0.00  0.00    +0.000 OA
BRANCH  14  16
ATOM     16  O   UNL     1      39.729   5.066  16.490  0.00  0.00    +0.000 OA
BRANCH  16  17
ATOM     17  C   UNL     1      40.628   6.156  16.426  0.00  0.00    +0.000 C 
BRANCH  17  18
ATOM     18  C   UNL     1      41.201   6.331  17.790  0.00  0.00    +0.000 A 
ATOM     19  C   UNL     1      40.415   6.212  18.923  0.00  0.00    +0.000 A 
ATOM     20  C   UNL     1      40.949   6.379  20.183  0.00  0.00    +0.000 A 
ATOM     21  C   UNL     1      42.281   6.671  20.383  0.00  0.00    +0.000 A 
ATOM     22  C   UNL     1      43.093   6.795  19.249  0.00  0.00    +0.000 A 
ATOM     23  C   UNL     1      42.532   6.624  18.003  0.00  0.00    +0.000 A 
ENDBRANCH  17  18
ENDBRANCH  16  17
ENDBRANCH  14  16
ENDBRANCH   1  13
BRANCH   1  24
ATOM     24  C   UNL     1      36.477   4.440  13.490  0.00  0.00    +0.000 C 
BRANCH  24  25
ATOM     25  C   UNL     1      35.524   5.502  13.072  0.00  0.00    +0.000 A 
ATOM     26  C   UNL     1      35.634   5.996  11.790  0.00  0.00    +0.000 A 
ATOM     27  C   UNL     1      34.830   6.968  11.272  0.00  0.00    +0.000 A 
ATOM     28  C   UNL     1      33.842   7.478  12.111  0.00  0.00    +0.000 A 
ATOM     29  C   UNL     1      33.718   6.996  13.396  0.00  0.00    +0.000 A 
ATOM     30  C   UNL     1      34.549   6.013  13.885  0.00  0.00    +0.000 A 
ENDBRANCH  24  25
ENDBRANCH   1  24
TORSDOF 8
ENDMDL
MODEL 7
REMARK VINA RESULT:      -7.4      1.730      5.103
REMARK  Name = 
REMARK  8 active torsions:
REMARK  status: ('A' for Active; 'I' for Inactive)
REMARK    1  A    between atoms: C_7  and  N_8
REMARK    2  A    between atoms: C_9  and  C_11
REMARK    3  A    between atoms: C_11  and  C_12
REMARK    4  A    between atoms: C_11  and  N_19
REMARK    5  A    between atoms: C_12  and  C_13
REMARK    6  A    between atoms: C_20  and  O_22
REMARK    7  A    between atoms: O_22  and  C_23
REMARK    8  A    between atoms: C_23  and  C_24
REMARK                            x       y       z     vdW  Elec       q    Type
REMARK                         _______ _______ _______ _____ _____    ______ ____
ROOT
ATOM      1  C   UNL     1      38.334   1.001  15.458  0.00  0.00    +0.000 C 
ENDROOT
BRANCH   1   3
ATOM      2  N   UNL     1      39.787  -0.985  14.941  0.00  0.00    +0.000 NA
ATOM      3  C   UNL     1      39.401   0.301  14.507  0.00  0.00    +0.000 C 
ATOM      4  O   UNL     1      39.853   0.793  13.512  0.00  0.00    +0.000 OA
BRANCH   2  11
ATOM      5  C   UNL     1      44.464  -2.055  13.842  0.00  0.00    +0.000 C 
ATOM      6  C   UNL     1      43.022  -2.257  13.621  0.00  0.00    +0.000 A 
ATOM      7  C   UNL     1      42.557  -3.147  12.677  0.00  0.00    +0.000 A 
ATOM      8  C   UNL     1      41.210  -3.347  12.457  0.00  0.00    +0.000 A 
ATOM      9  C   UNL     1      40.297  -2.618  13.221  0.00  0.00    +0.000 A 
ATOM     10  C   UNL     1      38.832  -2.769  13.052  0.00  0.00    +0.000 C 
ATOM     11  C   UNL     1      40.745  -1.723  14.169  0.00  0.00    +0.000 A 
ATOM     12  C   UNL     1      42.099  -1.542  14.370  0.00  0.00    +0.000 A 
ENDBRANCH   2  11
ENDBRANCH   1   3
BRANCH   1  13
ATOM     13  N   UNL     1      38.581   2.465  14.994  0.00  0.00    +0.000 NA
ATOM     14  C   UNL     1      38.154   3.492  15.846  0.00  0.00    +0.000 C 
ATOM     15  O   UNL     1      37.601   3.231  16.938  0.00  0.00    +0.000 OA
BRANCH  14  16
ATOM     16  O   UNL     1      38.314   4.848  15.533  0.00  0.00    +0.000 OA
BRANCH  16  17
ATOM     17  C   UNL     1      37.997   5.894  16.430  0.00  0.00    +0.000 C 
BRANCH  17  18
ATOM     18  C   UNL     1      39.166   6.063  17.336  0.00  0.00    +0.000 A 
ATOM     19  C   UNL     1      40.442   6.262  16.837  0.00  0.00    +0.000 A 
ATOM     20  C   UNL     1      41.522   6.414  17.680  0.00  0.00    +0.000 A 
ATOM     21  C   UNL     1      41.395   6.377  19.051  0.00  0.00    +0.000 A 
ATOM     22  C   UNL     1      40.112   6.176  19.576  0.00  0.00    +0.000 A 
ATOM     23  C   UNL     1      39.052   6.027  18.711  0.00  0.00    +0.000 A 
ENDBRANCH  17  18
ENDBRANCH  16  17
ENDBRANCH  14  16
ENDBRANCH   1  13
BRANCH   1  24
ATOM     24  C   UNL     1      37.010   0.717  14.516  0.00  0.00    +0.000 C 
BRANCH  24  25
ATOM     25  C   UNL     1      36.187  -0.207  15.338  0.00  0.00    +0.000 A 
ATOM     26  C   UNL     1      35.425   0.338  16.349  0.00  0.00    +0.000 A 
ATOM     27  C   UNL     1      34.623  -0.388  17.181  0.00  0.00    +0.000 A 
ATOM     28  C   UNL     1      34.588  -1.764  16.975  0.00  0.00    +0.000 A 
ATOM     29  C   UNL     1      35.343  -2.326  15.968  0.00  0.00    +0.000 A 
ATOM     30  C   UNL     1      36.142  -1.562  15.148  0.00  0.00    +0.000 A 
ENDBRANCH  24  25
ENDBRANCH   1  24
TORSDOF 8
ENDMDL
MODEL 8
REMARK VINA RESULT:      -7.2      1.301      2.192
REMARK  Name = 
REMARK  8 active torsions:
REMARK  status: ('A' for Active; 'I' for Inactive)
REMARK    1  A    between atoms: C_7  and  N_8
REMARK    2  A    between atoms: C_9  and  C_11
REMARK    3  A    between atoms: C_11  and  C_12
REMARK    4  A    between atoms: C_11  and  N_19
REMARK    5  A    between atoms: C_12  and  C_13
REMARK    6  A    between atoms: C_20  and  O_22
REMARK    7  A    between atoms: O_22  and  C_23
REMARK    8  A    between atoms: C_23  and  C_24
REMARK                            x       y       z     vdW  Elec       q    Type
REMARK                         _______ _______ _______ _____ _____    ______ ____
ROOT
ATOM      1  C   UNL     1      39.318   0.892  13.930  0.00  0.00    +0.000 C 
ENDROOT
BRANCH   1   3
ATOM      2  N   UNL     1      38.011  -0.941  15.051  0.00  0.00    +0.000 NA
ATOM      3  C   UNL     1      37.944   0.108  14.110  0.00  0.00    +0.000 C 
ATOM      4  O   UNL     1      36.933   0.361  13.518  0.00  0.00    +0.000 OA
BRANCH   2  11
ATOM      5  C   UNL     1      33.791  -1.635  17.487  0.00  0.00    +0.000 C 
ATOM      6  C   UNL     1      34.775  -2.079  16.486  0.00  0.00    +0.000 A 
ATOM      7  C   UNL     1      34.601  -3.246  15.776  0.00  0.00    +0.000 A 
ATOM      8  C   UNL     1      35.513  -3.677  14.835  0.00  0.00    +0.000 A 
ATOM      9  C   UNL     1      36.647  -2.896  14.604  0.00  0.00    +0.000 A 
ATOM     10  C   UNL     1      37.679  -3.281  13.612  0.00  0.00    +0.000 C 
ATOM     11  C   UNL     1      36.837  -1.726  15.306  0.00  0.00    +0.000 A 
ATOM     12  C   UNL     1      35.908  -1.316  16.242  0.00  0.00    +0.000 A 
ENDBRANCH   2  11
ENDBRANCH   1   3
BRANCH   1  13
ATOM     13  N   UNL     1      39.170   1.841  15.154  0.00  0.00    +0.000 NA
ATOM     14  C   UNL     1      38.867   3.184  14.895  0.00  0.00    +0.000 C 
ATOM     15  O   UNL     1      38.718   3.593  13.721  0.00  0.00    +0.000 OA
BRANCH  14  16
ATOM     16  O   UNL     1      38.718   4.134  15.912  0.00  0.00    +0.000 OA
BRANCH  16  17
ATOM     17  C   UNL     1      39.132   5.480  15.785  0.00  0.00    +0.000 C 
BRANCH  17  18
ATOM     18  C   UNL     1      39.102   6.077  17.149  0.00  0.00    +0.000 A 
ATOM     19  C   UNL     1      39.902   5.589  18.167  0.00  0.00    +0.000 A 
ATOM     20  C   UNL     1      39.869   6.143  19.429  0.00  0.00    +0.000 A 
ATOM     21  C   UNL     1      39.046   7.203  19.744  0.00  0.00    +0.000 A 
ATOM     22  C   UNL     1      38.229   7.712  18.727  0.00  0.00    +0.000 A 
ATOM     23  C   UNL     1      38.283   7.138  17.477  0.00  0.00    +0.000 A 
ENDBRANCH  17  18
ENDBRANCH  16  17
ENDBRANCH  14  16
ENDBRANCH   1  13
BRANCH   1  24
ATOM     24  C   UNL     1      40.284  -0.226  14.663  0.00  0.00    +0.000 C 
BRANCH  24  25
ATOM     25  C   UNL     1      40.866  -0.985  13.525  0.00  0.00    +0.000 A 
ATOM     26  C   UNL     1      41.328  -2.260  13.773  0.00  0.00    +0.000 A 
ATOM     27  C   UNL     1      41.885  -3.070  12.827  0.00  0.00    +0.000 A 
ATOM     28  C   UNL     1      41.983  -2.554  11.538  0.00  0.00    +0.000 A 
ATOM     29  C   UNL     1      41.527  -1.281  11.272  0.00  0.00    +0.000 A 
ATOM     30  C   UNL     1      40.970  -0.492  12.253  0.00  0.00    +0.000 A 
ENDBRANCH  24  25
ENDBRANCH   1  24
TORSDOF 8
ENDMDL
MODEL 9
REMARK VINA RESULT:      -7.2      2.697      4.327
REMARK  Name = 
REMARK  8 active torsions:
REMARK  status: ('A' for Active; 'I' for Inactive)
REMARK    1  A    between atoms: C_7  and  N_8
REMARK    2  A    between atoms: C_9  and  C_11
REMARK    3  A    between atoms: C_11  and  C_12
REMARK    4  A    between atoms: C_11  and  N_19
REMARK    5  A    between atoms: C_12  and  C_13
REMARK    6  A    between atoms: C_20  and  O_22
REMARK    7  A    between atoms: O_22  and  C_23
REMARK    8  A    between atoms: C_23  and  C_24
REMARK                            x       y       z     vdW  Elec       q    Type
REMARK                         _______ _______ _______ _____ _____    ______ ____
ROOT
ATOM      1  C   UNL     1      36.682   3.557  15.345  0.00  0.00    +0.000 C 
ENDROOT
BRANCH   1   3
ATOM      2  N   UNL     1      35.876   1.276  16.031  0.00  0.00    +0.000 NA
ATOM      3  C   UNL     1      36.993   2.015  15.587  0.00  0.00    +0.000 C 
ATOM      4  O   UNL     1      38.063   1.502  15.418  0.00  0.00    +0.000 OA
BRANCH   2  11
ATOM      5  C   UNL     1      36.415  -3.327  14.372  0.00  0.00    +0.000 C 
ATOM      6  C   UNL     1      36.289  -2.380  15.493  0.00  0.00    +0.000 A 
ATOM      7  C   UNL     1      36.309  -2.809  16.801  0.00  0.00    +0.000 A 
ATOM      8  C   UNL     1      36.191  -1.936  17.863  0.00  0.00    +0.000 A 
ATOM      9  C   UNL     1      36.048  -0.575  17.589  0.00  0.00    +0.000 A 
ATOM     10  C   UNL     1      35.915   0.434  18.667  0.00  0.00    +0.000 C 
ATOM     11  C   UNL     1      36.026  -0.129  16.286  0.00  0.00    +0.000 A 
ATOM     12  C   UNL     1      36.147  -1.024  15.241  0.00  0.00    +0.000 A 
ENDBRANCH   2  11
ENDBRANCH   1   3
BRANCH   1  13
ATOM     13  N   UNL     1      38.151   4.067  15.383  0.00  0.00    +0.000 NA
ATOM     14  C   UNL     1      38.620   4.593  16.594  0.00  0.00    +0.000 C 
ATOM     15  O   UNL     1      37.878   4.640  17.602  0.00  0.00    +0.000 OA
BRANCH  14  16
ATOM     16  O   UNL     1      39.919   5.090  16.749  0.00  0.00    +0.000 OA
BRANCH  16  17
ATOM     17  C   UNL     1      40.205   6.453  16.989  0.00  0.00    +0.000 C 
BRANCH  17  18
ATOM     18  C   UNL     1      41.162   6.505  18.129  0.00  0.00    +0.000 A 
ATOM     19  C   UNL     1      42.516   6.705  17.925  0.00  0.00    +0.000 A 
ATOM     20  C   UNL     1      43.400   6.748  18.982  0.00  0.00    +0.000 A 
ATOM     21  C   UNL     1      42.988   6.597  20.289  0.00  0.00    +0.000 A 
ATOM     22  C   UNL     1      41.622   6.394  20.517  0.00  0.00    +0.000 A 
ATOM     23  C   UNL     1      40.763   6.355  19.441  0.00  0.00    +0.000 A 
ENDBRANCH  17  18
ENDBRANCH  16  17
ENDBRANCH  14  16
ENDBRANCH   1  13
BRANCH   1  24
ATOM     24  C   UNL     1      36.543   3.477  13.703  0.00  0.00    +0.000 C 
BRANCH  24  25
ATOM     25  C   UNL     1      35.840   4.737  13.349  0.00  0.00    +0.000 A 
ATOM     26  C   UNL     1      34.907   5.224  14.240  0.00  0.00    +0.000 A 
ATOM     27  C   UNL     1      34.187   6.367  14.047  0.00  0.00    +0.000 A 
ATOM     28  C   UNL     1      34.428   7.068  12.868  0.00  0.00    +0.000 A 
ATOM     29  C   UNL     1      35.356   6.595  11.966  0.00  0.00    +0.000 A 
ATOM     30  C   UNL     1      36.064   5.437  12.195  0.00  0.00    +0.000 A 
ENDBRANCH  24  25
ENDBRANCH   1  24
TORSDOF 8
ENDMDL
MODEL 10
REMARK VINA RESULT:      -7.1      3.329      8.322
REMARK  Name = 
REMARK  8 active torsions:
REMARK  status: ('A' for Active; 'I' for Inactive)
REMARK    1  A    between atoms: C_7  and  N_8
REMARK    2  A    between atoms: C_9  and  C_11
REMARK    3  A    between atoms: C_11  and  C_12
REMARK    4  A    between atoms: C_11  and  N_19
REMARK    5  A    between atoms: C_12  and  C_13
REMARK    6  A    between atoms: C_20  and  O_22
REMARK    7  A    between atoms: O_22  and  C_23
REMARK    8  A    between atoms: C_23  and  C_24
REMARK                            x       y       z     vdW  Elec       q    Type
REMARK                         _______ _______ _______ _____ _____    ______ ____
ROOT
ATOM      1  C   UNL     1      37.754   4.784  16.321  0.00  0.00    +0.000 C 
ENDROOT
BRANCH   1   3
ATOM      2  N   UNL     1      36.461   4.794  14.165  0.00  0.00    +0.000 NA
ATOM      3  C   UNL     1      37.523   5.397  14.870  0.00  0.00    +0.000 C 
ATOM      4  O   UNL     1      38.173   6.286  14.396  0.00  0.00    +0.000 OA
BRANCH   2  11
ATOM      5  C   UNL     1      33.971   7.815  11.181  0.00  0.00    +0.000 C 
ATOM      6  C   UNL     1      34.942   6.725  11.373  0.00  0.00    +0.000 A 
ATOM      7  C   UNL     1      35.571   6.126  10.304  0.00  0.00    +0.000 A 
ATOM      8  C   UNL     1      36.483   5.103  10.467  0.00  0.00    +0.000 A 
ATOM      9  C   UNL     1      36.770   4.670  11.762  0.00  0.00    +0.000 A 
ATOM     10  C   UNL     1      37.736   3.579  12.030  0.00  0.00    +0.000 C 
ATOM     11  C   UNL     1      36.150   5.259  12.843  0.00  0.00    +0.000 A 
ATOM     12  C   UNL     1      35.241   6.281  12.653  0.00  0.00    +0.000 A 
ENDBRANCH   2  11
ENDBRANCH   1   3
BRANCH   1  13
ATOM     13  N   UNL     1      38.134   3.343  15.872  0.00  0.00    +0.000 NA
ATOM     14  C   UNL     1      37.221   2.318  16.157  0.00  0.00    +0.000 C 
ATOM     15  O   UNL     1      36.144   2.564  16.745  0.00  0.00    +0.000 OA
BRANCH  14  16
ATOM     16  O   UNL     1      37.455   0.982  15.811  0.00  0.00    +0.000 OA
BRANCH  16  17
ATOM     17  C   UNL     1      38.319   0.592  14.761  0.00  0.00    +0.000 C 
BRANCH  17  18
ATOM     18  C   UNL     1      38.909  -0.720  15.145  0.00  0.00    +0.000 A 
ATOM     19  C   UNL     1      40.006  -1.239  14.481  0.00  0.00    +0.000 A 
ATOM     20  C   UNL     1      40.547  -2.456  14.837  0.00  0.00    +0.000 A 
ATOM     21  C   UNL     1      40.032  -3.216  15.865  0.00  0.00    +0.000 A 
ATOM     22  C   UNL     1      38.921  -2.708  16.550  0.00  0.00    +0.000 A 
ATOM     23  C   UNL     1      38.402  -1.490  16.172  0.00  0.00    +0.000 A 
ENDBRANCH  17  18
ENDBRANCH  16  17
ENDBRANCH  14  16
ENDBRANCH   1  13
BRANCH   1  24
ATOM     24  C   UNL     1      39.294   5.337  16.529  0.00  0.00    +0.000 C 
BRANCH  24  25
ATOM     25  C   UNL     1      39.219   6.114  17.794  0.00  0.00    +0.000 A 
ATOM     26  C   UNL     1      40.168   5.861  18.761  0.00  0.00    +0.000 A 
ATOM     27  C   UNL     1      40.222   6.497  19.967  0.00  0.00    +0.000 A 
ATOM     28  C   UNL     1      39.246   7.459  20.213  0.00  0.00    +0.000 A 
ATOM     29  C   UNL     1      38.289   7.724  19.257  0.00  0.00    +0.000 A 
ATOM     30  C   UNL     1      38.266   7.062  18.051  0.00  0.00    +0.000 A 
ENDBRANCH  24  25
ENDBRANCH   1  24
TORSDOF 8
ENDMDL
