MODEL 1
REMARK VINA RESULT:      -8.5      0.000      0.000
REMARK  Name = 
REMARK  7 active torsions:
REMARK  status: ('A' for Active; 'I' for Inactive)
REMARK    1  A    between atoms: C_5  and  C_6
REMARK    2  A    between atoms: C_11  and  C_12
REMARK    3  A    between atoms: C_12  and  O_14
REMARK    4  A    between atoms: O_14  and  C_15
REMARK    5  A    between atoms: C_15  and  C_16
REMARK    6  A    between atoms: N_18  and  C_19
REMARK    7  A    between atoms: C_22  and  C_23
REMARK                            x       y       z     vdW  Elec       q    Type
REMARK                         _______ _______ _______ _____ _____    ______ ____
ROOT
ATOM      1  C   UNL     1      36.942  -0.446  16.376  0.00  0.00    +0.000 C 
ATOM      2  O   UNL     1      35.659  -0.329  16.348  0.00  0.00    +0.000 OA
ENDROOT
BRANCH   1   8
ATOM      3  C   UNL     1      38.356  -2.415  16.820  0.00  0.00    +0.000 A 
ATOM      4  C   UNL     1      38.854  -3.335  17.780  0.00  0.00    +0.000 A 
ATOM      5  C   UNL     1      38.493  -3.202  19.100  0.00  0.00    +0.000 A 
ATOM      6  C   UNL     1      37.657  -2.191  19.514  0.00  0.00    +0.000 A 
ATOM      7  C   UNL     1      37.178  -1.305  18.595  0.00  0.00    +0.000 A 
ATOM      8  C   UNL     1      37.541  -1.432  17.234  0.00  0.00    +0.000 A 
BRANCH   3  13
ATOM      9  C   UNL     1      40.268  -2.716  11.367  0.00  0.00    +0.000 C 
ATOM     10  C   UNL     1      39.750  -2.667  12.774  0.00  0.00    +0.000 A 
ATOM     11  C   UNL     1      40.549  -2.193  13.790  0.00  0.00    +0.000 A 
ATOM     12  C   UNL     1      40.088  -2.139  15.086  0.00  0.00    +0.000 A 
ATOM     13  C   UNL     1      38.787  -2.564  15.440  0.00  0.00    +0.000 A 
ATOM     14  C   UNL     1      38.014  -3.031  14.416  0.00  0.00    +0.000 A 
ATOM     15  C   UNL     1      38.486  -3.082  13.105  0.00  0.00    +0.000 A 
ENDBRANCH   3  13
ENDBRANCH   1   8
BRANCH   1  16
ATOM     16  O   UNL     1      37.624   0.450  15.522  0.00  0.00    +0.000 OA
BRANCH  16  17
ATOM     17  C   UNL     1      37.041   1.666  15.358  0.00  0.00    +0.000 C 
BRANCH  17  18
ATOM     18  C   UNL     1      37.409   2.868  15.992  0.00  0.00    +0.000 C 
ATOM     19  O   UNL     1      36.452   3.369  16.799  0.00  0.00    +0.000 OA
ATOM     20  N   UNL     1      38.549   3.701  15.994  0.00  0.00    +0.000 NA
BRANCH  20  21
ATOM     21  C   UNL     1      38.554   4.902  16.811  0.00  0.00    +0.000 A 
ATOM     22  C   UNL     1      38.178   6.129  16.296  0.00  0.00    +0.000 A 
ATOM     23  C   UNL     1      38.179   7.279  17.112  0.00  0.00    +0.000 A 
ATOM     24  C   UNL     1      38.553   7.227  18.429  0.00  0.00    +0.000 A 
ATOM     25  C   UNL     1      38.940   5.992  18.950  0.00  0.00    +0.000 A 
ATOM     26  C   UNL     1      38.933   4.858  18.141  0.00  0.00    +0.000 A 
BRANCH  24  27
ATOM     27  C   UNL     1      38.555   8.405  19.355  0.00  0.00    +0.000 C 
ATOM     28  C   UNL     1      39.276   8.054  20.648  0.00  0.00    +0.000 C 
ATOM     29  C   UNL     1      39.306   9.521  18.638  0.00  0.00    +0.000 C 
ATOM     30  C   UNL     1      37.108   8.753  19.633  0.00  0.00    +0.000 C 
ENDBRANCH  24  27
ENDBRANCH  20  21
ENDBRANCH  17  18
ENDBRANCH  16  17
ENDBRANCH   1  16
TORSDOF 7
ENDMDL
MODEL 2
REMARK VINA RESULT:      -8.4      1.515      2.069
REMARK  Name = 
REMARK  7 active torsions:
REMARK  status: ('A' for Active; 'I' for Inactive)
REMARK    1  A    between atoms: C_5  and  C_6
REMARK    2  A    between atoms: C_11  and  C_12
REMARK    3  A    between atoms: C_12  and  O_14
REMARK    4  A    between atoms: O_14  and  C_15
REMARK    5  A    between atoms: C_15  and  C_16
REMARK    6  A    between atoms: N_18  and  C_19
REMARK    7  A    between atoms: C_22  and  C_23
REMARK                            x       y       z     vdW  Elec       q    Type
REMARK                         _______ _______ _______ _____ _____    ______ ____
ROOT
ATOM      1  C   UNL     1      36.356  -0.058  16.205  0.00  0.00    +0.000 C 
ATOM      2  O   UNL     1      35.243   0.476  16.577  0.00  0.00    +0.000 OA
ENDROOT
BRANCH   1   8
ATOM      3  C   UNL     1      38.057  -1.746  16.774  0.00  0.00    +0.000 A 
ATOM      4  C   UNL     1      38.659  -2.542  17.785  0.00  0.00    +0.000 A 
ATOM      5  C   UNL     1      38.222  -2.435  19.084  0.00  0.00    +0.000 A 
ATOM      6  C   UNL     1      37.211  -1.568  19.428  0.00  0.00    +0.000 A 
ATOM      7  C   UNL     1      36.631  -0.802  18.461  0.00  0.00    +0.000 A 
ATOM      8  C   UNL     1      37.072  -0.904  17.120  0.00  0.00    +0.000 A 
BRANCH   3  13
ATOM      9  C   UNL     1      40.024  -2.540  11.390  0.00  0.00    +0.000 C 
ATOM     10  C   UNL     1      39.525  -2.299  12.784  0.00  0.00    +0.000 A 
ATOM     11  C   UNL     1      38.461  -3.022  13.274  0.00  0.00    +0.000 A 
ATOM     12  C   UNL     1      37.992  -2.814  14.552  0.00  0.00    +0.000 A 
ATOM     13  C   UNL     1      38.570  -1.859  15.419  0.00  0.00    +0.000 A 
ATOM     14  C   UNL     1      39.624  -1.154  14.911  0.00  0.00    +0.000 A 
ATOM     15  C   UNL     1      40.094  -1.370  13.616  0.00  0.00    +0.000 A 
ENDBRANCH   3  13
ENDBRANCH   1   8
BRANCH   1  16
ATOM     16  O   UNL     1      36.745   0.273  14.887  0.00  0.00    +0.000 OA
BRANCH  16  17
ATOM     17  C   UNL     1      36.812   1.601  14.610  0.00  0.00    +0.000 C 
BRANCH  17  18
ATOM     18  C   UNL     1      37.510   2.579  15.342  0.00  0.00    +0.000 C 
ATOM     19  O   UNL     1      38.827   2.317  15.477  0.00  0.00    +0.000 OA
ATOM     20  N   UNL     1      37.175   3.790  15.987  0.00  0.00    +0.000 NA
BRANCH  20  21
ATOM     21  C   UNL     1      38.213   4.552  16.661  0.00  0.00    +0.000 A 
ATOM     22  C   UNL     1      38.311   4.579  18.040  0.00  0.00    +0.000 A 
ATOM     23  C   UNL     1      39.334   5.315  18.672  0.00  0.00    +0.000 A 
ATOM     24  C   UNL     1      40.257   6.028  17.952  0.00  0.00    +0.000 A 
ATOM     25  C   UNL     1      40.157   6.008  16.560  0.00  0.00    +0.000 A 
ATOM     26  C   UNL     1      39.146   5.275  15.941  0.00  0.00    +0.000 A 
BRANCH  24  27
ATOM     27  C   UNL     1      41.381   6.812  18.558  0.00  0.00    +0.000 C 
ATOM     28  C   UNL     1      41.621   6.362  19.991  0.00  0.00    +0.000 C 
ATOM     29  C   UNL     1      42.618   6.521  17.716  0.00  0.00    +0.000 C 
ATOM     30  C   UNL     1      40.973   8.270  18.522  0.00  0.00    +0.000 C 
ENDBRANCH  24  27
ENDBRANCH  20  21
ENDBRANCH  17  18
ENDBRANCH  16  17
ENDBRANCH   1  16
TORSDOF 7
ENDMDL
MODEL 3
REMARK VINA RESULT:      -8.4      2.289      2.912
REMARK  Name = 
REMARK  7 active torsions:
REMARK  status: ('A' for Active; 'I' for Inactive)
REMARK    1  A    between atoms: C_5  and  C_6
REMARK    2  A    between atoms: C_11  and  C_12
REMARK    3  A    between atoms: C_12  and  O_14
REMARK    4  A    between atoms: O_14  and  C_15
REMARK    5  A    between atoms: C_15  and  C_16
REMARK    6  A    between atoms: N_18  and  C_19
REMARK    7  A    between atoms: C_22  and  C_23
REMARK                            x       y       z     vdW  Elec       q    Type
REMARK                         _______ _______ _______ _____ _____    ______ ____
ROOT
ATOM      1  C   UNL     1      36.178  -0.351  15.987  0.00  0.00    +0.000 C 
ATOM      2  O   UNL     1      36.730  -0.108  17.126  0.00  0.00    +0.000 OA
ENDROOT
BRANCH   1   8
ATOM      3  C   UNL     1      37.107  -2.227  14.688  0.00  0.00    +0.000 A 
ATOM      4  C   UNL     1      36.948  -3.568  14.245  0.00  0.00    +0.000 A 
ATOM      5  C   UNL     1      35.843  -4.286  14.635  0.00  0.00    +0.000 A 
ATOM      6  C   UNL     1      34.883  -3.733  15.450  0.00  0.00    +0.000 A 
ATOM      7  C   UNL     1      35.032  -2.447  15.879  0.00  0.00    +0.000 A 
ATOM      8  C   UNL     1      36.165  -1.698  15.483  0.00  0.00    +0.000 A 
BRANCH   3  13
ATOM      9  C   UNL     1      41.826   0.508  12.758  0.00  0.00    +0.000 C 
ATOM     10  C   UNL     1      40.611  -0.190  13.293  0.00  0.00    +0.000 A 
ATOM     11  C   UNL     1      39.489  -0.328  12.507  0.00  0.00    +0.000 A 
ATOM     12  C   UNL     1      38.367  -0.968  12.982  0.00  0.00    +0.000 A 
ATOM     13  C   UNL     1      38.306  -1.511  14.285  0.00  0.00    +0.000 A 
ATOM     14  C   UNL     1      39.430  -1.362  15.047  0.00  0.00    +0.000 A 
ATOM     15  C   UNL     1      40.564  -0.712  14.559  0.00  0.00    +0.000 A 
ENDBRANCH   3  13
ENDBRANCH   1   8
BRANCH   1  16
ATOM     16  O   UNL     1      35.634   0.789  15.352  0.00  0.00    +0.000 OA
BRANCH  16  17
ATOM     17  C   UNL     1      36.536   1.636  14.791  0.00  0.00    +0.000 C 
BRANCH  17  18
ATOM     18  C   UNL     1      37.298   2.614  15.457  0.00  0.00    +0.000 C 
ATOM     19  O   UNL     1      38.616   2.334  15.503  0.00  0.00    +0.000 OA
ATOM     20  N   UNL     1      37.026   3.839  16.105  0.00  0.00    +0.000 NA
BRANCH  20  21
ATOM     21  C   UNL     1      38.119   4.595  16.691  0.00  0.00    +0.000 A 
ATOM     22  C   UNL     1      38.971   5.357  15.913  0.00  0.00    +0.000 A 
ATOM     23  C   UNL     1      40.018   6.093  16.506  0.00  0.00    +0.000 A 
ATOM     24  C   UNL     1      40.232   6.077  17.859  0.00  0.00    +0.000 A 
ATOM     25  C   UNL     1      39.378   5.303  18.647  0.00  0.00    +0.000 A 
ATOM     26  C   UNL     1      38.343   4.582  18.056  0.00  0.00    +0.000 A 
BRANCH  24  27
ATOM     27  C   UNL     1      41.309   6.851  18.555  0.00  0.00    +0.000 C 
ATOM     28  C   UNL     1      41.010   8.341  18.491  0.00  0.00    +0.000 C 
ATOM     29  C   UNL     1      41.307   6.391  20.008  0.00  0.00    +0.000 C 
ATOM     30  C   UNL     1      42.609   6.542  17.840  0.00  0.00    +0.000 C 
ENDBRANCH  24  27
ENDBRANCH  20  21
ENDBRANCH  17  18
ENDBRANCH  16  17
ENDBRANCH   1  16
TORSDOF 7
ENDMDL
MODEL 4
REMARK VINA RESULT:      -8.3      1.606      2.314
REMARK  Name = 
REMARK  7 active torsions:
REMARK  status: ('A' for Active; 'I' for Inactive)
REMARK    1  A    between atoms: C_5  and  C_6
REMARK    2  A    between atoms: C_11  and  C_12
REMARK    3  A    between atoms: C_12  and  O_14
REMARK    4  A    between atoms: O_14  and  C_15
REMARK    5  A    between atoms: C_15  and  C_16
REMARK    6  A    between atoms: N_18  and  C_19
REMARK    7  A    between atoms: C_22  and  C_23
REMARK                            x       y       z     vdW  Elec       q    Type
REMARK                         _______ _______ _______ _____ _____    ______ ____
ROOT
ATOM      1  C   UNL     1      36.281  -0.580  16.324  0.00  0.00    +0.000 C 
ATOM      2  O   UNL     1      36.980  -0.507  17.405  0.00  0.00    +0.000 OA
ENDROOT
BRANCH   1   8
ATOM      3  C   UNL     1      36.855  -2.475  14.858  0.00  0.00    +0.000 A 
ATOM      4  C   UNL     1      36.469  -3.736  14.329  0.00  0.00    +0.000 A 
ATOM      5  C   UNL     1      35.276  -4.298  14.715  0.00  0.00    +0.000 A 
ATOM      6  C   UNL     1      34.443  -3.664  15.608  0.00  0.00    +0.000 A 
ATOM      7  C   UNL     1      34.811  -2.454  16.119  0.00  0.00    +0.000 A 
ATOM      8  C   UNL     1      36.036  -1.865  15.728  0.00  0.00    +0.000 A 
BRANCH   3  13
ATOM      9  C   UNL     1      42.055  -0.270  13.598  0.00  0.00    +0.000 C 
ATOM     10  C   UNL     1      40.698  -0.842  13.889  0.00  0.00    +0.000 A 
ATOM     11  C   UNL     1      40.510  -1.659  14.980  0.00  0.00    +0.000 A 
ATOM     12  C   UNL     1      39.271  -2.190  15.261  0.00  0.00    +0.000 A 
ATOM     13  C   UNL     1      38.141  -1.928  14.455  0.00  0.00    +0.000 A 
ATOM     14  C   UNL     1      38.351  -1.115  13.379  0.00  0.00    +0.000 A 
ATOM     15  C   UNL     1      39.609  -0.580  13.099  0.00  0.00    +0.000 A 
ENDBRANCH   3  13
ENDBRANCH   1   8
BRANCH   1  16
ATOM     16  O   UNL     1      35.828   0.670  15.843  0.00  0.00    +0.000 OA
BRANCH  16  17
ATOM     17  C   UNL     1      36.792   1.508  15.383  0.00  0.00    +0.000 C 
BRANCH  17  18
ATOM     18  C   UNL     1      37.218   2.709  15.982  0.00  0.00    +0.000 C 
ATOM     19  O   UNL     1      36.323   3.229  16.848  0.00  0.00    +0.000 OA
ATOM     20  N   UNL     1      38.367   3.526  15.903  0.00  0.00    +0.000 NA
BRANCH  20  21
ATOM     21  C   UNL     1      38.443   4.732  16.709  0.00  0.00    +0.000 A 
ATOM     22  C   UNL     1      38.097   5.968  16.195  0.00  0.00    +0.000 A 
ATOM     23  C   UNL     1      38.166   7.124  17.000  0.00  0.00    +0.000 A 
ATOM     24  C   UNL     1      38.579   7.068  18.305  0.00  0.00    +0.000 A 
ATOM     25  C   UNL     1      38.936   5.823  18.825  0.00  0.00    +0.000 A 
ATOM     26  C   UNL     1      38.861   4.684  18.026  0.00  0.00    +0.000 A 
BRANCH  24  27
ATOM     27  C   UNL     1      38.655   8.252  19.221  0.00  0.00    +0.000 C 
ATOM     28  C   UNL     1      39.600   9.298  18.649  0.00  0.00    +0.000 C 
ATOM     29  C   UNL     1      37.246   8.828  19.305  0.00  0.00    +0.000 C 
ATOM     30  C   UNL     1      39.167   7.749  20.554  0.00  0.00    +0.000 C 
ENDBRANCH  24  27
ENDBRANCH  20  21
ENDBRANCH  17  18
ENDBRANCH  16  17
ENDBRANCH   1  16
TORSDOF 7
ENDMDL
MODEL 5
REMARK VINA RESULT:      -8.2      2.420      4.210
REMARK  Name = 
REMARK  7 active torsions:
REMARK  status: ('A' for Active; 'I' for Inactive)
REMARK    1  A    between atoms: C_5  and  C_6
REMARK    2  A    between atoms: C_11  and  C_12
REMARK    3  A    between atoms: C_12  and  O_14
REMARK    4  A    between atoms: O_14  and  C_15
REMARK    5  A    between atoms: C_15  and  C_16
REMARK    6  A    between atoms: N_18  and  C_19
REMARK    7  A    between atoms: C_22  and  C_23
REMARK                            x       y       z     vdW  Elec       q    Type
REMARK                         _______ _______ _______ _____ _____    ______ ____
ROOT
ATOM      1  C   UNL     1      37.084   1.042  12.963  0.00  0.00    +0.000 C 
ATOM      2  O   UNL     1      36.668   0.652  11.806  0.00  0.00    +0.000 OA
ENDROOT
BRANCH   1   8
ATOM      3  C   UNL     1      38.327  -0.261  14.644  0.00  0.00    +0.000 A 
ATOM      4  C   UNL     1      39.586  -0.751  15.084  0.00  0.00    +0.000 A 
ATOM      5  C   UNL     1      40.716  -0.475  14.352  0.00  0.00    +0.000 A 
ATOM      6  C   UNL     1      40.655   0.268  13.195  0.00  0.00    +0.000 A 
ATOM      7  C   UNL     1      39.448   0.739  12.769  0.00  0.00    +0.000 A 
ATOM      8  C   UNL     1      38.278   0.462  13.515  0.00  0.00    +0.000 A 
BRANCH   3  13
ATOM      9  C   UNL     1      33.507  -1.786  17.459  0.00  0.00    +0.000 C 
ATOM     10  C   UNL     1      34.768  -1.372  16.759  0.00  0.00    +0.000 A 
ATOM     11  C   UNL     1      35.323  -2.182  15.794  0.00  0.00    +0.000 A 
ATOM     12  C   UNL     1      36.479  -1.816  15.141  0.00  0.00    +0.000 A 
ATOM     13  C   UNL     1      37.149  -0.604  15.423  0.00  0.00    +0.000 A 
ATOM     14  C   UNL     1      36.581   0.183  16.383  0.00  0.00    +0.000 A 
ATOM     15  C   UNL     1      35.409  -0.194  17.041  0.00  0.00    +0.000 A 
ENDBRANCH   3  13
ENDBRANCH   1   8
BRANCH   1  16
ATOM     16  O   UNL     1      36.276   2.033  13.565  0.00  0.00    +0.000 OA
BRANCH  16  17
ATOM     17  C   UNL     1      36.796   3.288  13.581  0.00  0.00    +0.000 C 
BRANCH  17  18
ATOM     18  C   UNL     1      37.492   3.897  14.642  0.00  0.00    +0.000 C 
ATOM     19  O   UNL     1      37.022   5.119  14.967  0.00  0.00    +0.000 OA
ATOM     20  N   UNL     1      38.582   3.546  15.468  0.00  0.00    +0.000 NA
BRANCH  20  21
ATOM     21  C   UNL     1      39.026   4.473  16.496  0.00  0.00    +0.000 A 
ATOM     22  C   UNL     1      38.515   4.428  17.780  0.00  0.00    +0.000 A 
ATOM     23  C   UNL     1      38.970   5.330  18.764  0.00  0.00    +0.000 A 
ATOM     24  C   UNL     1      39.922   6.276  18.488  0.00  0.00    +0.000 A 
ATOM     25  C   UNL     1      40.435   6.328  17.191  0.00  0.00    +0.000 A 
ATOM     26  C   UNL     1      39.985   5.432  16.224  0.00  0.00    +0.000 A 
BRANCH  24  27
ATOM     27  C   UNL     1      40.465   7.248  19.491  0.00  0.00    +0.000 C 
ATOM     28  C   UNL     1      41.005   8.483  18.786  0.00  0.00    +0.000 C 
ATOM     29  C   UNL     1      39.300   7.642  20.391  0.00  0.00    +0.000 C 
ATOM     30  C   UNL     1      41.574   6.538  20.239  0.00  0.00    +0.000 C 
ENDBRANCH  24  27
ENDBRANCH  20  21
ENDBRANCH  17  18
ENDBRANCH  16  17
ENDBRANCH   1  16
TORSDOF 7
ENDMDL
MODEL 6
REMARK VINA RESULT:      -8.0      1.880      3.917
REMARK  Name = 
REMARK  7 active torsions:
REMARK  status: ('A' for Active; 'I' for Inactive)
REMARK    1  A    between atoms: C_5  and  C_6
REMARK    2  A    between atoms: C_11  and  C_12
REMARK    3  A    between atoms: C_12  and  O_14
REMARK    4  A    between atoms: O_14  and  C_15
REMARK    5  A    between atoms: C_15  and  C_16
REMARK    6  A    between atoms: N_18  and  C_19
REMARK    7  A    between atoms: C_22  and  C_23
REMARK                            x       y       z     vdW  Elec       q    Type
REMARK                         _______ _______ _______ _____ _____    ______ ____
ROOT
ATOM      1  C   UNL     1      38.413   0.917  14.569  0.00  0.00    +0.000 C 
ATOM      2  O   UNL     1      37.880   1.131  13.415  0.00  0.00    +0.000 OA
ENDROOT
BRANCH   1   8
ATOM      3  C   UNL     1      38.810  -1.346  15.458  0.00  0.00    +0.000 A 
ATOM      4  C   UNL     1      39.714  -2.433  15.598  0.00  0.00    +0.000 A 
ATOM      5  C   UNL     1      40.965  -2.353  15.033  0.00  0.00    +0.000 A 
ATOM      6  C   UNL     1      41.362  -1.239  14.330  0.00  0.00    +0.000 A 
ATOM      7  C   UNL     1      40.496  -0.194  14.193  0.00  0.00    +0.000 A 
ATOM      8  C   UNL     1      39.207  -0.264  14.771  0.00  0.00    +0.000 A 
BRANCH   3  13
ATOM      9  C   UNL     1      33.396  -1.854  17.437  0.00  0.00    +0.000 C 
ATOM     10  C   UNL     1      34.812  -1.723  16.959  0.00  0.00    +0.000 A 
ATOM     11  C   UNL     1      35.184  -2.244  15.740  0.00  0.00    +0.000 A 
ATOM     12  C   UNL     1      36.478  -2.130  15.286  0.00  0.00    +0.000 A 
ATOM     13  C   UNL     1      37.484  -1.480  16.037  0.00  0.00    +0.000 A 
ATOM     14  C   UNL     1      37.093  -0.971  17.242  0.00  0.00    +0.000 A 
ATOM     15  C   UNL     1      35.779  -1.090  17.697  0.00  0.00    +0.000 A 
ENDBRANCH   3  13
ENDBRANCH   1   8
BRANCH   1  16
ATOM     16  O   UNL     1      38.134   1.916  15.530  0.00  0.00    +0.000 OA
BRANCH  16  17
ATOM     17  C   UNL     1      38.715   3.124  15.308  0.00  0.00    +0.000 C 
BRANCH  17  18
ATOM     18  C   UNL     1      38.820   4.188  16.224  0.00  0.00    +0.000 C 
ATOM     19  O   UNL     1      39.521   5.240  15.753  0.00  0.00    +0.000 OA
ATOM     20  N   UNL     1      38.369   4.437  17.539  0.00  0.00    +0.000 NA
BRANCH  20  21
ATOM     21  C   UNL     1      38.686   5.705  18.174  0.00  0.00    +0.000 A 
ATOM     22  C   UNL     1      39.669   5.804  19.141  0.00  0.00    +0.000 A 
ATOM     23  C   UNL     1      39.968   7.048  19.735  0.00  0.00    +0.000 A 
ATOM     24  C   UNL     1      39.300   8.191  19.384  0.00  0.00    +0.000 A 
ATOM     25  C   UNL     1      38.302   8.094  18.413  0.00  0.00    +0.000 A 
ATOM     26  C   UNL     1      38.014   6.863  17.826  0.00  0.00    +0.000 A 
BRANCH  24  27
ATOM     27  C   UNL     1      39.582   9.546  19.958  0.00  0.00    +0.000 C 
ATOM     28  C   UNL     1      39.364  10.619  18.902  0.00  0.00    +0.000 C 
ATOM     29  C   UNL     1      38.597   9.748  21.103  0.00  0.00    +0.000 C 
ATOM     30  C   UNL     1      41.026   9.541  20.416  0.00  0.00    +0.000 C 
ENDBRANCH  24  27
ENDBRANCH  20  21
ENDBRANCH  17  18
ENDBRANCH  16  17
ENDBRANCH   1  16
TORSDOF 7
ENDMDL
MODEL 7
REMARK VINA RESULT:      -8.0      2.786      9.620
REMARK  Name = 
REMARK  7 active torsions:
REMARK  status: ('A' for Active; 'I' for Inactive)
REMARK    1  A    between atoms: C_5  and  C_6
REMARK    2  A    between atoms: C_11  and  C_12
REMARK    3  A    between atoms: C_12  and  O_14
REMARK    4  A    between atoms: O_14  and  C_15
REMARK    5  A    between atoms: C_15  and  C_16
REMARK    6  A    between atoms: N_18  and  C_19
REMARK    7  A    between atoms: C_22  and  C_23
REMARK                            x       y       z     vdW  Elec       q    Type
REMARK                         _______ _______ _______ _____ _____    ______ ____
ROOT
ATOM      1  C   UNL     1      39.424   7.355  17.117  0.00  0.00    +0.000 C 
ATOM      2  O   UNL     1      40.028   8.147  16.299  0.00  0.00    +0.000 OA
ENDROOT
BRANCH   1   8
ATOM      3  C   UNL     1      39.499   7.991  19.496  0.00  0.00    +0.000 A 
ATOM      4  C   UNL     1      38.799   8.517  20.615  0.00  0.00    +0.000 A 
ATOM      5  C   UNL     1      37.488   8.907  20.474  0.00  0.00    +0.000 A 
ATOM      6  C   UNL     1      36.837   8.798  19.267  0.00  0.00    +0.000 A 
ATOM      7  C   UNL     1      37.506   8.295  18.191  0.00  0.00    +0.000 A 
ATOM      8  C   UNL     1      38.855   7.890  18.324  0.00  0.00    +0.000 A 
BRANCH   3  13
ATOM      9  C   UNL     1      44.965   6.384  20.510  0.00  0.00    +0.000 C 
ATOM     10  C   UNL     1      43.559   6.818  20.216  0.00  0.00    +0.000 A 
ATOM     11  C   UNL     1      42.496   6.048  20.630  0.00  0.00    +0.000 A 
ATOM     12  C   UNL     1      41.200   6.433  20.370  0.00  0.00    +0.000 A 
ATOM     13  C   UNL     1      40.894   7.624  19.673  0.00  0.00    +0.000 A 
ATOM     14  C   UNL     1      41.965   8.371  19.272  0.00  0.00    +0.000 A 
ATOM     15  C   UNL     1      43.276   7.976  19.539  0.00  0.00    +0.000 A 
ENDBRANCH   3  13
ENDBRANCH   1   8
BRANCH   1  16
ATOM     16  O   UNL     1      39.400   6.003  16.704  0.00  0.00    +0.000 OA
BRANCH  16  17
ATOM     17  C   UNL     1      38.290   5.615  16.025  0.00  0.00    +0.000 C 
BRANCH  17  18
ATOM     18  C   UNL     1      37.683   4.346  16.060  0.00  0.00    +0.000 C 
ATOM     19  O   UNL     1      38.216   3.517  16.981  0.00  0.00    +0.000 OA
ATOM     20  N   UNL     1      36.636   3.706  15.360  0.00  0.00    +0.000 NA
BRANCH  20  21
ATOM     21  C   UNL     1      36.283   2.338  15.697  0.00  0.00    +0.000 A 
ATOM     22  C   UNL     1      36.949   1.261  15.140  0.00  0.00    +0.000 A 
ATOM     23  C   UNL     1      36.597  -0.058  15.492  0.00  0.00    +0.000 A 
ATOM     24  C   UNL     1      35.591  -0.321  16.384  0.00  0.00    +0.000 A 
ATOM     25  C   UNL     1      34.913   0.763  16.943  0.00  0.00    +0.000 A 
ATOM     26  C   UNL     1      35.267   2.065  16.595  0.00  0.00    +0.000 A 
BRANCH  24  27
ATOM     27  C   UNL     1      35.182  -1.696  16.818  0.00  0.00    +0.000 C 
ATOM     28  C   UNL     1      35.192  -2.645  15.629  0.00  0.00    +0.000 C 
ATOM     29  C   UNL     1      36.210  -2.152  17.846  0.00  0.00    +0.000 C 
ATOM     30  C   UNL     1      33.785  -1.582  17.392  0.00  0.00    +0.000 C 
ENDBRANCH  24  27
ENDBRANCH  20  21
ENDBRANCH  17  18
ENDBRANCH  16  17
ENDBRANCH   1  16
TORSDOF 7
ENDMDL
MODEL 8
REMARK VINA RESULT:      -7.9      1.545      3.215
REMARK  Name = 
REMARK  7 active torsions:
REMARK  status: ('A' for Active; 'I' for Inactive)
REMARK    1  A    between atoms: C_5  and  C_6
REMARK    2  A    between atoms: C_11  and  C_12
REMARK    3  A    between atoms: C_12  and  O_14
REMARK    4  A    between atoms: O_14  and  C_15
REMARK    5  A    between atoms: C_15  and  C_16
REMARK    6  A    between atoms: N_18  and  C_19
REMARK    7  A    between atoms: C_22  and  C_23
REMARK                            x       y       z     vdW  Elec       q    Type
REMARK                         _______ _______ _______ _____ _____    ______ ____
ROOT
ATOM      1  C   UNL     1      38.316   0.007  15.096  0.00  0.00    +0.000 C 
ATOM      2  O   UNL     1      37.765  -0.204  16.242  0.00  0.00    +0.000 OA
ENDROOT
BRANCH   1   8
ATOM      3  C   UNL     1      39.835  -1.920  14.880  0.00  0.00    +0.000 A 
ATOM      4  C   UNL     1      41.146  -2.381  14.580  0.00  0.00    +0.000 A 
ATOM      5  C   UNL     1      42.117  -1.478  14.219  0.00  0.00    +0.000 A 
ATOM      6  C   UNL     1      41.847  -0.132  14.138  0.00  0.00    +0.000 A 
ATOM      7  C   UNL     1      40.590   0.314  14.424  0.00  0.00    +0.000 A 
ATOM      8  C   UNL     1      39.583  -0.605  14.798  0.00  0.00    +0.000 A 
BRANCH   3  13
ATOM      9  C   UNL     1      35.583  -5.667  16.045  0.00  0.00    +0.000 C 
ATOM     10  C   UNL     1      36.708  -4.714  15.766  0.00  0.00    +0.000 A 
ATOM     11  C   UNL     1      36.806  -4.098  14.539  0.00  0.00    +0.000 A 
ATOM     12  C   UNL     1      37.831  -3.220  14.269  0.00  0.00    +0.000 A 
ATOM     13  C   UNL     1      38.824  -2.907  15.223  0.00  0.00    +0.000 A 
ATOM     14  C   UNL     1      38.707  -3.529  16.433  0.00  0.00    +0.000 A 
ATOM     15  C   UNL     1      37.666  -4.418  16.701  0.00  0.00    +0.000 A 
ENDBRANCH   3  13
ENDBRANCH   1   8
BRANCH   1  16
ATOM     16  O   UNL     1      37.571   0.852  14.242  0.00  0.00    +0.000 OA
BRANCH  16  17
ATOM     17  C   UNL     1      36.774   1.760  14.863  0.00  0.00    +0.000 C 
BRANCH  17  18
ATOM     18  C   UNL     1      37.194   2.880  15.604  0.00  0.00    +0.000 C 
ATOM     19  O   UNL     1      36.206   3.461  16.315  0.00  0.00    +0.000 OA
ATOM     20  N   UNL     1      38.414   3.566  15.795  0.00  0.00    +0.000 NA
BRANCH  20  21
ATOM     21  C   UNL     1      38.453   4.722  16.674  0.00  0.00    +0.000 A 
ATOM     22  C   UNL     1      38.866   4.618  17.989  0.00  0.00    +0.000 A 
ATOM     23  C   UNL     1      38.908   5.757  18.820  0.00  0.00    +0.000 A 
ATOM     24  C   UNL     1      38.541   6.995  18.363  0.00  0.00    +0.000 A 
ATOM     25  C   UNL     1      38.117   7.103  17.037  0.00  0.00    +0.000 A 
ATOM     26  C   UNL     1      38.082   5.975  16.220  0.00  0.00    +0.000 A 
BRANCH  24  27
ATOM     27  C   UNL     1      38.583   8.247  19.184  0.00  0.00    +0.000 C 
ATOM     28  C   UNL     1      39.141   7.949  20.568  0.00  0.00    +0.000 C 
ATOM     29  C   UNL     1      39.510   9.214  18.457  0.00  0.00    +0.000 C 
ATOM     30  C   UNL     1      37.161   8.758  19.286  0.00  0.00    +0.000 C 
ENDBRANCH  24  27
ENDBRANCH  20  21
ENDBRANCH  17  18
ENDBRANCH  16  17
ENDBRANCH   1  16
TORSDOF 7
ENDMDL
MODEL 9
REMARK VINA RESULT:      -7.8      2.047      2.866
REMARK  Name = 
REMARK  7 active torsions:
REMARK  status: ('A' for Active; 'I' for Inactive)
REMARK    1  A    between atoms: C_5  and  C_6
REMARK    2  A    between atoms: C_11  and  C_12
REMARK    3  A    between atoms: C_12  and  O_14
REMARK    4  A    between atoms: O_14  and  C_15
REMARK    5  A    between atoms: C_15  and  C_16
REMARK    6  A    between atoms: N_18  and  C_19
REMARK    7  A    between atoms: C_22  and  C_23
REMARK                            x       y       z     vdW  Elec       q    Type
REMARK                         _______ _______ _______ _____ _____    ______ ____
ROOT
ATOM      1  C   UNL     1      37.047   0.996  15.536  0.00  0.00    +0.000 C 
ATOM      2  O   UNL     1      38.334   0.922  15.564  0.00  0.00    +0.000 OA
ENDROOT
BRANCH   1   8
ATOM      3  C   UNL     1      36.514  -1.403  15.712  0.00  0.00    +0.000 A 
ATOM      4  C   UNL     1      35.639  -2.398  16.225  0.00  0.00    +0.000 A 
ATOM      5  C   UNL     1      34.567  -2.026  17.000  0.00  0.00    +0.000 A 
ATOM      6  C   UNL     1      34.322  -0.705  17.293  0.00  0.00    +0.000 A 
ATOM      7  C   UNL     1      35.160   0.254  16.803  0.00  0.00    +0.000 A 
ATOM      8  C   UNL     1      36.266  -0.118  16.004  0.00  0.00    +0.000 A 
BRANCH   3  13
ATOM      9  C   UNL     1      41.278  -2.995  12.838  0.00  0.00    +0.000 C 
ATOM     10  C   UNL     1      40.022  -2.594  13.555  0.00  0.00    +0.000 A 
ATOM     11  C   UNL     1      39.973  -2.613  14.930  0.00  0.00    +0.000 A 
ATOM     12  C   UNL     1      38.829  -2.246  15.603  0.00  0.00    +0.000 A 
ATOM     13  C   UNL     1      37.658  -1.836  14.927  0.00  0.00    +0.000 A 
ATOM     14  C   UNL     1      37.730  -1.826  13.563  0.00  0.00    +0.000 A 
ATOM     15  C   UNL     1      38.892  -2.199  12.887  0.00  0.00    +0.000 A 
ENDBRANCH   3  13
ENDBRANCH   1   8
BRANCH   1  16
ATOM     16  O   UNL     1      36.548   2.216  15.026  0.00  0.00    +0.000 OA
BRANCH  16  17
ATOM     17  C   UNL     1      36.397   3.215  15.934  0.00  0.00    +0.000 C 
BRANCH  17  18
ATOM     18  C   UNL     1      37.423   3.966  16.537  0.00  0.00    +0.000 C 
ATOM     19  O   UNL     1      37.836   3.466  17.720  0.00  0.00    +0.000 OA
ATOM     20  N   UNL     1      38.145   5.136  16.212  0.00  0.00    +0.000 NA
BRANCH  20  21
ATOM     21  C   UNL     1      39.171   5.618  17.120  0.00  0.00    +0.000 A 
ATOM     22  C   UNL     1      38.917   5.802  18.467  0.00  0.00    +0.000 A 
ATOM     23  C   UNL     1      39.933   6.259  19.332  0.00  0.00    +0.000 A 
ATOM     24  C   UNL     1      41.194   6.539  18.876  0.00  0.00    +0.000 A 
ATOM     25  C   UNL     1      41.452   6.361  17.516  0.00  0.00    +0.000 A 
ATOM     26  C   UNL     1      40.446   5.905  16.667  0.00  0.00    +0.000 A 
BRANCH  24  27
ATOM     27  C   UNL     1      42.323   7.006  19.743  0.00  0.00    +0.000 C 
ATOM     28  C   UNL     1      42.054   8.418  20.240  0.00  0.00    +0.000 C 
ATOM     29  C   UNL     1      42.385   6.050  20.929  0.00  0.00    +0.000 C 
ATOM     30  C   UNL     1      43.577   6.973  18.894  0.00  0.00    +0.000 C 
ENDBRANCH  24  27
ENDBRANCH  20  21
ENDBRANCH  17  18
ENDBRANCH  16  17
ENDBRANCH   1  16
TORSDOF 7
ENDMDL
MODEL 10
REMARK VINA RESULT:      -7.8      2.243      3.108
REMARK  Name = 
REMARK  7 active torsions:
REMARK  status: ('A' for Active; 'I' for Inactive)
REMARK    1  A    between atoms: C_5  and  C_6
REMARK    2  A    between atoms: C_11  and  C_12
REMARK    3  A    between atoms: C_12  and  O_14
REMARK    4  A    between atoms: O_14  and  C_15
REMARK    5  A    between atoms: C_15  and  C_16
REMARK    6  A    between atoms: N_18  and  C_19
REMARK    7  A    between atoms: C_22  and  C_23
REMARK                            x       y       z     vdW  Elec       q    Type
REMARK                         _______ _______ _______ _____ _____    ______ ____
ROOT
ATOM      1  C   UNL     1      36.753   1.378  13.265  0.00  0.00    +0.000 C 
ATOM      2  O   UNL     1      36.719   0.360  12.474  0.00  0.00    +0.000 OA
ENDROOT
BRANCH   1   8
ATOM      3  C   UNL     1      36.994   0.374  15.502  0.00  0.00    +0.000 A 
ATOM      4  C   UNL     1      36.507   0.294  16.834  0.00  0.00    +0.000 A 
ATOM      5  C   UNL     1      35.435   1.066  17.213  0.00  0.00    +0.000 A 
ATOM      6  C   UNL     1      34.821   1.920  16.326  0.00  0.00    +0.000 A 
ATOM      7  C   UNL     1      35.286   2.000  15.047  0.00  0.00    +0.000 A 
ATOM      8  C   UNL     1      36.389   1.210  14.645  0.00  0.00    +0.000 A 
BRANCH   3  13
ATOM      9  C   UNL     1      41.728  -2.548  13.906  0.00  0.00    +0.000 C 
ATOM     10  C   UNL     1      40.487  -1.821  14.337  0.00  0.00    +0.000 A 
ATOM     11  C   UNL     1      40.528  -0.467  14.581  0.00  0.00    +0.000 A 
ATOM     12  C   UNL     1      39.398   0.215  14.974  0.00  0.00    +0.000 A 
ATOM     13  C   UNL     1      38.153  -0.429  15.147  0.00  0.00    +0.000 A 
ATOM     14  C   UNL     1      38.137  -1.772  14.899  0.00  0.00    +0.000 A 
ATOM     15  C   UNL     1      39.285  -2.458  14.501  0.00  0.00    +0.000 A 
ENDBRANCH   3  13
ENDBRANCH   1   8
BRANCH   1  16
ATOM     16  O   UNL     1      37.163   2.580  12.644  0.00  0.00    +0.000 OA
BRANCH  16  17
ATOM     17  C   UNL     1      38.354   3.081  13.061  0.00  0.00    +0.000 C 
BRANCH  17  18
ATOM     18  C   UNL     1      38.584   3.856  14.214  0.00  0.00    +0.000 C 
ATOM     19  O   UNL     1      39.877   3.890  14.595  0.00  0.00    +0.000 OA
ATOM     20  N   UNL     1      37.785   4.620  15.093  0.00  0.00    +0.000 NA
BRANCH  20  21
ATOM     21  C   UNL     1      38.410   5.305  16.212  0.00  0.00    +0.000 A 
ATOM     22  C   UNL     1      39.001   6.545  16.063  0.00  0.00    +0.000 A 
ATOM     23  C   UNL     1      39.590   7.196  17.166  0.00  0.00    +0.000 A 
ATOM     24  C   UNL     1      39.603   6.629  18.413  0.00  0.00    +0.000 A 
ATOM     25  C   UNL     1      39.012   5.374  18.567  0.00  0.00    +0.000 A 
ATOM     26  C   UNL     1      38.428   4.737  17.474  0.00  0.00    +0.000 A 
BRANCH  24  27
ATOM     27  C   UNL     1      40.191   7.275  19.631  0.00  0.00    +0.000 C 
ATOM     28  C   UNL     1      39.084   7.711  20.579  0.00  0.00    +0.000 C 
ATOM     29  C   UNL     1      41.058   6.221  20.308  0.00  0.00    +0.000 C 
ATOM     30  C   UNL     1      40.984   8.475  19.156  0.00  0.00    +0.000 C 
ENDBRANCH  24  27
ENDBRANCH  20  21
ENDBRANCH  17  18
ENDBRANCH  16  17
ENDBRANCH   1  16
TORSDOF 7
ENDMDL
