MODEL 1
REMARK VINA RESULT:      -8.8      0.000      0.000
REMARK  Name = 
REMARK  5 active torsions:
REMARK  status: ('A' for Active; 'I' for Inactive)
REMARK    1  A    between atoms: C_19  and  C_20
REMARK    2  A    between atoms: C_24  and  O_25
REMARK    3  A    between atoms: O_25  and  C_26
REMARK    4  A    between atoms: C_26  and  C_27
REMARK    5  A    between atoms: C_27  and  N_28
REMARK                            x       y       z     vdW  Elec       q    Type
REMARK                         _______ _______ _______ _____ _____    ______ ____
ROOT
ATOM      1  O   UNL     1      42.408  -2.122   9.619  0.00  0.00    +0.000 OA
ATOM      2  C   UNL     1      41.732  -2.125  10.830  0.00  0.00    +0.000 A 
ATOM      3  C   UNL     1      41.933  -3.146  11.772  0.00  0.00    +0.000 A 
ATOM      4  C   UNL     1      41.291  -3.176  12.962  0.00  0.00    +0.000 A 
ATOM      5  C   UNL     1      40.388  -2.182  13.312  0.00  0.00    +0.000 A 
ATOM      6  C   UNL     1      40.180  -1.175  12.397  0.00  0.00    +0.000 A 
ATOM      7  C   UNL     1      40.833  -1.149  11.193  0.00  0.00    +0.000 A 
ATOM      8  C   UNL     1      39.169  -0.260  13.025  0.00  0.00    +0.000 C 
ATOM      9  C   UNL     1      38.887  -0.834  14.338  0.00  0.00    +0.000 A 
ATOM     10  C   UNL     1      39.593  -1.982  14.518  0.00  0.00    +0.000 A 
ATOM     11  C   UNL     1      39.465  -2.683  15.715  0.00  0.00    +0.000 A 
ATOM     12  C   UNL     1      38.632  -2.234  16.727  0.00  0.00    +0.000 A 
ATOM     13  C   UNL     1      38.510  -2.942  17.918  0.00  0.00    +0.000 A 
ATOM     14  C   UNL     1      37.675  -2.479  18.917  0.00  0.00    +0.000 A 
ATOM     15  C   UNL     1      36.975  -1.295  18.675  0.00  0.00    +0.000 A 
ATOM     16  O   UNL     1      36.120  -0.786  19.647  0.00  0.00    +0.000 OA
ATOM     17  C   UNL     1      37.115  -0.625  17.494  0.00  0.00    +0.000 A 
ATOM     18  C   UNL     1      37.941  -1.082  16.508  0.00  0.00    +0.000 A 
ATOM     19  C   UNL     1      38.044  -0.359  15.328  0.00  0.00    +0.000 A 
ENDROOT
BRANCH  19  20
ATOM     20  C   UNL     1      37.276   0.870  15.083  0.00  0.00    +0.000 A 
ATOM     21  C   UNL     1      35.975   0.752  14.647  0.00  0.00    +0.000 A 
ATOM     22  C   UNL     1      35.229   1.882  14.410  0.00  0.00    +0.000 A 
ATOM     23  C   UNL     1      35.775   3.103  14.604  0.00  0.00    +0.000 A 
ATOM     24  C   UNL     1      37.097   3.292  15.048  0.00  0.00    +0.000 A 
ATOM     25  C   UNL     1      37.809   2.103  15.273  0.00  0.00    +0.000 A 
BRANCH  24  26
ATOM     26  O   UNL     1      37.568   4.471  15.219  0.00  0.00    +0.000 OA
BRANCH  26  27
ATOM     27  C   UNL     1      38.126   5.643  15.352  0.00  0.00    +0.000 C 
BRANCH  27  28
ATOM     28  C   UNL     1      39.192   5.856  16.389  0.00  0.00    +0.000 C 
BRANCH  28  29
ATOM     29  N   UNL     1      38.549   6.154  17.653  0.00  0.00    +0.000 NA
ATOM     30  C   UNL     1      38.569   7.581  17.926  0.00  0.00    +0.000 C 
ATOM     31  C   UNL     1      38.262   7.935  19.337  0.00  0.00    +0.000 C 
ATOM     32  C   UNL     1      39.328   7.400  20.269  0.00  0.00    +0.000 C 
ATOM     33  C   UNL     1      40.052   6.254  19.589  0.00  0.00    +0.000 C 
ATOM     34  C   UNL     1      39.140   5.395  18.743  0.00  0.00    +0.000 C 
ENDBRANCH  28  29
ENDBRANCH  27  28
ENDBRANCH  26  27
ENDBRANCH  24  26
ENDBRANCH  19  20
TORSDOF 5
ENDMDL
MODEL 2
REMARK VINA RESULT:      -8.7      2.924      8.343
REMARK  Name = 
REMARK  5 active torsions:
REMARK  status: ('A' for Active; 'I' for Inactive)
REMARK    1  A    between atoms: C_19  and  C_20
REMARK    2  A    between atoms: C_24  and  O_25
REMARK    3  A    between atoms: O_25  and  C_26
REMARK    4  A    between atoms: C_26  and  C_27
REMARK    5  A    between atoms: C_27  and  N_28
REMARK                            x       y       z     vdW  Elec       q    Type
REMARK                         _______ _______ _______ _____ _____    ______ ____
ROOT
ATOM      1  O   UNL     1      40.550   7.597  20.408  0.00  0.00    +0.000 OA
ATOM      2  C   UNL     1      40.274   6.921  19.228  0.00  0.00    +0.000 A 
ATOM      3  C   UNL     1      40.950   7.232  18.038  0.00  0.00    +0.000 A 
ATOM      4  C   UNL     1      40.706   6.590  16.873  0.00  0.00    +0.000 A 
ATOM      5  C   UNL     1      39.759   5.578  16.798  0.00  0.00    +0.000 A 
ATOM      6  C   UNL     1      39.087   5.264  17.959  0.00  0.00    +0.000 A 
ATOM      7  C   UNL     1      39.338   5.917  19.136  0.00  0.00    +0.000 A 
ATOM      8  C   UNL     1      38.138   4.161  17.590  0.00  0.00    +0.000 C 
ATOM      9  C   UNL     1      38.379   3.896  16.174  0.00  0.00    +0.000 A 
ATOM     10  C   UNL     1      39.330   4.739  15.687  0.00  0.00    +0.000 A 
ATOM     11  C   UNL     1      39.707   4.643  14.349  0.00  0.00    +0.000 A 
ATOM     12  C   UNL     1      39.133   3.708  13.504  0.00  0.00    +0.000 A 
ATOM     13  C   UNL     1      39.515   3.621  12.169  0.00  0.00    +0.000 A 
ATOM     14  C   UNL     1      38.932   2.682  11.341  0.00  0.00    +0.000 A 
ATOM     15  C   UNL     1      37.963   1.845  11.897  0.00  0.00    +0.000 A 
ATOM     16  O   UNL     1      37.343   0.883  11.105  0.00  0.00    +0.000 OA
ATOM     17  C   UNL     1      37.607   1.956  13.210  0.00  0.00    +0.000 A 
ATOM     18  C   UNL     1      38.184   2.884  14.029  0.00  0.00    +0.000 A 
ATOM     19  C   UNL     1      37.784   2.952  15.356  0.00  0.00    +0.000 A 
ENDROOT
BRANCH  19  20
ATOM     20  C   UNL     1      36.739   2.081  15.913  0.00  0.00    +0.000 A 
ATOM     21  C   UNL     1      35.463   2.584  16.033  0.00  0.00    +0.000 A 
ATOM     22  C   UNL     1      34.464   1.794  16.549  0.00  0.00    +0.000 A 
ATOM     23  C   UNL     1      34.736   0.528  16.937  0.00  0.00    +0.000 A 
ATOM     24  C   UNL     1      36.018  -0.045  16.841  0.00  0.00    +0.000 A 
ATOM     25  C   UNL     1      36.997   0.808  16.306  0.00  0.00    +0.000 A 
BRANCH  24  26
ATOM     26  O   UNL     1      36.226  -1.251  17.220  0.00  0.00    +0.000 OA
BRANCH  26  27
ATOM     27  C   UNL     1      36.501  -2.486  17.539  0.00  0.00    +0.000 C 
BRANCH  27  28
ATOM     28  C   UNL     1      36.372  -3.576  16.513  0.00  0.00    +0.000 C 
BRANCH  28  29
ATOM     29  N   UNL     1      37.589  -3.615  15.728  0.00  0.00    +0.000 NA
ATOM     30  C   UNL     1      38.624  -2.791  16.329  0.00  0.00    +0.000 C 
ATOM     31  C   UNL     1      39.763  -2.488  15.424  0.00  0.00    +0.000 C 
ATOM     32  C   UNL     1      39.307  -1.649  14.249  0.00  0.00    +0.000 C 
ATOM     33  C   UNL     1      37.812  -1.828  14.062  0.00  0.00    +0.000 C 
ATOM     34  C   UNL     1      37.344  -3.237  14.346  0.00  0.00    +0.000 C 
ENDBRANCH  28  29
ENDBRANCH  27  28
ENDBRANCH  26  27
ENDBRANCH  24  26
ENDBRANCH  19  20
TORSDOF 5
ENDMDL
MODEL 3
REMARK VINA RESULT:      -8.4      1.841      2.143
REMARK  Name = 
REMARK  5 active torsions:
REMARK  status: ('A' for Active; 'I' for Inactive)
REMARK    1  A    between atoms: C_19  and  C_20
REMARK    2  A    between atoms: C_24  and  O_25
REMARK    3  A    between atoms: O_25  and  C_26
REMARK    4  A    between atoms: C_26  and  C_27
REMARK    5  A    between atoms: C_27  and  N_28
REMARK                            x       y       z     vdW  Elec       q    Type
REMARK                         _______ _______ _______ _____ _____    ______ ____
ROOT
ATOM      1  O   UNL     1      44.663  -0.195  12.814  0.00  0.00    +0.000 OA
ATOM      2  C   UNL     1      43.419  -0.513  13.340  0.00  0.00    +0.000 A 
ATOM      3  C   UNL     1      43.118  -1.821  13.750  0.00  0.00    +0.000 A 
ATOM      4  C   UNL     1      41.916  -2.162  14.269  0.00  0.00    +0.000 A 
ATOM      5  C   UNL     1      40.909  -1.220  14.422  0.00  0.00    +0.000 A 
ATOM      6  C   UNL     1      41.191   0.068  14.022  0.00  0.00    +0.000 A 
ATOM      7  C   UNL     1      42.410   0.409  13.497  0.00  0.00    +0.000 A 
ATOM      8  C   UNL     1      39.943   0.857  14.291  0.00  0.00    +0.000 C 
ATOM      9  C   UNL     1      39.003  -0.089  14.885  0.00  0.00    +0.000 A 
ATOM     10  C   UNL     1      39.558  -1.330  14.958  0.00  0.00    +0.000 A 
ATOM     11  C   UNL     1      38.818  -2.378  15.502  0.00  0.00    +0.000 A 
ATOM     12  C   UNL     1      37.530  -2.183  15.970  0.00  0.00    +0.000 A 
ATOM     13  C   UNL     1      36.799  -3.237  16.510  0.00  0.00    +0.000 A 
ATOM     14  C   UNL     1      35.515  -3.024  16.973  0.00  0.00    +0.000 A 
ATOM     15  C   UNL     1      35.000  -1.731  16.873  0.00  0.00    +0.000 A 
ATOM     16  O   UNL     1      33.710  -1.464  17.323  0.00  0.00    +0.000 OA
ATOM     17  C   UNL     1      35.741  -0.718  16.336  0.00  0.00    +0.000 A 
ATOM     18  C   UNL     1      37.010  -0.928  15.879  0.00  0.00    +0.000 A 
ATOM     19  C   UNL     1      37.717   0.138  15.343  0.00  0.00    +0.000 A 
ENDROOT
BRANCH  19  20
ATOM     20  C   UNL     1      37.144   1.486  15.220  0.00  0.00    +0.000 A 
ATOM     21  C   UNL     1      36.021   1.650  14.439  0.00  0.00    +0.000 A 
ATOM     22  C   UNL     1      35.460   2.898  14.304  0.00  0.00    +0.000 A 
ATOM     23  C   UNL     1      36.011   3.958  14.937  0.00  0.00    +0.000 A 
ATOM     24  C   UNL     1      37.157   3.857  15.749  0.00  0.00    +0.000 A 
ATOM     25  C   UNL     1      37.685   2.560  15.848  0.00  0.00    +0.000 A 
BRANCH  24  26
ATOM     26  O   UNL     1      37.640   4.891  16.329  0.00  0.00    +0.000 OA
BRANCH  26  27
ATOM     27  C   UNL     1      38.193   5.952  16.850  0.00  0.00    +0.000 C 
BRANCH  27  28
ATOM     28  C   UNL     1      38.757   5.902  18.242  0.00  0.00    +0.000 C 
BRANCH  28  29
ATOM     29  N   UNL     1      39.040   7.258  18.671  0.00  0.00    +0.000 NA
ATOM     30  C   UNL     1      39.231   7.321  20.109  0.00  0.00    +0.000 C 
ATOM     31  C   UNL     1      39.168   8.695  20.672  0.00  0.00    +0.000 C 
ATOM     32  C   UNL     1      37.787   9.287  20.490  0.00  0.00    +0.000 C 
ATOM     33  C   UNL     1      37.080   8.563  19.360  0.00  0.00    +0.000 C 
ATOM     34  C   UNL     1      38.008   8.182  18.229  0.00  0.00    +0.000 C 
ENDBRANCH  28  29
ENDBRANCH  27  28
ENDBRANCH  26  27
ENDBRANCH  24  26
ENDBRANCH  19  20
TORSDOF 5
ENDMDL
MODEL 4
REMARK VINA RESULT:      -8.4      1.822      2.033
REMARK  Name = 
REMARK  5 active torsions:
REMARK  status: ('A' for Active; 'I' for Inactive)
REMARK    1  A    between atoms: C_19  and  C_20
REMARK    2  A    between atoms: C_24  and  O_25
REMARK    3  A    between atoms: O_25  and  C_26
REMARK    4  A    between atoms: C_26  and  C_27
REMARK    5  A    between atoms: C_27  and  N_28
REMARK                            x       y       z     vdW  Elec       q    Type
REMARK                         _______ _______ _______ _____ _____    ______ ____
ROOT
ATOM      1  O   UNL     1      42.300  -0.737   9.330  0.00  0.00    +0.000 OA
ATOM      2  C   UNL     1      41.308  -1.031  10.254  0.00  0.00    +0.000 A 
ATOM      3  C   UNL     1      40.941  -2.357  10.529  0.00  0.00    +0.000 A 
ATOM      4  C   UNL     1      39.980  -2.676  11.425  0.00  0.00    +0.000 A 
ATOM      5  C   UNL     1      39.300  -1.691  12.126  0.00  0.00    +0.000 A 
ATOM      6  C   UNL     1      39.649  -0.384  11.866  0.00  0.00    +0.000 A 
ATOM      7  C   UNL     1      40.623  -0.066  10.957  0.00  0.00    +0.000 A 
ATOM      8  C   UNL     1      38.765   0.453  12.744  0.00  0.00    +0.000 C 
ATOM      9  C   UNL     1      37.956  -0.497  13.502  0.00  0.00    +0.000 A 
ATOM     10  C   UNL     1      38.253  -1.773  13.138  0.00  0.00    +0.000 A 
ATOM     11  C   UNL     1      37.588  -2.832  13.753  0.00  0.00    +0.000 A 
ATOM     12  C   UNL     1      36.630  -2.611  14.728  0.00  0.00    +0.000 A 
ATOM     13  C   UNL     1      35.971  -3.675  15.335  0.00  0.00    +0.000 A 
ATOM     14  C   UNL     1      35.018  -3.436  16.307  0.00  0.00    +0.000 A 
ATOM     15  C   UNL     1      34.755  -2.106  16.639  0.00  0.00    +0.000 A 
ATOM     16  O   UNL     1      33.804  -1.811  17.611  0.00  0.00    +0.000 OA
ATOM     17  C   UNL     1      35.418  -1.083  16.024  0.00  0.00    +0.000 A 
ATOM     18  C   UNL     1      36.360  -1.320  15.064  0.00  0.00    +0.000 A 
ATOM     19  C   UNL     1      37.002  -0.242  14.472  0.00  0.00    +0.000 A 
ENDROOT
BRANCH  19  20
ATOM     20  C   UNL     1      36.689   1.153  14.816  0.00  0.00    +0.000 A 
ATOM     21  C   UNL     1      35.548   1.716  14.289  0.00  0.00    +0.000 A 
ATOM     22  C   UNL     1      35.227   3.018  14.593  0.00  0.00    +0.000 A 
ATOM     23  C   UNL     1      36.030   3.739  15.406  0.00  0.00    +0.000 A 
ATOM     24  C   UNL     1      37.209   3.223  15.977  0.00  0.00    +0.000 A 
ATOM     25  C   UNL     1      37.485   1.890  15.631  0.00  0.00    +0.000 A 
BRANCH  24  26
ATOM     26  O   UNL     1      37.936   3.946  16.743  0.00  0.00    +0.000 OA
BRANCH  26  27
ATOM     27  C   UNL     1      38.622   4.756  17.503  0.00  0.00    +0.000 C 
BRANCH  27  28
ATOM     28  C   UNL     1      39.702   5.615  16.907  0.00  0.00    +0.000 C 
BRANCH  28  29
ATOM     29  N   UNL     1      40.097   6.602  17.892  0.00  0.00    +0.000 NA
ATOM     30  C   UNL     1      40.092   6.037  19.230  0.00  0.00    +0.000 C 
ATOM     31  C   UNL     1      40.132   7.049  20.318  0.00  0.00    +0.000 C 
ATOM     32  C   UNL     1      38.879   7.898  20.308  0.00  0.00    +0.000 C 
ATOM     33  C   UNL     1      38.248   7.837  18.929  0.00  0.00    +0.000 C 
ATOM     34  C   UNL     1      39.267   7.793  17.813  0.00  0.00    +0.000 C 
ENDBRANCH  28  29
ENDBRANCH  27  28
ENDBRANCH  26  27
ENDBRANCH  24  26
ENDBRANCH  19  20
TORSDOF 5
ENDMDL
MODEL 5
REMARK VINA RESULT:      -8.3      2.121      5.115
REMARK  Name = 
REMARK  5 active torsions:
REMARK  status: ('A' for Active; 'I' for Inactive)
REMARK    1  A    between atoms: C_19  and  C_20
REMARK    2  A    between atoms: C_24  and  O_25
REMARK    3  A    between atoms: O_25  and  C_26
REMARK    4  A    between atoms: C_26  and  C_27
REMARK    5  A    between atoms: C_27  and  N_28
REMARK                            x       y       z     vdW  Elec       q    Type
REMARK                         _______ _______ _______ _____ _____    ______ ____
ROOT
ATOM      1  O   UNL     1      33.226  -1.946  17.517  0.00  0.00    +0.000 OA
ATOM      2  C   UNL     1      34.509  -1.747  17.026  0.00  0.00    +0.000 A 
ATOM      3  C   UNL     1      35.452  -2.785  17.016  0.00  0.00    +0.000 A 
ATOM      4  C   UNL     1      36.708  -2.622  16.543  0.00  0.00    +0.000 A 
ATOM      5  C   UNL     1      37.130  -1.401  16.037  0.00  0.00    +0.000 A 
ATOM      6  C   UNL     1      36.215  -0.372  16.042  0.00  0.00    +0.000 A 
ATOM      7  C   UNL     1      34.943  -0.542  16.523  0.00  0.00    +0.000 A 
ATOM      8  C   UNL     1      36.931   0.809  15.456  0.00  0.00    +0.000 C 
ATOM      9  C   UNL     1      38.267   0.326  15.115  0.00  0.00    +0.000 A 
ATOM     10  C   UNL     1      38.404  -0.981  15.466  0.00  0.00    +0.000 A 
ATOM     11  C   UNL     1      39.611  -1.631  15.218  0.00  0.00    +0.000 A 
ATOM     12  C   UNL     1      40.674  -0.974  14.622  0.00  0.00    +0.000 A 
ATOM     13  C   UNL     1      41.876  -1.632  14.380  0.00  0.00    +0.000 A 
ATOM     14  C   UNL     1      42.926  -0.961  13.784  0.00  0.00    +0.000 A 
ATOM     15  C   UNL     1      42.726   0.379  13.447  0.00  0.00    +0.000 A 
ATOM     16  O   UNL     1      43.752   1.101  12.845  0.00  0.00    +0.000 OA
ATOM     17  C   UNL     1      41.535   0.997  13.698  0.00  0.00    +0.000 A 
ATOM     18  C   UNL     1      40.497   0.333  14.287  0.00  0.00    +0.000 A 
ATOM     19  C   UNL     1      39.310   1.013  14.519  0.00  0.00    +0.000 A 
ENDROOT
BRANCH  19  20
ATOM     20  C   UNL     1      39.131   2.432  14.183  0.00  0.00    +0.000 A 
ATOM     21  C   UNL     1      38.940   2.772  12.862  0.00  0.00    +0.000 A 
ATOM     22  C   UNL     1      38.768   4.091  12.515  0.00  0.00    +0.000 A 
ATOM     23  C   UNL     1      38.789   5.048  13.469  0.00  0.00    +0.000 A 
ATOM     24  C   UNL     1      38.980   4.767  14.835  0.00  0.00    +0.000 A 
ATOM     25  C   UNL     1      39.149   3.405  15.129  0.00  0.00    +0.000 A 
BRANCH  24  26
ATOM     26  O   UNL     1      38.989   5.710  15.701  0.00  0.00    +0.000 OA
BRANCH  26  27
ATOM     27  C   UNL     1      39.090   6.655  16.596  0.00  0.00    +0.000 C 
BRANCH  27  28
ATOM     28  C   UNL     1      39.637   6.347  17.961  0.00  0.00    +0.000 C 
BRANCH  28  29
ATOM     29  N   UNL     1      38.679   6.797  18.951  0.00  0.00    +0.000 NA
ATOM     30  C   UNL     1      37.833   7.851  18.418  0.00  0.00    +0.000 C 
ATOM     31  C   UNL     1      37.079   8.607  19.452  0.00  0.00    +0.000 C 
ATOM     32  C   UNL     1      38.025   9.364  20.360  0.00  0.00    +0.000 C 
ATOM     33  C   UNL     1      39.397   8.718  20.297  0.00  0.00    +0.000 C 
ATOM     34  C   UNL     1      39.338   7.212  20.178  0.00  0.00    +0.000 C 
ENDBRANCH  28  29
ENDBRANCH  27  28
ENDBRANCH  26  27
ENDBRANCH  24  26
ENDBRANCH  19  20
TORSDOF 5
ENDMDL
MODEL 6
REMARK VINA RESULT:      -8.3      1.144      1.418
REMARK  Name = 
REMARK  5 active torsions:
REMARK  status: ('A' for Active; 'I' for Inactive)
REMARK    1  A    between atoms: C_19  and  C_20
REMARK    2  A    between atoms: C_24  and  O_25
REMARK    3  A    between atoms: O_25  and  C_26
REMARK    4  A    between atoms: C_26  and  C_27
REMARK    5  A    between atoms: C_27  and  N_28
REMARK                            x       y       z     vdW  Elec       q    Type
REMARK                         _______ _______ _______ _____ _____    ______ ____
ROOT
ATOM      1  O   UNL     1      44.324  -1.731  10.069  0.00  0.00    +0.000 OA
ATOM      2  C   UNL     1      43.428  -1.860  11.121  0.00  0.00    +0.000 A 
ATOM      3  C   UNL     1      43.478  -2.963  11.986  0.00  0.00    +0.000 A 
ATOM      4  C   UNL     1      42.621  -3.116  13.021  0.00  0.00    +0.000 A 
ATOM      5  C   UNL     1      41.636  -2.174  13.280  0.00  0.00    +0.000 A 
ATOM      6  C   UNL     1      41.575  -1.086  12.438  0.00  0.00    +0.000 A 
ATOM      7  C   UNL     1      42.445  -0.935  11.391  0.00  0.00    +0.000 A 
ATOM      8  C   UNL     1      40.434  -0.250  12.940  0.00  0.00    +0.000 C 
ATOM      9  C   UNL     1      39.923  -0.951  14.114  0.00  0.00    +0.000 A 
ATOM     10  C   UNL     1      40.619  -2.102  14.322  0.00  0.00    +0.000 A 
ATOM     11  C   UNL     1      40.285  -2.916  15.402  0.00  0.00    +0.000 A 
ATOM     12  C   UNL     1      39.260  -2.579  16.269  0.00  0.00    +0.000 A 
ATOM     13  C   UNL     1      38.935  -3.399  17.345  0.00  0.00    +0.000 A 
ATOM     14  C   UNL     1      37.909  -3.046  18.200  0.00  0.00    +0.000 A 
ATOM     15  C   UNL     1      37.232  -1.854  17.937  0.00  0.00    +0.000 A 
ATOM     16  O   UNL     1      36.190  -1.453  18.768  0.00  0.00    +0.000 OA
ATOM     17  C   UNL     1      37.573  -1.071  16.873  0.00  0.00    +0.000 A 
ATOM     18  C   UNL     1      38.588  -1.420  16.027  0.00  0.00    +0.000 A 
ATOM     19  C   UNL     1      38.892  -0.586  14.961  0.00  0.00    +0.000 A 
ENDROOT
BRANCH  19  20
ATOM     20  C   UNL     1      38.145   0.650  14.686  0.00  0.00    +0.000 A 
ATOM     21  C   UNL     1      36.924   0.551  14.058  0.00  0.00    +0.000 A 
ATOM     22  C   UNL     1      36.201   1.688  13.788  0.00  0.00    +0.000 A 
ATOM     23  C   UNL     1      36.691   2.898  14.137  0.00  0.00    +0.000 A 
ATOM     24  C   UNL     1      37.931   3.068  14.780  0.00  0.00    +0.000 A 
ATOM     25  C   UNL     1      38.624   1.872  15.030  0.00  0.00    +0.000 A 
BRANCH  24  26
ATOM     26  O   UNL     1      38.351   4.237  15.093  0.00  0.00    +0.000 OA
BRANCH  26  27
ATOM     27  C   UNL     1      38.813   5.435  15.325  0.00  0.00    +0.000 C 
BRANCH  27  28
ATOM     28  C   UNL     1      38.239   6.262  16.440  0.00  0.00    +0.000 C 
BRANCH  28  29
ATOM     29  N   UNL     1      39.331   6.911  17.138  0.00  0.00    +0.000 NA
ATOM     30  C   UNL     1      40.499   6.051  17.195  0.00  0.00    +0.000 C 
ATOM     31  C   UNL     1      41.523   6.479  18.184  0.00  0.00    +0.000 C 
ATOM     32  C   UNL     1      40.977   6.397  19.593  0.00  0.00    +0.000 C 
ATOM     33  C   UNL     1      39.461   6.434  19.541  0.00  0.00    +0.000 C 
ATOM     34  C   UNL     1      38.928   7.351  18.464  0.00  0.00    +0.000 C 
ENDBRANCH  28  29
ENDBRANCH  27  28
ENDBRANCH  26  27
ENDBRANCH  24  26
ENDBRANCH  19  20
TORSDOF 5
ENDMDL
MODEL 7
REMARK VINA RESULT:      -8.0      2.013      2.630
REMARK  Name = 
REMARK  5 active torsions:
REMARK  status: ('A' for Active; 'I' for Inactive)
REMARK    1  A    between atoms: C_19  and  C_20
REMARK    2  A    between atoms: C_24  and  O_25
REMARK    3  A    between atoms: O_25  and  C_26
REMARK    4  A    between atoms: C_26  and  C_27
REMARK    5  A    between atoms: C_27  and  N_28
REMARK                            x       y       z     vdW  Elec       q    Type
REMARK                         _______ _______ _______ _____ _____    ______ ____
ROOT
ATOM      1  O   UNL     1      44.992  -0.932  12.471  0.00  0.00    +0.000 OA
ATOM      2  C   UNL     1      43.719  -0.836  13.016  0.00  0.00    +0.000 A 
ATOM      3  C   UNL     1      43.116  -1.933  13.649  0.00  0.00    +0.000 A 
ATOM      4  C   UNL     1      41.879  -1.871  14.191  0.00  0.00    +0.000 A 
ATOM      5  C   UNL     1      41.135  -0.701  14.144  0.00  0.00    +0.000 A 
ATOM      6  C   UNL     1      41.714   0.384  13.523  0.00  0.00    +0.000 A 
ATOM      7  C   UNL     1      42.968   0.316  12.976  0.00  0.00    +0.000 A 
ATOM      8  C   UNL     1      40.702   1.489  13.613  0.00  0.00    +0.000 C 
ATOM      9  C   UNL     1      39.572   0.924  14.346  0.00  0.00    +0.000 A 
ATOM     10  C   UNL     1      39.809  -0.379  14.657  0.00  0.00    +0.000 A 
ATOM     11  C   UNL     1      38.848  -1.098  15.364  0.00  0.00    +0.000 A 
ATOM     12  C   UNL     1      37.655  -0.513  15.756  0.00  0.00    +0.000 A 
ATOM     13  C   UNL     1      36.701  -1.240  16.461  0.00  0.00    +0.000 A 
ATOM     14  C   UNL     1      35.517  -0.641  16.845  0.00  0.00    +0.000 A 
ATOM     15  C   UNL     1      35.330   0.698  16.497  0.00  0.00    +0.000 A 
ATOM     16  O   UNL     1      34.155   1.349  16.859  0.00  0.00    +0.000 OA
ATOM     17  C   UNL     1      36.285   1.384  15.804  0.00  0.00    +0.000 A 
ATOM     18  C   UNL     1      37.455   0.792  15.425  0.00  0.00    +0.000 A 
ATOM     19  C   UNL     1      38.390   1.538  14.721  0.00  0.00    +0.000 A 
ENDROOT
BRANCH  19  20
ATOM     20  C   UNL     1      38.160   2.939  14.340  0.00  0.00    +0.000 A 
ATOM     21  C   UNL     1      37.315   3.198  13.283  0.00  0.00    +0.000 A 
ATOM     22  C   UNL     1      37.079   4.498  12.903  0.00  0.00    +0.000 A 
ATOM     23  C   UNL     1      37.674   5.514  13.565  0.00  0.00    +0.000 A 
ATOM     24  C   UNL     1      38.547   5.316  14.652  0.00  0.00    +0.000 A 
ATOM     25  C   UNL     1      38.750   3.970  14.995  0.00  0.00    +0.000 A 
BRANCH  24  26
ATOM     26  O   UNL     1      39.085   6.313  15.249  0.00  0.00    +0.000 OA
BRANCH  26  27
ATOM     27  C   UNL     1      39.716   7.286  15.848  0.00  0.00    +0.000 C 
BRANCH  27  28
ATOM     28  C   UNL     1      38.949   8.314  16.630  0.00  0.00    +0.000 C 
BRANCH  28  29
ATOM     29  N   UNL     1      39.416   8.290  18.002  0.00  0.00    +0.000 NA
ATOM     30  C   UNL     1      40.820   7.923  18.069  0.00  0.00    +0.000 C 
ATOM     31  C   UNL     1      41.282   7.528  19.425  0.00  0.00    +0.000 C 
ATOM     32  C   UNL     1      40.582   6.267  19.886  0.00  0.00    +0.000 C 
ATOM     33  C   UNL     1      39.289   6.104  19.108  0.00  0.00    +0.000 C 
ATOM     34  C   UNL     1      38.597   7.419  18.828  0.00  0.00    +0.000 C 
ENDBRANCH  28  29
ENDBRANCH  27  28
ENDBRANCH  26  27
ENDBRANCH  24  26
ENDBRANCH  19  20
TORSDOF 5
ENDMDL
MODEL 8
REMARK VINA RESULT:      -7.7      3.562      9.229
REMARK  Name = 
REMARK  5 active torsions:
REMARK  status: ('A' for Active; 'I' for Inactive)
REMARK    1  A    between atoms: C_19  and  C_20
REMARK    2  A    between atoms: C_24  and  O_25
REMARK    3  A    between atoms: O_25  and  C_26
REMARK    4  A    between atoms: C_26  and  C_27
REMARK    5  A    between atoms: C_27  and  N_28
REMARK                            x       y       z     vdW  Elec       q    Type
REMARK                         _______ _______ _______ _____ _____    ______ ____
ROOT
ATOM      1  O   UNL     1      42.473   7.197  21.272  0.00  0.00    +0.000 OA
ATOM      2  C   UNL     1      41.534   7.284  20.254  0.00  0.00    +0.000 A 
ATOM      3  C   UNL     1      41.014   8.522  19.849  0.00  0.00    +0.000 A 
ATOM      4  C   UNL     1      40.100   8.639  18.859  0.00  0.00    +0.000 A 
ATOM      5  C   UNL     1      39.626   7.521  18.187  0.00  0.00    +0.000 A 
ATOM      6  C   UNL     1      40.127   6.299  18.575  0.00  0.00    +0.000 A 
ATOM      7  C   UNL     1      41.053   6.185  19.579  0.00  0.00    +0.000 A 
ATOM      8  C   UNL     1      39.447   5.286  17.700  0.00  0.00    +0.000 C 
ATOM      9  C   UNL     1      38.584   6.058  16.810  0.00  0.00    +0.000 A 
ATOM     10  C   UNL     1      38.670   7.385  17.095  0.00  0.00    +0.000 A 
ATOM     11  C   UNL     1      37.921   8.293  16.350  0.00  0.00    +0.000 A 
ATOM     12  C   UNL     1      37.091   7.873  15.324  0.00  0.00    +0.000 A 
ATOM     13  C   UNL     1      36.347   8.788  14.586  0.00  0.00    +0.000 A 
ATOM     14  C   UNL     1      35.525   8.351  13.566  0.00  0.00    +0.000 A 
ATOM     15  C   UNL     1      35.478   6.978  13.320  0.00  0.00    +0.000 A 
ATOM     16  O   UNL     1      34.664   6.484  12.304  0.00  0.00    +0.000 OA
ATOM     17  C   UNL     1      36.219   6.104  14.063  0.00  0.00    +0.000 A 
ATOM     18  C   UNL     1      37.032   6.537  15.070  0.00  0.00    +0.000 A 
ATOM     19  C   UNL     1      37.762   5.604  15.793  0.00  0.00    +0.000 A 
ENDROOT
BRANCH  19  20
ATOM     20  C   UNL     1      37.675   4.159  15.536  0.00  0.00    +0.000 A 
ATOM     21  C   UNL     1      38.408   3.635  14.495  0.00  0.00    +0.000 A 
ATOM     22  C   UNL     1      38.348   2.287  14.229  0.00  0.00    +0.000 A 
ATOM     23  C   UNL     1      37.572   1.483  14.989  0.00  0.00    +0.000 A 
ATOM     24  C   UNL     1      36.800   1.956  16.067  0.00  0.00    +0.000 A 
ATOM     25  C   UNL     1      36.901   3.339  16.290  0.00  0.00    +0.000 A 
BRANCH  24  26
ATOM     26  O   UNL     1      36.082   1.153  16.759  0.00  0.00    +0.000 OA
BRANCH  26  27
ATOM     27  C   UNL     1      35.380   0.380  17.541  0.00  0.00    +0.000 C 
BRANCH  27  28
ATOM     28  C   UNL     1      35.974  -0.141  18.819  0.00  0.00    +0.000 C 
BRANCH  28  29
ATOM     29  N   UNL     1      36.402  -1.508  18.602  0.00  0.00    +0.000 NA
ATOM     30  C   UNL     1      37.607  -1.805  19.356  0.00  0.00    +0.000 C 
ATOM     31  C   UNL     1      38.307  -3.042  18.924  0.00  0.00    +0.000 C 
ATOM     32  C   UNL     1      38.824  -2.901  17.508  0.00  0.00    +0.000 C 
ATOM     33  C   UNL     1      38.035  -1.816  16.798  0.00  0.00    +0.000 C 
ATOM     34  C   UNL     1      36.575  -1.794  17.187  0.00  0.00    +0.000 C 
ENDBRANCH  28  29
ENDBRANCH  27  28
ENDBRANCH  26  27
ENDBRANCH  24  26
ENDBRANCH  19  20
TORSDOF 5
ENDMDL
MODEL 9
REMARK VINA RESULT:      -7.7      3.847      7.377
REMARK  Name = 
REMARK  5 active torsions:
REMARK  status: ('A' for Active; 'I' for Inactive)
REMARK    1  A    between atoms: C_19  and  C_20
REMARK    2  A    between atoms: C_24  and  O_25
REMARK    3  A    between atoms: O_25  and  C_26
REMARK    4  A    between atoms: C_26  and  C_27
REMARK    5  A    between atoms: C_27  and  N_28
REMARK                            x       y       z     vdW  Elec       q    Type
REMARK                         _______ _______ _______ _____ _____    ______ ____
ROOT
ATOM      1  O   UNL     1      35.896   7.008  12.293  0.00  0.00    +0.000 OA
ATOM      2  C   UNL     1      35.866   5.786  12.950  0.00  0.00    +0.000 A 
ATOM      3  C   UNL     1      34.882   5.501  13.908  0.00  0.00    +0.000 A 
ATOM      4  C   UNL     1      34.825   4.319  14.563  0.00  0.00    +0.000 A 
ATOM      5  C   UNL     1      35.753   3.317  14.314  0.00  0.00    +0.000 A 
ATOM      6  C   UNL     1      36.725   3.585  13.376  0.00  0.00    +0.000 A 
ATOM      7  C   UNL     1      36.779   4.783  12.715  0.00  0.00    +0.000 A 
ATOM      8  C   UNL     1      37.579   2.352  13.316  0.00  0.00    +0.000 C 
ATOM      9  C   UNL     1      36.974   1.412  14.257  0.00  0.00    +0.000 A 
ATOM     10  C   UNL     1      35.896   1.976  14.866  0.00  0.00    +0.000 A 
ATOM     11  C   UNL     1      35.176   1.235  15.800  0.00  0.00    +0.000 A 
ATOM     12  C   UNL     1      35.533  -0.064  16.121  0.00  0.00    +0.000 A 
ATOM     13  C   UNL     1      34.807  -0.794  17.056  0.00  0.00    +0.000 A 
ATOM     14  C   UNL     1      35.178  -2.089  17.364  0.00  0.00    +0.000 A 
ATOM     15  C   UNL     1      36.293  -2.613  16.706  0.00  0.00    +0.000 A 
ATOM     16  O   UNL     1      36.709  -3.913  16.981  0.00  0.00    +0.000 OA
ATOM     17  C   UNL     1      36.986  -1.871  15.795  0.00  0.00    +0.000 A 
ATOM     18  C   UNL     1      36.618  -0.591  15.490  0.00  0.00    +0.000 A 
ATOM     19  C   UNL     1      37.360   0.117  14.556  0.00  0.00    +0.000 A 
ENDROOT
BRANCH  19  20
ATOM     20  C   UNL     1      38.548  -0.445  13.897  0.00  0.00    +0.000 A 
ATOM     21  C   UNL     1      38.378  -1.125  12.712  0.00  0.00    +0.000 A 
ATOM     22  C   UNL     1      39.469  -1.662  12.071  0.00  0.00    +0.000 A 
ATOM     23  C   UNL     1      40.702  -1.520  12.605  0.00  0.00    +0.000 A 
ATOM     24  C   UNL     1      40.943  -0.837  13.812  0.00  0.00    +0.000 A 
ATOM     25  C   UNL     1      39.792  -0.311  14.420  0.00  0.00    +0.000 A 
BRANCH  24  26
ATOM     26  O   UNL     1      42.132  -0.729  14.276  0.00  0.00    +0.000 OA
BRANCH  26  27
ATOM     27  C   UNL     1      43.369  -0.583  14.666  0.00  0.00    +0.000 C 
BRANCH  27  28
ATOM     28  C   UNL     1      44.488  -1.191  13.869  0.00  0.00    +0.000 C 
BRANCH  28  29
ATOM     29  N   UNL     1      45.611  -1.419  14.756  0.00  0.00    +0.000 NA
ATOM     30  C   UNL     1      45.306  -2.452  15.731  0.00  0.00    +0.000 C 
ATOM     31  C   UNL     1      46.244  -2.498  16.883  0.00  0.00    +0.000 C 
ATOM     32  C   UNL     1      46.153  -1.228  17.701  0.00  0.00    +0.000 C 
ATOM     33  C   UNL     1      45.575  -0.122  16.838  0.00  0.00    +0.000 C 
ATOM     34  C   UNL     1      46.038  -0.188  15.401  0.00  0.00    +0.000 C 
ENDBRANCH  28  29
ENDBRANCH  27  28
ENDBRANCH  26  27
ENDBRANCH  24  26
ENDBRANCH  19  20
TORSDOF 5
ENDMDL
MODEL 10
REMARK VINA RESULT:      -7.5      2.006      2.857
REMARK  Name = 
REMARK  5 active torsions:
REMARK  status: ('A' for Active; 'I' for Inactive)
REMARK    1  A    between atoms: C_19  and  C_20
REMARK    2  A    between atoms: C_24  and  O_25
REMARK    3  A    between atoms: O_25  and  C_26
REMARK    4  A    between atoms: C_26  and  C_27
REMARK    5  A    between atoms: C_27  and  N_28
REMARK                            x       y       z     vdW  Elec       q    Type
REMARK                         _______ _______ _______ _____ _____    ______ ____
ROOT
ATOM      1  O   UNL     1      43.447  -2.116   9.756  0.00  0.00    +0.000 OA
ATOM      2  C   UNL     1      42.675  -2.170  10.908  0.00  0.00    +0.000 A 
ATOM      3  C   UNL     1      42.850  -3.193  11.852  0.00  0.00    +0.000 A 
ATOM      4  C   UNL     1      42.114  -3.272  12.984  0.00  0.00    +0.000 A 
ATOM      5  C   UNL     1      41.136  -2.330  13.270  0.00  0.00    +0.000 A 
ATOM      6  C   UNL     1      40.954  -1.321  12.351  0.00  0.00    +0.000 A 
ATOM      7  C   UNL     1      41.701  -1.245  11.205  0.00  0.00    +0.000 A 
ATOM      8  C   UNL     1      39.850  -0.466  12.903  0.00  0.00    +0.000 C 
ATOM      9  C   UNL     1      39.490  -1.073  14.182  0.00  0.00    +0.000 A 
ATOM     10  C   UNL     1      40.237  -2.187  14.407  0.00  0.00    +0.000 A 
ATOM     11  C   UNL     1      40.046  -2.911  15.583  0.00  0.00    +0.000 A 
ATOM     12  C   UNL     1      39.111  -2.519  16.526  0.00  0.00    +0.000 A 
ATOM     13  C   UNL     1      38.928  -3.249  17.696  0.00  0.00    +0.000 A 
ATOM     14  C   UNL     1      37.991  -2.843  18.627  0.00  0.00    +0.000 A 
ATOM     15  C   UNL     1      37.255  -1.692  18.341  0.00  0.00    +0.000 A 
ATOM     16  O   UNL     1      36.298  -1.240  19.245  0.00  0.00    +0.000 OA
ATOM     17  C   UNL     1      37.457  -0.998  17.183  0.00  0.00    +0.000 A 
ATOM     18  C   UNL     1      38.383  -1.399  16.263  0.00  0.00    +0.000 A 
ATOM     19  C   UNL     1      38.546  -0.655  15.104  0.00  0.00    +0.000 A 
ENDROOT
BRANCH  19  20
ATOM     20  C   UNL     1      37.739   0.538  14.809  0.00  0.00    +0.000 A 
ATOM     21  C   UNL     1      36.497   0.363  14.242  0.00  0.00    +0.000 A 
ATOM     22  C   UNL     1      35.718   1.459  13.955  0.00  0.00    +0.000 A 
ATOM     23  C   UNL     1      36.173   2.701  14.230  0.00  0.00    +0.000 A 
ATOM     24  C   UNL     1      37.432   2.948  14.809  0.00  0.00    +0.000 A 
ATOM     25  C   UNL     1      38.182   1.792  15.079  0.00  0.00    +0.000 A 
BRANCH  24  26
ATOM     26  O   UNL     1      37.817   4.145  15.052  0.00  0.00    +0.000 OA
BRANCH  26  27
ATOM     27  C   UNL     1      38.251   5.364  15.216  0.00  0.00    +0.000 C 
BRANCH  27  28
ATOM     28  C   UNL     1      38.660   6.186  14.026  0.00  0.00    +0.000 C 
BRANCH  28  29
ATOM     29  N   UNL     1      37.533   7.003  13.623  0.00  0.00    +0.000 NA
ATOM     30  C   UNL     1      36.514   7.035  14.658  0.00  0.00    +0.000 C 
ATOM     31  C   UNL     1      35.195   7.540  14.198  0.00  0.00    +0.000 C 
ATOM     32  C   UNL     1      34.594   6.612  13.164  0.00  0.00    +0.000 C 
ATOM     33  C   UNL     1      35.702   5.789  12.533  0.00  0.00    +0.000 C 
ATOM     34  C   UNL     1      36.986   6.565  12.350  0.00  0.00    +0.000 C 
ENDBRANCH  28  29
ENDBRANCH  27  28
ENDBRANCH  26  27
ENDBRANCH  24  26
ENDBRANCH  19  20
TORSDOF 5
ENDMDL
