MODEL 1
REMARK VINA RESULT:      -7.7      0.000      0.000
REMARK  Name = 
REMARK  10 active torsions:
REMARK  status: ('A' for Active; 'I' for Inactive)
REMARK    1  A    between atoms: C_2  and  C_3
REMARK    2  A    between atoms: C_3  and  C_4
REMARK    3  A    between atoms: C_4  and  C_5
REMARK    4  A    between atoms: C_8  and  N_9
REMARK    5  A    between atoms: C_10  and  C_12
REMARK    6  A    between atoms: C_12  and  O_13
REMARK    7  A    between atoms: O_13  and  C_14
REMARK    8  A    between atoms: C_14  and  C_16
REMARK    9  A    between atoms: C_16  and  C_17
REMARK   10  A    between atoms: C_16  and  C_23
REMARK                            x       y       z     vdW  Elec       q    Type
REMARK                         _______ _______ _______ _____ _____    ______ ____
ROOT
ATOM      1  O   UNL     1      36.331  -1.947  18.028  0.00  0.00    +0.000 OA
ENDROOT
BRANCH   1   2
ATOM      2  C   UNL     1      37.695  -2.175  18.038  0.00  0.00    +0.000 C 
ATOM      3  O   UNL     1      38.400  -1.595  18.872  0.00  0.00    +0.000 OA
BRANCH   2   4
ATOM      4  C   UNL     1      38.292  -3.121  17.037  0.00  0.00    +0.000 C 
BRANCH   4   5
ATOM      5  C   UNL     1      37.144  -3.732  16.304  0.00  0.00    +0.000 A 
ATOM      6  C   UNL     1      36.470  -3.055  15.301  0.00  0.00    +0.000 A 
ATOM      7  C   UNL     1      35.423  -3.603  14.624  0.00  0.00    +0.000 A 
ATOM      8  C   UNL     1      35.005  -4.878  14.940  0.00  0.00    +0.000 A 
ATOM      9  C   UNL     1      35.651  -5.573  15.927  0.00  0.00    +0.000 A 
ATOM     10  C   UNL     1      36.710  -5.012  16.606  0.00  0.00    +0.000 A 
ENDBRANCH   4   5
BRANCH   4  11
ATOM     11  C   UNL     1      39.132  -2.384  16.089  0.00  0.00    +0.000 A 
ATOM     12  C   UNL     1      38.846  -1.083  15.767  0.00  0.00    +0.000 A 
ATOM     13  C   UNL     1      39.655  -0.382  14.856  0.00  0.00    +0.000 A 
ATOM     14  C   UNL     1      40.726  -1.007  14.298  0.00  0.00    +0.000 A 
ATOM     15  C   UNL     1      41.033  -2.313  14.607  0.00  0.00    +0.000 A 
ATOM     16  C   UNL     1      40.218  -2.984  15.510  0.00  0.00    +0.000 A 
ENDBRANCH   4  11
ENDBRANCH   2   4
ENDBRANCH   1   2
BRANCH   1  17
ATOM     17  C   UNL     1      35.745  -0.820  18.593  0.00  0.00    +0.000 C 
BRANCH  17  19
ATOM     18  N   UNL     1      35.187   0.403  16.429  0.00  0.00    +0.000 NA
ATOM     19  C   UNL     1      35.876   0.325  17.669  0.00  0.00    +0.000 C 
ATOM     20  O   UNL     1      36.626   1.282  17.979  0.00  0.00    +0.000 OA
BRANCH  18  24
ATOM     21  C   UNL     1      35.629   3.871  14.065  0.00  0.00    +0.000 A 
ATOM     22  C   UNL     1      36.496   2.790  13.861  0.00  0.00    +0.000 A 
ATOM     23  C   UNL     1      36.343   1.664  14.638  0.00  0.00    +0.000 A 
ATOM     24  C   UNL     1      35.377   1.543  15.609  0.00  0.00    +0.000 A 
ATOM     25  C   UNL     1      34.537   2.617  15.794  0.00  0.00    +0.000 A 
ATOM     26  C   UNL     1      34.652   3.762  15.042  0.00  0.00    +0.000 A 
BRANCH  21  27
ATOM     27  C   UNL     1      35.843   5.066  13.237  0.00  0.00    +0.000 C 
BRANCH  27  28
ATOM     28  C   UNL     1      35.521   6.372  13.850  0.00  0.00    +0.000 C 
BRANCH  28  30
ATOM     29  C   UNL     1      33.630   7.750  14.626  0.00  0.00    +0.000 C 
ATOM     30  C   UNL     1      34.132   6.819  13.564  0.00  0.00    +0.000 C 
ENDBRANCH  28  30
ENDBRANCH  27  28
ENDBRANCH  21  27
ENDBRANCH  18  24
ENDBRANCH  17  19
ENDBRANCH   1  17
TORSDOF 10
ENDMDL
MODEL 2
REMARK VINA RESULT:      -7.5      4.310      5.796
REMARK  Name = 
REMARK  10 active torsions:
REMARK  status: ('A' for Active; 'I' for Inactive)
REMARK    1  A    between atoms: C_2  and  C_3
REMARK    2  A    between atoms: C_3  and  C_4
REMARK    3  A    between atoms: C_4  and  C_5
REMARK    4  A    between atoms: C_8  and  N_9
REMARK    5  A    between atoms: C_10  and  C_12
REMARK    6  A    between atoms: C_12  and  O_13
REMARK    7  A    between atoms: O_13  and  C_14
REMARK    8  A    between atoms: C_14  and  C_16
REMARK    9  A    between atoms: C_16  and  C_17
REMARK   10  A    between atoms: C_16  and  C_23
REMARK                            x       y       z     vdW  Elec       q    Type
REMARK                         _______ _______ _______ _____ _____    ______ ____
ROOT
ATOM      1  O   UNL     1      38.423   1.042  13.115  0.00  0.00    +0.000 OA
ENDROOT
BRANCH   1   2
ATOM      2  C   UNL     1      37.339   0.257  12.770  0.00  0.00    +0.000 C 
ATOM      3  O   UNL     1      36.545   0.661  11.913  0.00  0.00    +0.000 OA
BRANCH   2   4
ATOM      4  C   UNL     1      37.148  -1.072  13.442  0.00  0.00    +0.000 C 
BRANCH   4   5
ATOM      5  C   UNL     1      38.516  -1.591  13.738  0.00  0.00    +0.000 A 
ATOM      6  C   UNL     1      39.256  -2.288  12.796  0.00  0.00    +0.000 A 
ATOM      7  C   UNL     1      40.505  -2.766  13.054  0.00  0.00    +0.000 A 
ATOM      8  C   UNL     1      41.067  -2.557  14.295  0.00  0.00    +0.000 A 
ATOM      9  C   UNL     1      40.361  -1.871  15.247  0.00  0.00    +0.000 A 
ATOM     10  C   UNL     1      39.098  -1.391  14.978  0.00  0.00    +0.000 A 
ENDBRANCH   4   5
BRANCH   4  11
ATOM     11  C   UNL     1      36.417  -0.897  14.700  0.00  0.00    +0.000 A 
ATOM     12  C   UNL     1      36.226   0.352  15.229  0.00  0.00    +0.000 A 
ATOM     13  C   UNL     1      35.524   0.514  16.437  0.00  0.00    +0.000 A 
ATOM     14  C   UNL     1      35.036  -0.584  17.075  0.00  0.00    +0.000 A 
ATOM     15  C   UNL     1      35.216  -1.849  16.562  0.00  0.00    +0.000 A 
ATOM     16  C   UNL     1      35.912  -1.981  15.368  0.00  0.00    +0.000 A 
ENDBRANCH   4  11
ENDBRANCH   2   4
ENDBRANCH   1   2
BRANCH   1  17
ATOM     17  C   UNL     1      38.406   2.431  13.049  0.00  0.00    +0.000 C 
BRANCH  17  19
ATOM     18  N   UNL     1      38.526   4.341  14.730  0.00  0.00    +0.000 NA
ATOM     19  C   UNL     1      38.798   2.998  14.355  0.00  0.00    +0.000 C 
ATOM     20  O   UNL     1      39.401   2.273  15.183  0.00  0.00    +0.000 OA
BRANCH  18  24
ATOM     21  C   UNL     1      39.888   5.768  18.461  0.00  0.00    +0.000 A 
ATOM     22  C   UNL     1      38.748   4.955  18.415  0.00  0.00    +0.000 A 
ATOM     23  C   UNL     1      38.313   4.496  17.193  0.00  0.00    +0.000 A 
ATOM     24  C   UNL     1      38.942   4.794  16.007  0.00  0.00    +0.000 A 
ATOM     25  C   UNL     1      40.060   5.594  16.075  0.00  0.00    +0.000 A 
ATOM     26  C   UNL     1      40.532   6.077  17.273  0.00  0.00    +0.000 A 
BRANCH  21  27
ATOM     27  C   UNL     1      40.305   6.263  19.780  0.00  0.00    +0.000 C 
BRANCH  27  28
ATOM     28  C   UNL     1      40.117   7.705  20.045  0.00  0.00    +0.000 C 
BRANCH  28  30
ATOM     29  C   UNL     1      38.019   8.976  19.803  0.00  0.00    +0.000 C 
ATOM     30  C   UNL     1      38.795   8.016  20.651  0.00  0.00    +0.000 C 
ENDBRANCH  28  30
ENDBRANCH  27  28
ENDBRANCH  21  27
ENDBRANCH  18  24
ENDBRANCH  17  19
ENDBRANCH   1  17
TORSDOF 10
ENDMDL
MODEL 3
REMARK VINA RESULT:      -7.4      4.349      5.642
REMARK  Name = 
REMARK  10 active torsions:
REMARK  status: ('A' for Active; 'I' for Inactive)
REMARK    1  A    between atoms: C_2  and  C_3
REMARK    2  A    between atoms: C_3  and  C_4
REMARK    3  A    between atoms: C_4  and  C_5
REMARK    4  A    between atoms: C_8  and  N_9
REMARK    5  A    between atoms: C_10  and  C_12
REMARK    6  A    between atoms: C_12  and  O_13
REMARK    7  A    between atoms: O_13  and  C_14
REMARK    8  A    between atoms: C_14  and  C_16
REMARK    9  A    between atoms: C_16  and  C_17
REMARK   10  A    between atoms: C_16  and  C_23
REMARK                            x       y       z     vdW  Elec       q    Type
REMARK                         _______ _______ _______ _____ _____    ______ ____
ROOT
ATOM      1  O   UNL     1      37.562   1.548  15.557  0.00  0.00    +0.000 OA
ENDROOT
BRANCH   1   2
ATOM      2  C   UNL     1      36.381   1.036  15.052  0.00  0.00    +0.000 C 
ATOM      3  O   UNL     1      35.699   1.726  14.286  0.00  0.00    +0.000 OA
BRANCH   2   4
ATOM      4  C   UNL     1      35.951  -0.348  15.443  0.00  0.00    +0.000 C 
BRANCH   4   5
ATOM      5  C   UNL     1      36.767  -1.288  14.620  0.00  0.00    +0.000 A 
ATOM      6  C   UNL     1      37.806  -0.847  13.816  0.00  0.00    +0.000 A 
ATOM      7  C   UNL     1      38.558  -1.695  13.061  0.00  0.00    +0.000 A 
ATOM      8  C   UNL     1      38.286  -3.047  13.087  0.00  0.00    +0.000 A 
ATOM      9  C   UNL     1      37.266  -3.514  13.872  0.00  0.00    +0.000 A 
ATOM     10  C   UNL     1      36.510  -2.649  14.633  0.00  0.00    +0.000 A 
ENDBRANCH   4   5
BRANCH   4  11
ATOM     11  C   UNL     1      36.235  -0.579  16.862  0.00  0.00    +0.000 A 
ATOM     12  C   UNL     1      35.440  -0.028  17.832  0.00  0.00    +0.000 A 
ATOM     13  C   UNL     1      35.718  -0.253  19.193  0.00  0.00    +0.000 A 
ATOM     14  C   UNL     1      36.784  -1.025  19.535  0.00  0.00    +0.000 A 
ATOM     15  C   UNL     1      37.595  -1.590  18.578  0.00  0.00    +0.000 A 
ATOM     16  C   UNL     1      37.300  -1.352  17.242  0.00  0.00    +0.000 A 
ENDBRANCH   4  11
ENDBRANCH   2   4
ENDBRANCH   1   2
BRANCH   1  17
ATOM     17  C   UNL     1      38.126   2.738  15.111  0.00  0.00    +0.000 C 
BRANCH  17  19
ATOM     18  N   UNL     1      38.971   4.881  16.198  0.00  0.00    +0.000 NA
ATOM     19  C   UNL     1      38.149   3.722  16.213  0.00  0.00    +0.000 C 
ATOM     20  O   UNL     1      37.417   3.539  17.215  0.00  0.00    +0.000 OA
BRANCH  18  24
ATOM     21  C   UNL     1      38.940   7.424  19.567  0.00  0.00    +0.000 A 
ATOM     22  C   UNL     1      38.146   7.747  18.459  0.00  0.00    +0.000 A 
ATOM     23  C   UNL     1      38.164   6.911  17.366  0.00  0.00    +0.000 A 
ATOM     24  C   UNL     1      38.925   5.767  17.304  0.00  0.00    +0.000 A 
ATOM     25  C   UNL     1      39.698   5.469  18.402  0.00  0.00    +0.000 A 
ATOM     26  C   UNL     1      39.712   6.274  19.517  0.00  0.00    +0.000 A 
BRANCH  21  27
ATOM     27  C   UNL     1      38.917   8.356  20.702  0.00  0.00    +0.000 C 
BRANCH  27  28
ATOM     28  C   UNL     1      37.896   9.425  20.672  0.00  0.00    +0.000 C 
BRANCH  28  30
ATOM     29  C   UNL     1      38.194  11.525  19.417  0.00  0.00    +0.000 C 
ATOM     30  C   UNL     1      38.485  10.790  20.690  0.00  0.00    +0.000 C 
ENDBRANCH  28  30
ENDBRANCH  27  28
ENDBRANCH  21  27
ENDBRANCH  18  24
ENDBRANCH  17  19
ENDBRANCH   1  17
TORSDOF 10
ENDMDL
MODEL 4
REMARK VINA RESULT:      -7.4      4.230      5.021
REMARK  Name = 
REMARK  10 active torsions:
REMARK  status: ('A' for Active; 'I' for Inactive)
REMARK    1  A    between atoms: C_2  and  C_3
REMARK    2  A    between atoms: C_3  and  C_4
REMARK    3  A    between atoms: C_4  and  C_5
REMARK    4  A    between atoms: C_8  and  N_9
REMARK    5  A    between atoms: C_10  and  C_12
REMARK    6  A    between atoms: C_12  and  O_13
REMARK    7  A    between atoms: O_13  and  C_14
REMARK    8  A    between atoms: C_14  and  C_16
REMARK    9  A    between atoms: C_16  and  C_17
REMARK   10  A    between atoms: C_16  and  C_23
REMARK                            x       y       z     vdW  Elec       q    Type
REMARK                         _______ _______ _______ _____ _____    ______ ____
ROOT
ATOM      1  O   UNL     1      36.866   1.559  13.765  0.00  0.00    +0.000 OA
ENDROOT
BRANCH   1   2
ATOM      2  C   UNL     1      37.121   0.221  13.999  0.00  0.00    +0.000 C 
ATOM      3  O   UNL     1      37.053  -0.583  13.062  0.00  0.00    +0.000 OA
BRANCH   2   4
ATOM      4  C   UNL     1      37.476  -0.230  15.386  0.00  0.00    +0.000 C 
BRANCH   4   5
ATOM      5  C   UNL     1      36.291  -0.978  15.899  0.00  0.00    +0.000 A 
ATOM      6  C   UNL     1      35.927  -2.214  15.390  0.00  0.00    +0.000 A 
ATOM      7  C   UNL     1      34.849  -2.907  15.850  0.00  0.00    +0.000 A 
ATOM      8  C   UNL     1      34.079  -2.369  16.860  0.00  0.00    +0.000 A 
ATOM      9  C   UNL     1      34.413  -1.149  17.384  0.00  0.00    +0.000 A 
ATOM     10  C   UNL     1      35.506  -0.455  16.913  0.00  0.00    +0.000 A 
ENDBRANCH   4   5
BRANCH   4  11
ATOM     11  C   UNL     1      38.632  -1.130  15.341  0.00  0.00    +0.000 A 
ATOM     12  C   UNL     1      38.644  -2.288  16.075  0.00  0.00    +0.000 A 
ATOM     13  C   UNL     1      39.756  -3.147  16.028  0.00  0.00    +0.000 A 
ATOM     14  C   UNL     1      40.819  -2.819  15.246  0.00  0.00    +0.000 A 
ATOM     15  C   UNL     1      40.829  -1.662  14.501  0.00  0.00    +0.000 A 
ATOM     16  C   UNL     1      39.718  -0.830  14.564  0.00  0.00    +0.000 A 
ENDBRANCH   4  11
ENDBRANCH   2   4
ENDBRANCH   1   2
BRANCH   1  17
ATOM     17  C   UNL     1      37.842   2.455  13.339  0.00  0.00    +0.000 C 
BRANCH  17  19
ATOM     18  N   UNL     1      38.074   4.351  15.023  0.00  0.00    +0.000 NA
ATOM     19  C   UNL     1      38.480   3.090  14.509  0.00  0.00    +0.000 C 
ATOM     20  O   UNL     1      39.426   2.503  15.087  0.00  0.00    +0.000 OA
BRANCH  18  24
ATOM     21  C   UNL     1      39.973   5.855  18.480  0.00  0.00    +0.000 A 
ATOM     22  C   UNL     1      40.503   6.162  17.220  0.00  0.00    +0.000 A 
ATOM     23  C   UNL     1      39.876   5.666  16.100  0.00  0.00    +0.000 A 
ATOM     24  C   UNL     1      38.749   4.880  16.152  0.00  0.00    +0.000 A 
ATOM     25  C   UNL     1      38.245   4.590  17.399  0.00  0.00    +0.000 A 
ATOM     26  C   UNL     1      38.837   5.062  18.546  0.00  0.00    +0.000 A 
BRANCH  21  27
ATOM     27  C   UNL     1      40.688   6.377  19.653  0.00  0.00    +0.000 C 
BRANCH  27  28
ATOM     28  C   UNL     1      40.355   7.751  20.083  0.00  0.00    +0.000 C 
BRANCH  28  30
ATOM     29  C   UNL     1      38.423   9.218  20.518  0.00  0.00    +0.000 C 
ATOM     30  C   UNL     1      39.010   7.853  20.709  0.00  0.00    +0.000 C 
ENDBRANCH  28  30
ENDBRANCH  27  28
ENDBRANCH  21  27
ENDBRANCH  18  24
ENDBRANCH  17  19
ENDBRANCH   1  17
TORSDOF 10
ENDMDL
MODEL 5
REMARK VINA RESULT:      -7.3      5.269      7.241
REMARK  Name = 
REMARK  10 active torsions:
REMARK  status: ('A' for Active; 'I' for Inactive)
REMARK    1  A    between atoms: C_2  and  C_3
REMARK    2  A    between atoms: C_3  and  C_4
REMARK    3  A    between atoms: C_4  and  C_5
REMARK    4  A    between atoms: C_8  and  N_9
REMARK    5  A    between atoms: C_10  and  C_12
REMARK    6  A    between atoms: C_12  and  O_13
REMARK    7  A    between atoms: O_13  and  C_14
REMARK    8  A    between atoms: C_14  and  C_16
REMARK    9  A    between atoms: C_16  and  C_17
REMARK   10  A    between atoms: C_16  and  C_23
REMARK                            x       y       z     vdW  Elec       q    Type
REMARK                         _______ _______ _______ _____ _____    ______ ____
ROOT
ATOM      1  O   UNL     1      36.874   3.217  15.085  0.00  0.00    +0.000 OA
ENDROOT
BRANCH   1   2
ATOM      2  C   UNL     1      35.639   2.597  15.090  0.00  0.00    +0.000 C 
ATOM      3  O   UNL     1      34.616   3.282  15.201  0.00  0.00    +0.000 OA
BRANCH   2   4
ATOM      4  C   UNL     1      35.564   1.103  14.958  0.00  0.00    +0.000 C 
BRANCH   4   5
ATOM      5  C   UNL     1      36.791   0.687  14.217  0.00  0.00    +0.000 A 
ATOM      6  C   UNL     1      37.971   0.369  14.869  0.00  0.00    +0.000 A 
ATOM      7  C   UNL     1      39.096  -0.013  14.204  0.00  0.00    +0.000 A 
ATOM      8  C   UNL     1      39.075  -0.089  12.827  0.00  0.00    +0.000 A 
ATOM      9  C   UNL     1      37.924   0.219  12.153  0.00  0.00    +0.000 A 
ATOM     10  C   UNL     1      36.790   0.604  12.834  0.00  0.00    +0.000 A 
ENDBRANCH   4   5
BRANCH   4  11
ATOM     11  C   UNL     1      35.569   0.482  16.285  0.00  0.00    +0.000 A 
ATOM     12  C   UNL     1      35.162  -0.816  16.450  0.00  0.00    +0.000 A 
ATOM     13  C   UNL     1      35.169  -1.408  17.725  0.00  0.00    +0.000 A 
ATOM     14  C   UNL     1      35.585  -0.678  18.795  0.00  0.00    +0.000 A 
ATOM     15  C   UNL     1      35.998   0.628  18.654  0.00  0.00    +0.000 A 
ATOM     16  C   UNL     1      35.982   1.188  17.383  0.00  0.00    +0.000 A 
ENDBRANCH   4  11
ENDBRANCH   2   4
ENDBRANCH   1   2
BRANCH   1  17
ATOM     17  C   UNL     1      37.037   4.586  15.271  0.00  0.00    +0.000 C 
BRANCH  17  19
ATOM     18  N   UNL     1      38.587   6.122  16.585  0.00  0.00    +0.000 NA
ATOM     19  C   UNL     1      38.072   4.829  16.296  0.00  0.00    +0.000 C 
ATOM     20  O   UNL     1      38.530   3.861  16.950  0.00  0.00    +0.000 OA
BRANCH  18  24
ATOM     21  C   UNL     1      41.429   6.526  19.680  0.00  0.00    +0.000 A 
ATOM     22  C   UNL     1      41.871   6.417  18.355  0.00  0.00    +0.000 A 
ATOM     23  C   UNL     1      40.936   6.285  17.354  0.00  0.00    +0.000 A 
ATOM     24  C   UNL     1      39.581   6.256  17.587  0.00  0.00    +0.000 A 
ATOM     25  C   UNL     1      39.167   6.364  18.895  0.00  0.00    +0.000 A 
ATOM     26  C   UNL     1      40.065   6.497  19.928  0.00  0.00    +0.000 A 
BRANCH  21  27
ATOM     27  C   UNL     1      42.457   6.635  20.723  0.00  0.00    +0.000 C 
BRANCH  27  28
ATOM     28  C   UNL     1      43.810   7.044  20.290  0.00  0.00    +0.000 C 
BRANCH  28  30
ATOM     29  C   UNL     1      44.370   5.207  21.835  0.00  0.00    +0.000 C 
ATOM     30  C   UNL     1      44.873   6.112  20.752  0.00  0.00    +0.000 C 
ENDBRANCH  28  30
ENDBRANCH  27  28
ENDBRANCH  21  27
ENDBRANCH  18  24
ENDBRANCH  17  19
ENDBRANCH   1  17
TORSDOF 10
ENDMDL
MODEL 6
REMARK VINA RESULT:      -7.2      4.522      6.000
REMARK  Name = 
REMARK  10 active torsions:
REMARK  status: ('A' for Active; 'I' for Inactive)
REMARK    1  A    between atoms: C_2  and  C_3
REMARK    2  A    between atoms: C_3  and  C_4
REMARK    3  A    between atoms: C_4  and  C_5
REMARK    4  A    between atoms: C_8  and  N_9
REMARK    5  A    between atoms: C_10  and  C_12
REMARK    6  A    between atoms: C_12  and  O_13
REMARK    7  A    between atoms: O_13  and  C_14
REMARK    8  A    between atoms: C_14  and  C_16
REMARK    9  A    between atoms: C_16  and  C_17
REMARK   10  A    between atoms: C_16  and  C_23
REMARK                            x       y       z     vdW  Elec       q    Type
REMARK                         _______ _______ _______ _____ _____    ______ ____
ROOT
ATOM      1  O   UNL     1      39.033   1.739  15.032  0.00  0.00    +0.000 OA
ENDROOT
BRANCH   1   2
ATOM      2  C   UNL     1      38.808   0.713  14.133  0.00  0.00    +0.000 C 
ATOM      3  O   UNL     1      39.699   0.400  13.334  0.00  0.00    +0.000 OA
BRANCH   2   4
ATOM      4  C   UNL     1      37.488  -0.001  14.145  0.00  0.00    +0.000 C 
BRANCH   4   5
ATOM      5  C   UNL     1      37.715  -1.288  14.866  0.00  0.00    +0.000 A 
ATOM      6  C   UNL     1      38.648  -1.405  15.883  0.00  0.00    +0.000 A 
ATOM      7  C   UNL     1      38.863  -2.574  16.549  0.00  0.00    +0.000 A 
ATOM      8  C   UNL     1      38.133  -3.692  16.206  0.00  0.00    +0.000 A 
ATOM      9  C   UNL     1      37.203  -3.609  15.205  0.00  0.00    +0.000 A 
ATOM     10  C   UNL     1      36.991  -2.422  14.537  0.00  0.00    +0.000 A 
ENDBRANCH   4   5
BRANCH   4  11
ATOM     11  C   UNL     1      36.496   0.792  14.877  0.00  0.00    +0.000 A 
ATOM     12  C   UNL     1      36.194   0.501  16.181  0.00  0.00    +0.000 A 
ATOM     13  C   UNL     1      35.241   1.265  16.878  0.00  0.00    +0.000 A 
ATOM     14  C   UNL     1      34.621   2.296  16.243  0.00  0.00    +0.000 A 
ATOM     15  C   UNL     1      34.909   2.607  14.934  0.00  0.00    +0.000 A 
ATOM     16  C   UNL     1      35.854   1.837  14.268  0.00  0.00    +0.000 A 
ENDBRANCH   4  11
ENDBRANCH   2   4
ENDBRANCH   1   2
BRANCH   1  17
ATOM     17  C   UNL     1      39.248   3.057  14.642  0.00  0.00    +0.000 C 
BRANCH  17  19
ATOM     18  N   UNL     1      39.646   5.176  15.998  0.00  0.00    +0.000 NA
ATOM     19  C   UNL     1      38.939   3.965  15.764  0.00  0.00    +0.000 C 
ATOM     20  O   UNL     1      38.014   3.669  16.558  0.00  0.00    +0.000 OA
BRANCH  18  24
ATOM     21  C   UNL     1      38.650   7.494  19.381  0.00  0.00    +0.000 A 
ATOM     22  C   UNL     1      38.019   7.762  18.159  0.00  0.00    +0.000 A 
ATOM     23  C   UNL     1      38.352   7.000  17.063  0.00  0.00    +0.000 A 
ATOM     24  C   UNL     1      39.276   5.982  17.103  0.00  0.00    +0.000 A 
ATOM     25  C   UNL     1      39.884   5.737  18.313  0.00  0.00    +0.000 A 
ATOM     26  C   UNL     1      39.584   6.472  19.435  0.00  0.00    +0.000 A 
BRANCH  21  27
ATOM     27  C   UNL     1      38.291   8.348  20.522  0.00  0.00    +0.000 C 
BRANCH  27  28
ATOM     28  C   UNL     1      39.194   9.479  20.823  0.00  0.00    +0.000 C 
BRANCH  28  30
ATOM     29  C   UNL     1      38.542  11.830  21.169  0.00  0.00    +0.000 C 
ATOM     30  C   UNL     1      38.777  10.745  20.164  0.00  0.00    +0.000 C 
ENDBRANCH  28  30
ENDBRANCH  27  28
ENDBRANCH  21  27
ENDBRANCH  18  24
ENDBRANCH  17  19
ENDBRANCH   1  17
TORSDOF 10
ENDMDL
MODEL 7
REMARK VINA RESULT:      -7.0      4.322      4.928
REMARK  Name = 
REMARK  10 active torsions:
REMARK  status: ('A' for Active; 'I' for Inactive)
REMARK    1  A    between atoms: C_2  and  C_3
REMARK    2  A    between atoms: C_3  and  C_4
REMARK    3  A    between atoms: C_4  and  C_5
REMARK    4  A    between atoms: C_8  and  N_9
REMARK    5  A    between atoms: C_10  and  C_12
REMARK    6  A    between atoms: C_12  and  O_13
REMARK    7  A    between atoms: O_13  and  C_14
REMARK    8  A    between atoms: C_14  and  C_16
REMARK    9  A    between atoms: C_16  and  C_17
REMARK   10  A    between atoms: C_16  and  C_23
REMARK                            x       y       z     vdW  Elec       q    Type
REMARK                         _______ _______ _______ _____ _____    ______ ____
ROOT
ATOM      1  O   UNL     1      37.680   0.171  14.262  0.00  0.00    +0.000 OA
ENDROOT
BRANCH   1   2
ATOM      2  C   UNL     1      37.250  -0.638  15.297  0.00  0.00    +0.000 C 
ATOM      3  O   UNL     1      36.213  -0.346  15.905  0.00  0.00    +0.000 OA
BRANCH   2   4
ATOM      4  C   UNL     1      38.049  -1.855  15.663  0.00  0.00    +0.000 C 
BRANCH   4   5
ATOM      5  C   UNL     1      37.108  -3.011  15.585  0.00  0.00    +0.000 A 
ATOM      6  C   UNL     1      37.293  -4.159  16.338  0.00  0.00    +0.000 A 
ATOM      7  C   UNL     1      36.442  -5.220  16.278  0.00  0.00    +0.000 A 
ATOM      8  C   UNL     1      35.350  -5.165  15.437  0.00  0.00    +0.000 A 
ATOM      9  C   UNL     1      35.140  -4.043  14.680  0.00  0.00    +0.000 A 
ATOM     10  C   UNL     1      36.006  -2.974  14.748  0.00  0.00    +0.000 A 
ENDBRANCH   4   5
BRANCH   4  11
ATOM     11  C   UNL     1      39.134  -2.051  14.697  0.00  0.00    +0.000 A 
ATOM     12  C   UNL     1      38.887  -2.622  13.476  0.00  0.00    +0.000 A 
ATOM     13  C   UNL     1      39.932  -2.808  12.554  0.00  0.00    +0.000 A 
ATOM     14  C   UNL     1      41.191  -2.415  12.886  0.00  0.00    +0.000 A 
ATOM     15  C   UNL     1      41.462  -1.840  14.107  0.00  0.00    +0.000 A 
ATOM     16  C   UNL     1      40.413  -1.667  15.000  0.00  0.00    +0.000 A 
ENDBRANCH   4  11
ENDBRANCH   2   4
ENDBRANCH   1   2
BRANCH   1  17
ATOM     17  C   UNL     1      37.254   1.485  14.097  0.00  0.00    +0.000 C 
BRANCH  17  19
ATOM     18  N   UNL     1      37.600   3.595  15.481  0.00  0.00    +0.000 NA
ATOM     19  C   UNL     1      38.089   2.386  14.917  0.00  0.00    +0.000 C 
ATOM     20  O   UNL     1      39.288   2.085  15.134  0.00  0.00    +0.000 OA
BRANCH  18  24
ATOM     21  C   UNL     1      40.138   5.929  17.916  0.00  0.00    +0.000 A 
ATOM     22  C   UNL     1      40.334   5.926  16.529  0.00  0.00    +0.000 A 
ATOM     23  C   UNL     1      39.501   5.161  15.745  0.00  0.00    +0.000 A 
ATOM     24  C   UNL     1      38.479   4.395  16.254  0.00  0.00    +0.000 A 
ATOM     25  C   UNL     1      38.304   4.411  17.619  0.00  0.00    +0.000 A 
ATOM     26  C   UNL     1      39.112   5.159  18.442  0.00  0.00    +0.000 A 
BRANCH  21  27
ATOM     27  C   UNL     1      41.066   6.733  18.722  0.00  0.00    +0.000 C 
BRANCH  27  28
ATOM     28  C   UNL     1      41.088   6.474  20.177  0.00  0.00    +0.000 C 
BRANCH  28  30
ATOM     29  C   UNL     1      43.152   7.452  21.103  0.00  0.00    +0.000 C 
ATOM     30  C   UNL     1      42.453   6.191  20.695  0.00  0.00    +0.000 C 
ENDBRANCH  28  30
ENDBRANCH  27  28
ENDBRANCH  21  27
ENDBRANCH  18  24
ENDBRANCH  17  19
ENDBRANCH   1  17
TORSDOF 10
ENDMDL
MODEL 8
REMARK VINA RESULT:      -6.9      4.635      5.819
REMARK  Name = 
REMARK  10 active torsions:
REMARK  status: ('A' for Active; 'I' for Inactive)
REMARK    1  A    between atoms: C_2  and  C_3
REMARK    2  A    between atoms: C_3  and  C_4
REMARK    3  A    between atoms: C_4  and  C_5
REMARK    4  A    between atoms: C_8  and  N_9
REMARK    5  A    between atoms: C_10  and  C_12
REMARK    6  A    between atoms: C_12  and  O_13
REMARK    7  A    between atoms: O_13  and  C_14
REMARK    8  A    between atoms: C_14  and  C_16
REMARK    9  A    between atoms: C_16  and  C_17
REMARK   10  A    between atoms: C_16  and  C_23
REMARK                            x       y       z     vdW  Elec       q    Type
REMARK                         _______ _______ _______ _____ _____    ______ ____
ROOT
ATOM      1  O   UNL     1      37.399   2.416  13.420  0.00  0.00    +0.000 OA
ENDROOT
BRANCH   1   2
ATOM      2  C   UNL     1      37.124   1.086  13.680  0.00  0.00    +0.000 C 
ATOM      3  O   UNL     1      36.386   0.457  12.913  0.00  0.00    +0.000 OA
BRANCH   2   4
ATOM      4  C   UNL     1      37.728   0.432  14.888  0.00  0.00    +0.000 C 
BRANCH   4   5
ATOM      5  C   UNL     1      36.606  -0.248  15.600  0.00  0.00    +0.000 A 
ATOM      6  C   UNL     1      36.305  -1.583  15.389  0.00  0.00    +0.000 A 
ATOM      7  C   UNL     1      35.284  -2.215  16.033  0.00  0.00    +0.000 A 
ATOM      8  C   UNL     1      34.512  -1.510  16.933  0.00  0.00    +0.000 A 
ATOM      9  C   UNL     1      34.786  -0.188  17.164  0.00  0.00    +0.000 A 
ATOM     10  C   UNL     1      35.821   0.443  16.508  0.00  0.00    +0.000 A 
ENDBRANCH   4   5
BRANCH   4  11
ATOM     11  C   UNL     1      38.715  -0.571  14.476  0.00  0.00    +0.000 A 
ATOM     12  C   UNL     1      39.459  -1.243  15.410  0.00  0.00    +0.000 A 
ATOM     13  C   UNL     1      40.404  -2.204  15.008  0.00  0.00    +0.000 A 
ATOM     14  C   UNL     1      40.572  -2.459  13.683  0.00  0.00    +0.000 A 
ATOM     15  C   UNL     1      39.836  -1.796  12.728  0.00  0.00    +0.000 A 
ATOM     16  C   UNL     1      38.909  -0.852  13.150  0.00  0.00    +0.000 A 
ENDBRANCH   4  11
ENDBRANCH   2   4
ENDBRANCH   1   2
BRANCH   1  17
ATOM     17  C   UNL     1      36.575   3.456  13.836  0.00  0.00    +0.000 C 
BRANCH  17  19
ATOM     18  N   UNL     1      38.381   3.772  15.604  0.00  0.00    +0.000 NA
ATOM     19  C   UNL     1      37.265   4.255  14.869  0.00  0.00    +0.000 C 
ATOM     20  O   UNL     1      36.858   5.415  15.123  0.00  0.00    +0.000 OA
BRANCH  18  24
ATOM     21  C   UNL     1      40.253   6.336  18.386  0.00  0.00    +0.000 A 
ATOM     22  C   UNL     1      39.216   5.499  18.818  0.00  0.00    +0.000 A 
ATOM     23  C   UNL     1      38.613   4.667  17.902  0.00  0.00    +0.000 A 
ATOM     24  C   UNL     1      38.977   4.614  16.577  0.00  0.00    +0.000 A 
ATOM     25  C   UNL     1      39.997   5.444  16.174  0.00  0.00    +0.000 A 
ATOM     26  C   UNL     1      40.629   6.292  17.052  0.00  0.00    +0.000 A 
BRANCH  21  27
ATOM     27  C   UNL     1      40.852   7.231  19.386  0.00  0.00    +0.000 C 
BRANCH  27  28
ATOM     28  C   UNL     1      42.264   6.983  19.746  0.00  0.00    +0.000 C 
BRANCH  28  30
ATOM     29  C   UNL     1      43.855   5.933  21.309  0.00  0.00    +0.000 C 
ATOM     30  C   UNL     1      42.412   6.151  20.970  0.00  0.00    +0.000 C 
ENDBRANCH  28  30
ENDBRANCH  27  28
ENDBRANCH  21  27
ENDBRANCH  18  24
ENDBRANCH  17  19
ENDBRANCH   1  17
TORSDOF 10
ENDMDL
MODEL 9
REMARK VINA RESULT:      -6.8     23.366     25.767
REMARK  Name = 
REMARK  10 active torsions:
REMARK  status: ('A' for Active; 'I' for Inactive)
REMARK    1  A    between atoms: C_2  and  C_3
REMARK    2  A    between atoms: C_3  and  C_4
REMARK    3  A    between atoms: C_4  and  C_5
REMARK    4  A    between atoms: C_8  and  N_9
REMARK    5  A    between atoms: C_10  and  C_12
REMARK    6  A    between atoms: C_12  and  O_13
REMARK    7  A    between atoms: O_13  and  C_14
REMARK    8  A    between atoms: C_14  and  C_16
REMARK    9  A    between atoms: C_16  and  C_17
REMARK   10  A    between atoms: C_16  and  C_23
REMARK                            x       y       z     vdW  Elec       q    Type
REMARK                         _______ _______ _______ _____ _____    ______ ____
ROOT
ATOM      1  O   UNL     1      13.009  -0.047  27.649  0.00  0.00    +0.000 OA
ENDROOT
BRANCH   1   2
ATOM      2  C   UNL     1      12.180   0.896  27.070  0.00  0.00    +0.000 C 
ATOM      3  O   UNL     1      12.183   2.054  27.504  0.00  0.00    +0.000 OA
BRANCH   2   4
ATOM      4  C   UNL     1      11.293   0.496  25.927  0.00  0.00    +0.000 C 
BRANCH   4   5
ATOM      5  C   UNL     1      11.128  -0.984  26.025  0.00  0.00    +0.000 A 
ATOM      6  C   UNL     1      11.658  -1.846  25.078  0.00  0.00    +0.000 A 
ATOM      7  C   UNL     1      11.515  -3.198  25.157  0.00  0.00    +0.000 A 
ATOM      8  C   UNL     1      10.817  -3.745  26.214  0.00  0.00    +0.000 A 
ATOM      9  C   UNL     1      10.281  -2.919  27.166  0.00  0.00    +0.000 A 
ATOM     10  C   UNL     1      10.431  -1.552  27.078  0.00  0.00    +0.000 A 
ENDBRANCH   4   5
BRANCH   4  11
ATOM     11  C   UNL     1       9.982   1.136  26.060  0.00  0.00    +0.000 A 
ATOM     12  C   UNL     1       9.156   1.268  24.975  0.00  0.00    +0.000 A 
ATOM     13  C   UNL     1       7.899   1.884  25.109  0.00  0.00    +0.000 A 
ATOM     14  C   UNL     1       7.511   2.348  26.327  0.00  0.00    +0.000 A 
ATOM     15  C   UNL     1       8.324   2.226  27.431  0.00  0.00    +0.000 A 
ATOM     16  C   UNL     1       9.561   1.614  27.272  0.00  0.00    +0.000 A 
ENDBRANCH   4  11
ENDBRANCH   2   4
ENDBRANCH   1   2
BRANCH   1  17
ATOM     17  C   UNL     1      14.261   0.260  28.169  0.00  0.00    +0.000 C 
BRANCH  17  19
ATOM     18  N   UNL     1      16.680   0.264  27.370  0.00  0.00    +0.000 NA
ATOM     19  C   UNL     1      15.299   0.015  27.147  0.00  0.00    +0.000 C 
ATOM     20  O   UNL     1      14.962  -0.431  26.024  0.00  0.00    +0.000 OA
BRANCH  18  24
ATOM     21  C   UNL     1      19.428  -0.682  24.309  0.00  0.00    +0.000 A 
ATOM     22  C   UNL     1      18.969   0.636  24.432  0.00  0.00    +0.000 A 
ATOM     23  C   UNL     1      18.073   0.933  25.434  0.00  0.00    +0.000 A 
ATOM     24  C   UNL     1      17.601  -0.002  26.326  0.00  0.00    +0.000 A 
ATOM     25  C   UNL     1      18.064  -1.290  26.186  0.00  0.00    +0.000 A 
ATOM     26  C   UNL     1      18.959  -1.634  25.201  0.00  0.00    +0.000 A 
BRANCH  21  27
ATOM     27  C   UNL     1      20.360  -0.967  23.209  0.00  0.00    +0.000 C 
BRANCH  27  28
ATOM     28  C   UNL     1      20.946   0.196  22.509  0.00  0.00    +0.000 C 
BRANCH  28  30
ATOM     29  C   UNL     1      19.532   1.000  20.658  0.00  0.00    +0.000 C 
ATOM     30  C   UNL     1      20.715   0.164  21.041  0.00  0.00    +0.000 C 
ENDBRANCH  28  30
ENDBRANCH  27  28
ENDBRANCH  21  27
ENDBRANCH  18  24
ENDBRANCH  17  19
ENDBRANCH   1  17
TORSDOF 10
ENDMDL
MODEL 10
REMARK VINA RESULT:      -6.8     24.325     27.438
REMARK  Name = 
REMARK  10 active torsions:
REMARK  status: ('A' for Active; 'I' for Inactive)
REMARK    1  A    between atoms: C_2  and  C_3
REMARK    2  A    between atoms: C_3  and  C_4
REMARK    3  A    between atoms: C_4  and  C_5
REMARK    4  A    between atoms: C_8  and  N_9
REMARK    5  A    between atoms: C_10  and  C_12
REMARK    6  A    between atoms: C_12  and  O_13
REMARK    7  A    between atoms: O_13  and  C_14
REMARK    8  A    between atoms: C_14  and  C_16
REMARK    9  A    between atoms: C_16  and  C_17
REMARK   10  A    between atoms: C_16  and  C_23
REMARK                            x       y       z     vdW  Elec       q    Type
REMARK                         _______ _______ _______ _____ _____    ______ ____
ROOT
ATOM      1  O   UNL     1      28.346  16.455  35.202  0.00  0.00    +0.000 OA
ENDROOT
BRANCH   1   2
ATOM      2  C   UNL     1      27.551  17.261  35.996  0.00  0.00    +0.000 C 
ATOM      3  O   UNL     1      28.059  18.219  36.589  0.00  0.00    +0.000 OA
BRANCH   2   4
ATOM      4  C   UNL     1      26.086  16.956  36.122  0.00  0.00    +0.000 C 
BRANCH   4   5
ATOM      5  C   UNL     1      25.694  16.263  34.860  0.00  0.00    +0.000 A 
ATOM      6  C   UNL     1      25.146  16.947  33.787  0.00  0.00    +0.000 A 
ATOM      7  C   UNL     1      24.785  16.326  32.630  0.00  0.00    +0.000 A 
ATOM      8  C   UNL     1      24.964  14.964  32.508  0.00  0.00    +0.000 A 
ATOM      9  C   UNL     1      25.503  14.260  33.551  0.00  0.00    +0.000 A 
ATOM     10  C   UNL     1      25.866  14.896  34.718  0.00  0.00    +0.000 A 
ENDBRANCH   4   5
BRANCH   4  11
ATOM     11  C   UNL     1      25.856  16.057  37.257  0.00  0.00    +0.000 A 
ATOM     12  C   UNL     1      26.911  15.523  37.950  0.00  0.00    +0.000 A 
ATOM     13  C   UNL     1      26.685  14.661  39.037  0.00  0.00    +0.000 A 
ATOM     14  C   UNL     1      25.407  14.362  39.395  0.00  0.00    +0.000 A 
ATOM     15  C   UNL     1      24.332  14.887  38.713  0.00  0.00    +0.000 A 
ATOM     16  C   UNL     1      24.583  15.736  37.643  0.00  0.00    +0.000 A 
ENDBRANCH   4  11
ENDBRANCH   2   4
ENDBRANCH   1   2
BRANCH   1  17
ATOM     17  C   UNL     1      29.639  16.799  34.826  0.00  0.00    +0.000 C 
BRANCH  17  19
ATOM     18  N   UNL     1      31.185  14.776  34.773  0.00  0.00    +0.000 NA
ATOM     19  C   UNL     1      30.604  15.877  35.458  0.00  0.00    +0.000 C 
ATOM     20  O   UNL     1      30.936  16.058  36.654  0.00  0.00    +0.000 OA
BRANCH  18  24
ATOM     21  C   UNL     1      34.037  12.376  36.755  0.00  0.00    +0.000 A 
ATOM     22  C   UNL     1      32.676  12.187  37.028  0.00  0.00    +0.000 A 
ATOM     23  C   UNL     1      31.755  12.975  36.376  0.00  0.00    +0.000 A 
ATOM     24  C   UNL     1      32.102  13.945  35.464  0.00  0.00    +0.000 A 
ATOM     25  C   UNL     1      33.444  14.115  35.211  0.00  0.00    +0.000 A 
ATOM     26  C   UNL     1      34.400  13.351  35.838  0.00  0.00    +0.000 A 
BRANCH  21  27
ATOM     27  C   UNL     1      34.991  11.537  37.492  0.00  0.00    +0.000 C 
BRANCH  27  28
ATOM     28  C   UNL     1      35.998  10.807  36.694  0.00  0.00    +0.000 C 
BRANCH  28  30
ATOM     29  C   UNL     1      36.965   8.969  38.021  0.00  0.00    +0.000 C 
ATOM     30  C   UNL     1      37.164  10.360  37.501  0.00  0.00    +0.000 C 
ENDBRANCH  28  30
ENDBRANCH  27  28
ENDBRANCH  21  27
ENDBRANCH  18  24
ENDBRANCH  17  19
ENDBRANCH   1  17
TORSDOF 10
ENDMDL
