MODEL 1
REMARK VINA RESULT:      -8.5      0.000      0.000
REMARK  Name = 
REMARK  7 active torsions:
REMARK  status: ('A' for Active; 'I' for Inactive)
REMARK    1  A    between atoms: O_2  and  C_3
REMARK    2  A    between atoms: C_6  and  C_7
REMARK    3  A    between atoms: C_7  and  C_8
REMARK    4  A    between atoms: C_8  and  N_9
REMARK    5  A    between atoms: C_10  and  C_12
REMARK    6  A    between atoms: C_14  and  C_15
REMARK    7  A    between atoms: C_30  and  O_31
REMARK                            x       y       z     vdW  Elec       q    Type
REMARK                         _______ _______ _______ _____ _____    ______ ____
ROOT
ATOM      1  C   UNL     1      37.831   4.434  16.004  0.00  0.00    +0.000 A 
ATOM      2  C   UNL     1      38.859   4.703  16.921  0.00  0.00    +0.000 A 
ATOM      3  C   UNL     1      39.337   5.979  17.105  0.00  0.00    +0.000 A 
ATOM      4  N   UNL     1      38.841   7.013  16.412  0.00  0.00    +0.000 NA
ATOM      5  C   UNL     1      37.840   6.788  15.510  0.00  0.00    +0.000 A 
ATOM      6  C   UNL     1      37.334   7.839  14.781  0.00  0.00    +0.000 A 
ATOM      7  C   UNL     1      36.330   7.678  13.840  0.00  0.00    +0.000 A 
ATOM      8  C   UNL     1      35.827   6.414  13.634  0.00  0.00    +0.000 A 
ATOM      9  C   UNL     1      36.340   5.353  14.371  0.00  0.00    +0.000 A 
ATOM     10  C   UNL     1      37.339   5.511  15.308  0.00  0.00    +0.000 A 
ENDROOT
BRANCH   3  11
ATOM     11  C   UNL     1      40.385   6.199  18.117  0.00  0.00    +0.000 A 
ATOM     12  C   UNL     1      40.087   6.186  19.455  0.00  0.00    +0.000 A 
ATOM     13  C   UNL     1      41.035   6.413  20.423  0.00  0.00    +0.000 A 
ATOM     14  C   UNL     1      42.337   6.661  20.012  0.00  0.00    +0.000 A 
ATOM     15  C   UNL     1      42.655   6.678  18.668  0.00  0.00    +0.000 A 
ATOM     16  C   UNL     1      41.690   6.448  17.717  0.00  0.00    +0.000 A 
ATOM     17  C   UNL     1      42.057   6.465  16.265  0.00  0.00    +0.000 C 
ENDBRANCH   3  11
BRANCH   1  19
ATOM     18  N   UNL     1      35.955   2.749  16.244  0.00  0.00    +0.000 NA
ATOM     19  C   UNL     1      37.281   3.103  15.842  0.00  0.00    +0.000 C 
ATOM     20  O   UNL     1      37.967   2.194  15.336  0.00  0.00    +0.000 OA
BRANCH  18  21
ATOM     21  C   UNL     1      35.431   1.388  16.047  0.00  0.00    +0.000 C 
BRANCH  21  22
ATOM     22  C   UNL     1      35.005   0.757  17.353  0.00  0.00    +0.000 C 
BRANCH  22  26
ATOM     23  C   UNL     1      37.973  -2.182  18.449  0.00  0.00    +0.000 A 
ATOM     24  C   UNL     1      37.081  -1.694  19.379  0.00  0.00    +0.000 A 
ATOM     25  C   UNL     1      36.126  -0.736  19.017  0.00  0.00    +0.000 A 
ATOM     26  C   UNL     1      36.048  -0.256  17.723  0.00  0.00    +0.000 A 
ATOM     27  C   UNL     1      36.948  -0.758  16.815  0.00  0.00    +0.000 A 
ATOM     28  C   UNL     1      37.913  -1.715  17.152  0.00  0.00    +0.000 A 
BRANCH  23  30
ATOM     29  C   UNL     1      38.893  -3.900  19.937  0.00  0.00    +0.000 C 
ATOM     30  O   UNL     1      38.934  -3.125  18.750  0.00  0.00    +0.000 OA
ENDBRANCH  23  30
BRANCH  28  31
ATOM     31  O   UNL     1      38.799  -2.193  16.212  0.00  0.00    +0.000 OA
ATOM     32  C   UNL     1      39.350  -1.300  15.274  0.00  0.00    +0.000 C 
ENDBRANCH  28  31
ENDBRANCH  22  26
ENDBRANCH  21  22
ENDBRANCH  18  21
ENDBRANCH   1  19
TORSDOF 7
ENDMDL
MODEL 2
REMARK VINA RESULT:      -8.3      1.909      2.461
REMARK  Name = 
REMARK  7 active torsions:
REMARK  status: ('A' for Active; 'I' for Inactive)
REMARK    1  A    between atoms: O_2  and  C_3
REMARK    2  A    between atoms: C_6  and  C_7
REMARK    3  A    between atoms: C_7  and  C_8
REMARK    4  A    between atoms: C_8  and  N_9
REMARK    5  A    between atoms: C_10  and  C_12
REMARK    6  A    between atoms: C_14  and  C_15
REMARK    7  A    between atoms: C_30  and  O_31
REMARK                            x       y       z     vdW  Elec       q    Type
REMARK                         _______ _______ _______ _____ _____    ______ ____
ROOT
ATOM      1  C   UNL     1      37.689   3.637  16.438  0.00  0.00    +0.000 A 
ATOM      2  C   UNL     1      38.060   4.550  17.438  0.00  0.00    +0.000 A 
ATOM      3  C   UNL     1      39.119   5.411  17.263  0.00  0.00    +0.000 A 
ATOM      4  N   UNL     1      39.836   5.408  16.132  0.00  0.00    +0.000 NA
ATOM      5  C   UNL     1      39.503   4.533  15.137  0.00  0.00    +0.000 A 
ATOM      6  C   UNL     1      40.243   4.510  13.978  0.00  0.00    +0.000 A 
ATOM      7  C   UNL     1      39.969   3.639  12.937  0.00  0.00    +0.000 A 
ATOM      8  C   UNL     1      38.915   2.766  13.078  0.00  0.00    +0.000 A 
ATOM      9  C   UNL     1      38.169   2.790  14.250  0.00  0.00    +0.000 A 
ATOM     10  C   UNL     1      38.440   3.657  15.288  0.00  0.00    +0.000 A 
ENDROOT
BRANCH   3  11
ATOM     11  C   UNL     1      39.426   6.375  18.335  0.00  0.00    +0.000 A 
ATOM     12  C   UNL     1      40.268   6.041  19.363  0.00  0.00    +0.000 A 
ATOM     13  C   UNL     1      40.555   6.906  20.391  0.00  0.00    +0.000 A 
ATOM     14  C   UNL     1      39.960   8.161  20.369  0.00  0.00    +0.000 A 
ATOM     15  C   UNL     1      39.108   8.513  19.341  0.00  0.00    +0.000 A 
ATOM     16  C   UNL     1      38.836   7.631  18.324  0.00  0.00    +0.000 A 
ATOM     17  C   UNL     1      37.913   8.034  17.214  0.00  0.00    +0.000 C 
ENDBRANCH   3  11
BRANCH   1  19
ATOM     18  N   UNL     1      36.587   1.531  17.311  0.00  0.00    +0.000 NA
ATOM     19  C   UNL     1      36.542   2.764  16.588  0.00  0.00    +0.000 C 
ATOM     20  O   UNL     1      35.448   3.066  16.074  0.00  0.00    +0.000 OA
BRANCH  18  21
ATOM     21  C   UNL     1      35.392   0.681  17.451  0.00  0.00    +0.000 C 
BRANCH  21  22
ATOM     22  C   UNL     1      35.549  -0.630  16.718  0.00  0.00    +0.000 C 
BRANCH  22  26
ATOM     23  C   UNL     1      38.438  -2.983  18.901  0.00  0.00    +0.000 A 
ATOM     24  C   UNL     1      37.481  -2.244  19.561  0.00  0.00    +0.000 A 
ATOM     25  C   UNL     1      36.552  -1.478  18.847  0.00  0.00    +0.000 A 
ATOM     26  C   UNL     1      36.566  -1.443  17.465  0.00  0.00    +0.000 A 
ATOM     27  C   UNL     1      37.529  -2.188  16.830  0.00  0.00    +0.000 A 
ATOM     28  C   UNL     1      38.470  -2.961  17.522  0.00  0.00    +0.000 A 
BRANCH  23  30
ATOM     29  C   UNL     1      39.119  -5.090  19.956  0.00  0.00    +0.000 C 
ATOM     30  O   UNL     1      39.378  -3.754  19.555  0.00  0.00    +0.000 OA
ENDBRANCH  23  30
BRANCH  28  31
ATOM     31  O   UNL     1      39.421  -3.694  16.849  0.00  0.00    +0.000 OA
ATOM     32  C   UNL     1      40.106  -3.102  15.771  0.00  0.00    +0.000 C 
ENDBRANCH  28  31
ENDBRANCH  22  26
ENDBRANCH  21  22
ENDBRANCH  18  21
ENDBRANCH   1  19
TORSDOF 7
ENDMDL
MODEL 3
REMARK VINA RESULT:      -8.3      3.183      8.921
REMARK  Name = 
REMARK  7 active torsions:
REMARK  status: ('A' for Active; 'I' for Inactive)
REMARK    1  A    between atoms: O_2  and  C_3
REMARK    2  A    between atoms: C_6  and  C_7
REMARK    3  A    between atoms: C_7  and  C_8
REMARK    4  A    between atoms: C_8  and  N_9
REMARK    5  A    between atoms: C_10  and  C_12
REMARK    6  A    between atoms: C_14  and  C_15
REMARK    7  A    between atoms: C_30  and  O_31
REMARK                            x       y       z     vdW  Elec       q    Type
REMARK                         _______ _______ _______ _____ _____    ______ ____
ROOT
ATOM      1  C   UNL     1      37.362   1.038  15.229  0.00  0.00    +0.000 A 
ATOM      2  C   UNL     1      38.298   0.370  14.425  0.00  0.00    +0.000 A 
ATOM      3  C   UNL     1      38.243  -0.993  14.245  0.00  0.00    +0.000 A 
ATOM      4  N   UNL     1      37.293  -1.732  14.834  0.00  0.00    +0.000 NA
ATOM      5  C   UNL     1      36.366  -1.115  15.624  0.00  0.00    +0.000 A 
ATOM      6  C   UNL     1      35.396  -1.867  16.246  0.00  0.00    +0.000 A 
ATOM      7  C   UNL     1      34.435  -1.307  17.071  0.00  0.00    +0.000 A 
ATOM      8  C   UNL     1      34.461   0.054  17.270  0.00  0.00    +0.000 A 
ATOM      9  C   UNL     1      35.441   0.812  16.641  0.00  0.00    +0.000 A 
ATOM     10  C   UNL     1      36.399   0.257  15.819  0.00  0.00    +0.000 A 
ENDROOT
BRANCH   3  11
ATOM     11  C   UNL     1      39.229  -1.625  13.351  0.00  0.00    +0.000 A 
ATOM     12  C   UNL     1      39.165  -1.448  11.993  0.00  0.00    +0.000 A 
ATOM     13  C   UNL     1      40.053  -2.043  11.130  0.00  0.00    +0.000 A 
ATOM     14  C   UNL     1      41.044  -2.850  11.672  0.00  0.00    +0.000 A 
ATOM     15  C   UNL     1      41.123  -3.040  13.038  0.00  0.00    +0.000 A 
ATOM     16  C   UNL     1      40.224  -2.434  13.882  0.00  0.00    +0.000 A 
ATOM     17  C   UNL     1      40.329  -2.648  15.361  0.00  0.00    +0.000 C 
ENDBRANCH   3  11
BRANCH   1  19
ATOM     18  N   UNL     1      37.903   3.140  16.535  0.00  0.00    +0.000 NA
ATOM     19  C   UNL     1      37.376   2.479  15.381  0.00  0.00    +0.000 C 
ATOM     20  O   UNL     1      36.912   3.213  14.486  0.00  0.00    +0.000 OA
BRANCH  18  21
ATOM     21  C   UNL     1      37.912   4.608  16.641  0.00  0.00    +0.000 C 
BRANCH  21  22
ATOM     22  C   UNL     1      39.233   5.124  17.163  0.00  0.00    +0.000 C 
BRANCH  22  26
ATOM     23  C   UNL     1      38.414   8.221  20.058  0.00  0.00    +0.000 A 
ATOM     24  C   UNL     1      39.398   7.283  20.282  0.00  0.00    +0.000 A 
ATOM     25  C   UNL     1      39.653   6.278  19.342  0.00  0.00    +0.000 A 
ATOM     26  C   UNL     1      38.931   6.198  18.165  0.00  0.00    +0.000 A 
ATOM     27  C   UNL     1      37.956   7.145  17.965  0.00  0.00    +0.000 A 
ATOM     28  C   UNL     1      37.681   8.160  18.891  0.00  0.00    +0.000 A 
BRANCH  23  30
ATOM     29  C   UNL     1      38.867  10.437  21.008  0.00  0.00    +0.000 C 
ATOM     30  O   UNL     1      38.120   9.233  20.950  0.00  0.00    +0.000 OA
ENDBRANCH  23  30
BRANCH  28  31
ATOM     31  O   UNL     1      36.694   9.090  18.654  0.00  0.00    +0.000 OA
ATOM     32  C   UNL     1      36.402   9.455  17.326  0.00  0.00    +0.000 C 
ENDBRANCH  28  31
ENDBRANCH  22  26
ENDBRANCH  21  22
ENDBRANCH  18  21
ENDBRANCH   1  19
TORSDOF 7
ENDMDL
MODEL 4
REMARK VINA RESULT:      -8.2      2.901      8.429
REMARK  Name = 
REMARK  7 active torsions:
REMARK  status: ('A' for Active; 'I' for Inactive)
REMARK    1  A    between atoms: O_2  and  C_3
REMARK    2  A    between atoms: C_6  and  C_7
REMARK    3  A    between atoms: C_7  and  C_8
REMARK    4  A    between atoms: C_8  and  N_9
REMARK    5  A    between atoms: C_10  and  C_12
REMARK    6  A    between atoms: C_14  and  C_15
REMARK    7  A    between atoms: C_30  and  O_31
REMARK                            x       y       z     vdW  Elec       q    Type
REMARK                         _______ _______ _______ _____ _____    ______ ____
ROOT
ATOM      1  C   UNL     1      37.817   1.212  14.842  0.00  0.00    +0.000 A 
ATOM      2  C   UNL     1      38.698   0.414  14.096  0.00  0.00    +0.000 A 
ATOM      3  C   UNL     1      38.553  -0.953  14.043  0.00  0.00    +0.000 A 
ATOM      4  N   UNL     1      37.566  -1.572  14.704  0.00  0.00    +0.000 NA
ATOM      5  C   UNL     1      36.691  -0.827  15.441  0.00  0.00    +0.000 A 
ATOM      6  C   UNL     1      35.683  -1.454  16.137  0.00  0.00    +0.000 A 
ATOM      7  C   UNL     1      34.771  -0.760  16.914  0.00  0.00    +0.000 A 
ATOM      8  C   UNL     1      34.886   0.609  16.987  0.00  0.00    +0.000 A 
ATOM      9  C   UNL     1      35.905   1.241  16.283  0.00  0.00    +0.000 A 
ATOM     10  C   UNL     1      36.814   0.552  15.509  0.00  0.00    +0.000 A 
ENDROOT
BRANCH   3  11
ATOM     11  C   UNL     1      39.485  -1.727  13.204  0.00  0.00    +0.000 A 
ATOM     12  C   UNL     1      39.381  -1.712  11.836  0.00  0.00    +0.000 A 
ATOM     13  C   UNL     1      40.217  -2.442  11.027  0.00  0.00    +0.000 A 
ATOM     14  C   UNL     1      41.196  -3.217  11.633  0.00  0.00    +0.000 A 
ATOM     15  C   UNL     1      41.315  -3.244  13.009  0.00  0.00    +0.000 A 
ATOM     16  C   UNL     1      40.467  -2.505  13.799  0.00  0.00    +0.000 A 
ATOM     17  C   UNL     1      40.616  -2.544  15.290  0.00  0.00    +0.000 C 
ENDBRANCH   3  11
BRANCH   1  19
ATOM     18  N   UNL     1      38.700   3.372  15.829  0.00  0.00    +0.000 NA
ATOM     19  C   UNL     1      37.926   2.657  14.861  0.00  0.00    +0.000 C 
ATOM     20  O   UNL     1      37.328   3.346  14.012  0.00  0.00    +0.000 OA
BRANCH  18  21
ATOM     21  C   UNL     1      38.795   4.841  15.802  0.00  0.00    +0.000 C 
BRANCH  21  22
ATOM     22  C   UNL     1      38.311   5.457  17.094  0.00  0.00    +0.000 C 
BRANCH  22  26
ATOM     23  C   UNL     1      41.786   6.577  19.399  0.00  0.00    +0.000 A 
ATOM     24  C   UNL     1      40.559   6.409  20.003  0.00  0.00    +0.000 A 
ATOM     25  C   UNL     1      39.436   6.052  19.248  0.00  0.00    +0.000 A 
ATOM     26  C   UNL     1      39.524   5.857  17.881  0.00  0.00    +0.000 A 
ATOM     27  C   UNL     1      40.758   6.031  17.303  0.00  0.00    +0.000 A 
ATOM     28  C   UNL     1      41.896   6.389  18.037  0.00  0.00    +0.000 A 
BRANCH  23  30
ATOM     29  C   UNL     1      43.261   6.351  21.346  0.00  0.00    +0.000 C 
ATOM     30  O   UNL     1      42.925   6.929  20.095  0.00  0.00    +0.000 OA
ENDBRANCH  23  30
BRANCH  28  31
ATOM     31  O   UNL     1      43.116   6.555  17.421  0.00  0.00    +0.000 OA
ATOM     32  C   UNL     1      43.155   7.047  16.102  0.00  0.00    +0.000 C 
ENDBRANCH  28  31
ENDBRANCH  22  26
ENDBRANCH  21  22
ENDBRANCH  18  21
ENDBRANCH   1  19
TORSDOF 7
ENDMDL
MODEL 5
REMARK VINA RESULT:      -8.1      2.038      3.209
REMARK  Name = 
REMARK  7 active torsions:
REMARK  status: ('A' for Active; 'I' for Inactive)
REMARK    1  A    between atoms: O_2  and  C_3
REMARK    2  A    between atoms: C_6  and  C_7
REMARK    3  A    between atoms: C_7  and  C_8
REMARK    4  A    between atoms: C_8  and  N_9
REMARK    5  A    between atoms: C_10  and  C_12
REMARK    6  A    between atoms: C_14  and  C_15
REMARK    7  A    between atoms: C_30  and  O_31
REMARK                            x       y       z     vdW  Elec       q    Type
REMARK                         _______ _______ _______ _____ _____    ______ ____
ROOT
ATOM      1  C   UNL     1      37.535   3.414  16.581  0.00  0.00    +0.000 A 
ATOM      2  C   UNL     1      37.873   4.393  17.528  0.00  0.00    +0.000 A 
ATOM      3  C   UNL     1      38.876   5.303  17.289  0.00  0.00    +0.000 A 
ATOM      4  N   UNL     1      39.568   5.288  16.142  0.00  0.00    +0.000 NA
ATOM      5  C   UNL     1      39.266   4.349  15.197  0.00  0.00    +0.000 A 
ATOM      6  C   UNL     1      39.982   4.314  14.023  0.00  0.00    +0.000 A 
ATOM      7  C   UNL     1      39.738   3.379  13.030  0.00  0.00    +0.000 A 
ATOM      8  C   UNL     1      38.739   2.455  13.236  0.00  0.00    +0.000 A 
ATOM      9  C   UNL     1      38.018   2.493  14.424  0.00  0.00    +0.000 A 
ATOM     10  C   UNL     1      38.259   3.422  15.413  0.00  0.00    +0.000 A 
ENDROOT
BRANCH   3  11
ATOM     11  C   UNL     1      39.148   6.333  18.307  0.00  0.00    +0.000 A 
ATOM     12  C   UNL     1      39.958   6.066  19.381  0.00  0.00    +0.000 A 
ATOM     13  C   UNL     1      40.211   6.995  20.361  0.00  0.00    +0.000 A 
ATOM     14  C   UNL     1      39.617   8.244  20.242  0.00  0.00    +0.000 A 
ATOM     15  C   UNL     1      38.799   8.530  19.167  0.00  0.00    +0.000 A 
ATOM     16  C   UNL     1      38.559   7.585  18.199  0.00  0.00    +0.000 A 
ATOM     17  C   UNL     1      37.672   7.916  17.038  0.00  0.00    +0.000 C 
ENDBRANCH   3  11
BRANCH   1  19
ATOM     18  N   UNL     1      36.613   1.212  17.427  0.00  0.00    +0.000 NA
ATOM     19  C   UNL     1      36.444   2.485  16.798  0.00  0.00    +0.000 C 
ATOM     20  O   UNL     1      35.288   2.772  16.429  0.00  0.00    +0.000 OA
BRANCH  18  21
ATOM     21  C   UNL     1      35.473   0.305  17.641  0.00  0.00    +0.000 C 
BRANCH  21  22
ATOM     22  C   UNL     1      35.230  -0.581  16.442  0.00  0.00    +0.000 C 
BRANCH  22  26
ATOM     23  C   UNL     1      39.040  -2.260  15.294  0.00  0.00    +0.000 A 
ATOM     24  C   UNL     1      38.314  -1.483  14.418  0.00  0.00    +0.000 A 
ATOM     25  C   UNL     1      37.077  -0.948  14.795  0.00  0.00    +0.000 A 
ATOM     26  C   UNL     1      36.549  -1.180  16.052  0.00  0.00    +0.000 A 
ATOM     27  C   UNL     1      37.292  -1.957  16.907  0.00  0.00    +0.000 A 
ATOM     28  C   UNL     1      38.532  -2.505  16.553  0.00  0.00    +0.000 A 
BRANCH  23  30
ATOM     29  C   UNL     1      41.400  -2.020  14.673  0.00  0.00    +0.000 C 
ATOM     30  O   UNL     1      40.263  -2.813  14.975  0.00  0.00    +0.000 OA
ENDBRANCH  23  30
BRANCH  28  31
ATOM     31  O   UNL     1      39.245  -3.281  17.439  0.00  0.00    +0.000 OA
ATOM     32  C   UNL     1      38.602  -4.358  18.078  0.00  0.00    +0.000 C 
ENDBRANCH  28  31
ENDBRANCH  22  26
ENDBRANCH  21  22
ENDBRANCH  18  21
ENDBRANCH   1  19
TORSDOF 7
ENDMDL
MODEL 6
REMARK VINA RESULT:      -8.0      2.723      4.212
REMARK  Name = 
REMARK  7 active torsions:
REMARK  status: ('A' for Active; 'I' for Inactive)
REMARK    1  A    between atoms: O_2  and  C_3
REMARK    2  A    between atoms: C_6  and  C_7
REMARK    3  A    between atoms: C_7  and  C_8
REMARK    4  A    between atoms: C_8  and  N_9
REMARK    5  A    between atoms: C_10  and  C_12
REMARK    6  A    between atoms: C_14  and  C_15
REMARK    7  A    between atoms: C_30  and  O_31
REMARK                            x       y       z     vdW  Elec       q    Type
REMARK                         _______ _______ _______ _____ _____    ______ ____
ROOT
ATOM      1  C   UNL     1      39.657   6.366  18.284  0.00  0.00    +0.000 A 
ATOM      2  C   UNL     1      40.985   6.132  18.672  0.00  0.00    +0.000 A 
ATOM      3  C   UNL     1      41.565   6.838  19.701  0.00  0.00    +0.000 A 
ATOM      4  N   UNL     1      40.882   7.778  20.368  0.00  0.00    +0.000 NA
ATOM      5  C   UNL     1      39.588   8.033  20.017  0.00  0.00    +0.000 A 
ATOM      6  C   UNL     1      38.882   9.007  20.685  0.00  0.00    +0.000 A 
ATOM      7  C   UNL     1      37.572   9.326  20.370  0.00  0.00    +0.000 A 
ATOM      8  C   UNL     1      36.961   8.637  19.348  0.00  0.00    +0.000 A 
ATOM      9  C   UNL     1      37.675   7.653  18.674  0.00  0.00    +0.000 A 
ATOM     10  C   UNL     1      38.980   7.334  18.986  0.00  0.00    +0.000 A 
ENDROOT
BRANCH   3  11
ATOM     11  C   UNL     1      42.948   6.509  20.087  0.00  0.00    +0.000 A 
ATOM     12  C   UNL     1      43.219   5.886  21.278  0.00  0.00    +0.000 A 
ATOM     13  C   UNL     1      44.499   5.590  21.679  0.00  0.00    +0.000 A 
ATOM     14  C   UNL     1      45.543   5.941  20.835  0.00  0.00    +0.000 A 
ATOM     15  C   UNL     1      45.288   6.569  19.631  0.00  0.00    +0.000 A 
ATOM     16  C   UNL     1      44.000   6.856  19.250  0.00  0.00    +0.000 A 
ATOM     17  C   UNL     1      43.744   7.533  17.938  0.00  0.00    +0.000 C 
ENDBRANCH   3  11
BRANCH   1  19
ATOM     18  N   UNL     1      38.394   4.326  17.474  0.00  0.00    +0.000 NA
ATOM     19  C   UNL     1      39.018   5.591  17.239  0.00  0.00    +0.000 C 
ATOM     20  O   UNL     1      38.995   6.012  16.066  0.00  0.00    +0.000 OA
BRANCH  18  21
ATOM     21  C   UNL     1      37.743   3.579  16.385  0.00  0.00    +0.000 C 
BRANCH  21  22
ATOM     22  C   UNL     1      36.432   2.972  16.828  0.00  0.00    +0.000 C 
BRANCH  22  26
ATOM     23  C   UNL     1      36.257  -0.990  15.118  0.00  0.00    +0.000 A 
ATOM     24  C   UNL     1      36.831   0.056  14.428  0.00  0.00    +0.000 A 
ATOM     25  C   UNL     1      36.878   1.339  14.986  0.00  0.00    +0.000 A 
ATOM     26  C   UNL     1      36.355   1.593  16.241  0.00  0.00    +0.000 A 
ATOM     27  C   UNL     1      35.788   0.535  16.908  0.00  0.00    +0.000 A 
ATOM     28  C   UNL     1      35.728  -0.757  16.371  0.00  0.00    +0.000 A 
BRANCH  23  30
ATOM     29  C   UNL     1      37.320  -2.964  14.124  0.00  0.00    +0.000 C 
ATOM     30  O   UNL     1      36.183  -2.273  14.615  0.00  0.00    +0.000 OA
ENDBRANCH  23  30
BRANCH  28  31
ATOM     31  O   UNL     1      35.150  -1.792  17.071  0.00  0.00    +0.000 OA
ATOM     32  C   UNL     1      33.782  -1.722  17.392  0.00  0.00    +0.000 C 
ENDBRANCH  28  31
ENDBRANCH  22  26
ENDBRANCH  21  22
ENDBRANCH  18  21
ENDBRANCH   1  19
TORSDOF 7
ENDMDL
MODEL 7
REMARK VINA RESULT:      -7.9      2.690      4.337
REMARK  Name = 
REMARK  7 active torsions:
REMARK  status: ('A' for Active; 'I' for Inactive)
REMARK    1  A    between atoms: O_2  and  C_3
REMARK    2  A    between atoms: C_6  and  C_7
REMARK    3  A    between atoms: C_7  and  C_8
REMARK    4  A    between atoms: C_8  and  N_9
REMARK    5  A    between atoms: C_10  and  C_12
REMARK    6  A    between atoms: C_14  and  C_15
REMARK    7  A    between atoms: C_30  and  O_31
REMARK                            x       y       z     vdW  Elec       q    Type
REMARK                         _______ _______ _______ _____ _____    ______ ____
ROOT
ATOM      1  C   UNL     1      39.662   6.193  18.726  0.00  0.00    +0.000 A 
ATOM      2  C   UNL     1      40.998   5.973  19.098  0.00  0.00    +0.000 A 
ATOM      3  C   UNL     1      41.655   6.832  19.947  0.00  0.00    +0.000 A 
ATOM      4  N   UNL     1      41.044   7.914  20.449  0.00  0.00    +0.000 NA
ATOM      5  C   UNL     1      39.745   8.160  20.108  0.00  0.00    +0.000 A 
ATOM      6  C   UNL     1      39.113   9.276  20.605  0.00  0.00    +0.000 A 
ATOM      7  C   UNL     1      37.802   9.593  20.289  0.00  0.00    +0.000 A 
ATOM      8  C   UNL     1      37.115   8.753  19.444  0.00  0.00    +0.000 A 
ATOM      9  C   UNL     1      37.755   7.626  18.943  0.00  0.00    +0.000 A 
ATOM     10  C   UNL     1      39.060   7.308  19.256  0.00  0.00    +0.000 A 
ENDROOT
BRANCH   3  11
ATOM     11  C   UNL     1      43.042   6.516  20.332  0.00  0.00    +0.000 A 
ATOM     12  C   UNL     1      43.317   5.874  21.512  0.00  0.00    +0.000 A 
ATOM     13  C   UNL     1      44.599   5.588  21.913  0.00  0.00    +0.000 A 
ATOM     14  C   UNL     1      45.642   5.971  21.079  0.00  0.00    +0.000 A 
ATOM     15  C   UNL     1      45.382   6.618  19.887  0.00  0.00    +0.000 A 
ATOM     16  C   UNL     1      44.091   6.894  19.507  0.00  0.00    +0.000 A 
ATOM     17  C   UNL     1      43.831   7.593  18.207  0.00  0.00    +0.000 C 
ENDBRANCH   3  11
BRANCH   1  19
ATOM     18  N   UNL     1      38.763   5.467  16.473  0.00  0.00    +0.000 NA
ATOM     19  C   UNL     1      38.942   5.266  17.877  0.00  0.00    +0.000 C 
ATOM     20  O   UNL     1      38.437   4.233  18.358  0.00  0.00    +0.000 OA
BRANCH  18  21
ATOM     21  C   UNL     1      38.036   4.490  15.644  0.00  0.00    +0.000 C 
BRANCH  21  22
ATOM     22  C   UNL     1      38.978   3.519  14.970  0.00  0.00    +0.000 C 
BRANCH  22  26
ATOM     23  C   UNL     1      36.939  -0.282  14.772  0.00  0.00    +0.000 A 
ATOM     24  C   UNL     1      36.255   0.874  15.079  0.00  0.00    +0.000 A 
ATOM     25  C   UNL     1      36.924   2.102  15.148  0.00  0.00    +0.000 A 
ATOM     26  C   UNL     1      38.284   2.191  14.909  0.00  0.00    +0.000 A 
ATOM     27  C   UNL     1      38.942   1.024  14.605  0.00  0.00    +0.000 A 
ATOM     28  C   UNL     1      38.295  -0.216  14.531  0.00  0.00    +0.000 A 
BRANCH  23  30
ATOM     29  C   UNL     1      35.701  -2.130  15.805  0.00  0.00    +0.000 C 
ATOM     30  O   UNL     1      36.330  -1.518  14.691  0.00  0.00    +0.000 OA
ENDBRANCH  23  30
BRANCH  28  31
ATOM     31  O   UNL     1      38.992  -1.364  14.224  0.00  0.00    +0.000 OA
ATOM     32  C   UNL     1      40.139  -1.689  14.972  0.00  0.00    +0.000 C 
ENDBRANCH  28  31
ENDBRANCH  22  26
ENDBRANCH  21  22
ENDBRANCH  18  21
ENDBRANCH   1  19
TORSDOF 7
ENDMDL
MODEL 8
REMARK VINA RESULT:      -7.8      2.282      3.441
REMARK  Name = 
REMARK  7 active torsions:
REMARK  status: ('A' for Active; 'I' for Inactive)
REMARK    1  A    between atoms: O_2  and  C_3
REMARK    2  A    between atoms: C_6  and  C_7
REMARK    3  A    between atoms: C_7  and  C_8
REMARK    4  A    between atoms: C_8  and  N_9
REMARK    5  A    between atoms: C_10  and  C_12
REMARK    6  A    between atoms: C_14  and  C_15
REMARK    7  A    between atoms: C_30  and  O_31
REMARK                            x       y       z     vdW  Elec       q    Type
REMARK                         _______ _______ _______ _____ _____    ______ ____
ROOT
ATOM      1  C   UNL     1      37.957   4.133  16.356  0.00  0.00    +0.000 A 
ATOM      2  C   UNL     1      37.838   5.055  17.409  0.00  0.00    +0.000 A 
ATOM      3  C   UNL     1      38.708   6.112  17.536  0.00  0.00    +0.000 A 
ATOM      4  N   UNL     1      39.705   6.299  16.660  0.00  0.00    +0.000 NA
ATOM      5  C   UNL     1      39.852   5.422  15.624  0.00  0.00    +0.000 A 
ATOM      6  C   UNL     1      40.881   5.596  14.728  0.00  0.00    +0.000 A 
ATOM      7  C   UNL     1      41.096   4.735  13.664  0.00  0.00    +0.000 A 
ATOM      8  C   UNL     1      40.241   3.669  13.506  0.00  0.00    +0.000 A 
ATOM      9  C   UNL     1      39.202   3.495  14.413  0.00  0.00    +0.000 A 
ATOM     10  C   UNL     1      38.986   4.350  15.472  0.00  0.00    +0.000 A 
ENDROOT
BRANCH   3  11
ATOM     11  C   UNL     1      38.498   7.068  18.637  0.00  0.00    +0.000 A 
ATOM     12  C   UNL     1      37.456   7.958  18.609  0.00  0.00    +0.000 A 
ATOM     13  C   UNL     1      37.247   8.879  19.606  0.00  0.00    +0.000 A 
ATOM     14  C   UNL     1      38.134   8.893  20.675  0.00  0.00    +0.000 A 
ATOM     15  C   UNL     1      39.189   8.003  20.719  0.00  0.00    +0.000 A 
ATOM     16  C   UNL     1      39.378   7.090  19.710  0.00  0.00    +0.000 A 
ATOM     17  C   UNL     1      40.526   6.130  19.780  0.00  0.00    +0.000 C 
ENDBRANCH   3  11
BRANCH   1  19
ATOM     18  N   UNL     1      36.832   2.004  17.141  0.00  0.00    +0.000 NA
ATOM     19  C   UNL     1      37.013   3.048  16.180  0.00  0.00    +0.000 C 
ATOM     20  O   UNL     1      36.309   2.985  15.153  0.00  0.00    +0.000 OA
BRANCH  18  21
ATOM     21  C   UNL     1      35.850   0.928  16.928  0.00  0.00    +0.000 C 
BRANCH  21  22
ATOM     22  C   UNL     1      36.351  -0.399  17.449  0.00  0.00    +0.000 C 
BRANCH  22  26
ATOM     23  C   UNL     1      39.095  -2.030  14.541  0.00  0.00    +0.000 A 
ATOM     24  C   UNL     1      39.218  -2.333  15.879  0.00  0.00    +0.000 A 
ATOM     25  C   UNL     1      38.328  -1.795  16.817  0.00  0.00    +0.000 A 
ATOM     26  C   UNL     1      37.305  -0.950  16.430  0.00  0.00    +0.000 A 
ATOM     27  C   UNL     1      37.203  -0.663  15.090  0.00  0.00    +0.000 A 
ATOM     28  C   UNL     1      38.081  -1.188  14.133  0.00  0.00    +0.000 A 
BRANCH  23  30
ATOM     29  C   UNL     1      41.355  -2.464  13.693  0.00  0.00    +0.000 C 
ATOM     30  O   UNL     1      39.943  -2.531  13.575  0.00  0.00    +0.000 OA
ENDBRANCH  23  30
BRANCH  28  31
ATOM     31  O   UNL     1      37.947  -0.876  12.799  0.00  0.00    +0.000 OA
ATOM     32  C   UNL     1      37.161   0.233  12.431  0.00  0.00    +0.000 C 
ENDBRANCH  28  31
ENDBRANCH  22  26
ENDBRANCH  21  22
ENDBRANCH  18  21
ENDBRANCH   1  19
TORSDOF 7
ENDMDL
MODEL 9
REMARK VINA RESULT:      -7.8      3.312      8.773
REMARK  Name = 
REMARK  7 active torsions:
REMARK  status: ('A' for Active; 'I' for Inactive)
REMARK    1  A    between atoms: O_2  and  C_3
REMARK    2  A    between atoms: C_6  and  C_7
REMARK    3  A    between atoms: C_7  and  C_8
REMARK    4  A    between atoms: C_8  and  N_9
REMARK    5  A    between atoms: C_10  and  C_12
REMARK    6  A    between atoms: C_14  and  C_15
REMARK    7  A    between atoms: C_30  and  O_31
REMARK                            x       y       z     vdW  Elec       q    Type
REMARK                         _______ _______ _______ _____ _____    ______ ____
ROOT
ATOM      1  C   UNL     1      39.122  -0.549  15.006  0.00  0.00    +0.000 A 
ATOM      2  C   UNL     1      40.361  -0.806  14.398  0.00  0.00    +0.000 A 
ATOM      3  C   UNL     1      41.047  -1.973  14.640  0.00  0.00    +0.000 A 
ATOM      4  N   UNL     1      40.559  -2.907  15.467  0.00  0.00    +0.000 NA
ATOM      5  C   UNL     1      39.356  -2.690  16.077  0.00  0.00    +0.000 A 
ATOM      6  C   UNL     1      38.853  -3.635  16.941  0.00  0.00    +0.000 A 
ATOM      7  C   UNL     1      37.648  -3.472  17.603  0.00  0.00    +0.000 A 
ATOM      8  C   UNL     1      36.934  -2.316  17.382  0.00  0.00    +0.000 A 
ATOM      9  C   UNL     1      37.444  -1.363  16.508  0.00  0.00    +0.000 A 
ATOM     10  C   UNL     1      38.644  -1.523  15.848  0.00  0.00    +0.000 A 
ENDROOT
BRANCH   3  11
ATOM     11  C   UNL     1      42.320  -2.199  13.933  0.00  0.00    +0.000 A 
ATOM     12  C   UNL     1      43.510  -1.779  14.470  0.00  0.00    +0.000 A 
ATOM     13  C   UNL     1      44.710  -1.951  13.825  0.00  0.00    +0.000 A 
ATOM     14  C   UNL     1      44.699  -2.576  12.586  0.00  0.00    +0.000 A 
ATOM     15  C   UNL     1      43.510  -3.006  12.030  0.00  0.00    +0.000 A 
ATOM     16  C   UNL     1      42.321  -2.823  12.693  0.00  0.00    +0.000 A 
ATOM     17  C   UNL     1      41.042  -3.301  12.076  0.00  0.00    +0.000 C 
ENDBRANCH   3  11
BRANCH   1  19
ATOM     18  N   UNL     1      38.578   1.895  15.389  0.00  0.00    +0.000 NA
ATOM     19  C   UNL     1      38.363   0.651  14.716  0.00  0.00    +0.000 C 
ATOM     20  O   UNL     1      37.469   0.638  13.848  0.00  0.00    +0.000 OA
BRANCH  18  21
ATOM     21  C   UNL     1      37.794   3.094  15.052  0.00  0.00    +0.000 C 
BRANCH  21  22
ATOM     22  C   UNL     1      37.345   3.836  16.290  0.00  0.00    +0.000 C 
BRANCH  22  26
ATOM     23  C   UNL     1      40.630   6.350  17.528  0.00  0.00    +0.000 A 
ATOM     24  C   UNL     1      40.444   6.030  16.201  0.00  0.00    +0.000 A 
ATOM     25  C   UNL     1      39.380   5.208  15.808  0.00  0.00    +0.000 A 
ATOM     26  C   UNL     1      38.489   4.699  16.735  0.00  0.00    +0.000 A 
ATOM     27  C   UNL     1      38.696   5.033  18.051  0.00  0.00    +0.000 A 
ATOM     28  C   UNL     1      39.753   5.852  18.469  0.00  0.00    +0.000 A 
BRANCH  23  30
ATOM     29  C   UNL     1      43.001   6.696  18.054  0.00  0.00    +0.000 C 
ATOM     30  O   UNL     1      41.661   7.154  17.971  0.00  0.00    +0.000 OA
ENDBRANCH  23  30
BRANCH  28  31
ATOM     31  O   UNL     1      39.928   6.164  19.799  0.00  0.00    +0.000 OA
ATOM     32  C   UNL     1      39.405   7.374  20.293  0.00  0.00    +0.000 C 
ENDBRANCH  28  31
ENDBRANCH  22  26
ENDBRANCH  21  22
ENDBRANCH  18  21
ENDBRANCH   1  19
TORSDOF 7
ENDMDL
MODEL 10
REMARK VINA RESULT:      -7.7      3.270      9.061
REMARK  Name = 
REMARK  7 active torsions:
REMARK  status: ('A' for Active; 'I' for Inactive)
REMARK    1  A    between atoms: O_2  and  C_3
REMARK    2  A    between atoms: C_6  and  C_7
REMARK    3  A    between atoms: C_7  and  C_8
REMARK    4  A    between atoms: C_8  and  N_9
REMARK    5  A    between atoms: C_10  and  C_12
REMARK    6  A    between atoms: C_14  and  C_15
REMARK    7  A    between atoms: C_30  and  O_31
REMARK                            x       y       z     vdW  Elec       q    Type
REMARK                         _______ _______ _______ _____ _____    ______ ____
ROOT
ATOM      1  C   UNL     1      39.604   0.200  14.213  0.00  0.00    +0.000 A 
ATOM      2  C   UNL     1      38.661  -0.793  14.526  0.00  0.00    +0.000 A 
ATOM      3  C   UNL     1      39.044  -2.093  14.762  0.00  0.00    +0.000 A 
ATOM      4  N   UNL     1      40.331  -2.460  14.699  0.00  0.00    +0.000 NA
ATOM      5  C   UNL     1      41.275  -1.520  14.397  0.00  0.00    +0.000 A 
ATOM      6  C   UNL     1      42.597  -1.890  14.315  0.00  0.00    +0.000 A 
ATOM      7  C   UNL     1      43.603  -0.991  13.999  0.00  0.00    +0.000 A 
ATOM      8  C   UNL     1      43.255   0.318  13.760  0.00  0.00    +0.000 A 
ATOM      9  C   UNL     1      41.918   0.689  13.843  0.00  0.00    +0.000 A 
ATOM     10  C   UNL     1      40.916  -0.203  14.158  0.00  0.00    +0.000 A 
ENDROOT
BRANCH   3  11
ATOM     11  C   UNL     1      38.008  -3.074  15.130  0.00  0.00    +0.000 A 
ATOM     12  C   UNL     1      37.127  -3.554  14.195  0.00  0.00    +0.000 A 
ATOM     13  C   UNL     1      36.134  -4.449  14.511  0.00  0.00    +0.000 A 
ATOM     14  C   UNL     1      36.036  -4.873  15.829  0.00  0.00    +0.000 A 
ATOM     15  C   UNL     1      36.916  -4.400  16.783  0.00  0.00    +0.000 A 
ATOM     16  C   UNL     1      37.901  -3.505  16.445  0.00  0.00    +0.000 A 
ATOM     17  C   UNL     1      38.849  -3.008  17.494  0.00  0.00    +0.000 C 
ENDBRANCH   3  11
BRANCH   1  19
ATOM     18  N   UNL     1      39.074   2.515  15.092  0.00  0.00    +0.000 NA
ATOM     19  C   UNL     1      39.219   1.583  14.017  0.00  0.00    +0.000 C 
ATOM     20  O   UNL     1      38.991   2.018  12.872  0.00  0.00    +0.000 OA
BRANCH  18  21
ATOM     21  C   UNL     1      38.696   3.917  14.846  0.00  0.00    +0.000 C 
BRANCH  21  22
ATOM     22  C   UNL     1      39.876   4.849  14.998  0.00  0.00    +0.000 C 
BRANCH  22  26
ATOM     23  C   UNL     1      39.785   6.323  19.056  0.00  0.00    +0.000 A 
ATOM     24  C   UNL     1      38.727   5.609  18.537  0.00  0.00    +0.000 A 
ATOM     25  C   UNL     1      38.761   5.141  17.218  0.00  0.00    +0.000 A 
ATOM     26  C   UNL     1      39.852   5.377  16.402  0.00  0.00    +0.000 A 
ATOM     27  C   UNL     1      40.894   6.090  16.943  0.00  0.00    +0.000 A 
ATOM     28  C   UNL     1      40.883   6.571  18.259  0.00  0.00    +0.000 A 
BRANCH  23  30
ATOM     29  C   UNL     1      39.068   7.956  20.740  0.00  0.00    +0.000 C 
ATOM     30  O   UNL     1      39.804   6.809  20.348  0.00  0.00    +0.000 OA
ENDBRANCH  23  30
BRANCH  28  31
ATOM     31  O   UNL     1      41.947   7.283  18.764  0.00  0.00    +0.000 OA
ATOM     32  C   UNL     1      43.244   7.007  18.289  0.00  0.00    +0.000 C 
ENDBRANCH  28  31
ENDBRANCH  22  26
ENDBRANCH  21  22
ENDBRANCH  18  21
ENDBRANCH   1  19
TORSDOF 7
ENDMDL
