MODEL 1
REMARK VINA RESULT:      -6.4      0.000      0.000
REMARK  Name = 
REMARK  5 active torsions:
REMARK  status: ('A' for Active; 'I' for Inactive)
REMARK    1  A    between atoms: C_2  and  C_3
REMARK    2  A    between atoms: C_3  and  C_15
REMARK    3  A    between atoms: C_4  and  C_5
REMARK    4  A    between atoms: C_4  and  C_7
REMARK    5  A    between atoms: C_10  and  O_11
REMARK                            x       y       z     vdW  Elec       q    Type
REMARK                         _______ _______ _______ _____ _____    ______ ____
ROOT
ATOM      1  C   UNL     1      19.642  10.808  37.736  0.00  0.00    +0.000 C 
ATOM      2  C   UNL     1      18.687  10.364  36.953  0.00  0.00    +0.000 C 
ENDROOT
BRANCH   1   3
ATOM      3  C   UNL     1      20.974  10.229  37.803  0.00  0.00    +0.000 A 
ATOM      4  C   UNL     1      21.367   9.635  38.978  0.00  0.00    +0.000 A 
ATOM      5  C   UNL     1      22.625   9.061  39.118  0.00  0.00    +0.000 A 
ATOM      6  C   UNL     1      23.497   9.084  38.069  0.00  0.00    +0.000 A 
ATOM      7  O   UNL     1      24.774   8.513  38.178  0.00  0.00    +0.000 OA
ATOM      8  C   UNL     1      23.103   9.678  36.894  0.00  0.00    +0.000 A 
ATOM      9  C   UNL     1      21.834  10.256  36.757  0.00  0.00    +0.000 A 
ENDBRANCH   1   3
BRANCH   2  10
ATOM     10  C   UNL     1      17.364  10.998  36.935  0.00  0.00    +0.000 A 
ATOM     11  C   UNL     1      16.372  10.564  37.779  0.00  0.00    +0.000 A 
ATOM     12  C   UNL     1      15.127  11.141  37.782  0.00  0.00    +0.000 A 
ATOM     13  C   UNL     1      14.854  12.176  36.928  0.00  0.00    +0.000 A 
ATOM     14  C   UNL     1      15.827  12.631  36.073  0.00  0.00    +0.000 A 
ATOM     15  C   UNL     1      17.090  12.049  36.067  0.00  0.00    +0.000 A 
BRANCH  13  16
ATOM     16  O   UNL     1      13.594  12.747  36.943  0.00  0.00    +0.000 OA
ATOM     17  C   UNL     1      12.431  11.981  37.047  0.00  0.00    +0.000 C 
ENDBRANCH  13  16
ENDBRANCH   2  10
BRANCH   1  19
ATOM     18  C   UNL     1      20.139  13.182  38.115  0.00  0.00    +0.000 C 
ATOM     19  C   UNL     1      19.327  11.985  38.608  0.00  0.00    +0.000 C 
ENDBRANCH   1  19
BRANCH   2  20
ATOM     20  C   UNL     1      18.933   9.218  36.078  0.00  0.00    +0.000 C 
ATOM     21  C   UNL     1      17.763   8.882  35.177  0.00  0.00    +0.000 C 
ENDBRANCH   2  20
TORSDOF 5
ENDMDL
MODEL 2
REMARK VINA RESULT:      -6.2      0.861      7.304
REMARK  Name = 
REMARK  5 active torsions:
REMARK  status: ('A' for Active; 'I' for Inactive)
REMARK    1  A    between atoms: C_2  and  C_3
REMARK    2  A    between atoms: C_3  and  C_15
REMARK    3  A    between atoms: C_4  and  C_5
REMARK    4  A    between atoms: C_4  and  C_7
REMARK    5  A    between atoms: C_10  and  O_11
REMARK                            x       y       z     vdW  Elec       q    Type
REMARK                         _______ _______ _______ _____ _____    ______ ____
ROOT
ATOM      1  C   UNL     1      17.993  10.640  37.209  0.00  0.00    +0.000 C 
ATOM      2  C   UNL     1      19.039  11.277  37.680  0.00  0.00    +0.000 C 
ENDROOT
BRANCH   1   3
ATOM      3  C   UNL     1      16.709  11.268  36.942  0.00  0.00    +0.000 A 
ATOM      4  C   UNL     1      15.676  11.032  37.817  0.00  0.00    +0.000 A 
ATOM      5  C   UNL     1      14.419  11.598  37.628  0.00  0.00    +0.000 A 
ATOM      6  C   UNL     1      14.199  12.406  36.552  0.00  0.00    +0.000 A 
ATOM      7  O   UNL     1      12.942  12.992  36.333  0.00  0.00    +0.000 OA
ATOM      8  C   UNL     1      15.233  12.641  35.678  0.00  0.00    +0.000 A 
ATOM      9  C   UNL     1      16.498  12.070  35.872  0.00  0.00    +0.000 A 
ENDBRANCH   1   3
BRANCH   2  10
ATOM     10  C   UNL     1      20.306  10.580  37.924  0.00  0.00    +0.000 A 
ATOM     11  C   UNL     1      20.615  10.115  39.178  0.00  0.00    +0.000 A 
ATOM     12  C   UNL     1      21.793   9.459  39.432  0.00  0.00    +0.000 A 
ATOM     13  C   UNL     1      22.692   9.257  38.418  0.00  0.00    +0.000 A 
ATOM     14  C   UNL     1      22.409   9.710  37.154  0.00  0.00    +0.000 A 
ATOM     15  C   UNL     1      21.216  10.376  36.893  0.00  0.00    +0.000 A 
BRANCH  13  16
ATOM     16  O   UNL     1      23.875   8.593  38.689  0.00  0.00    +0.000 OA
ATOM     17  C   UNL     1      25.105   9.031  38.191  0.00  0.00    +0.000 C 
ENDBRANCH  13  16
ENDBRANCH   2  10
BRANCH   1  19
ATOM     18  C   UNL     1      17.897   8.939  35.441  0.00  0.00    +0.000 C 
ATOM     19  C   UNL     1      18.146   9.175  36.930  0.00  0.00    +0.000 C 
ENDBRANCH   1  19
BRANCH   2  20
ATOM     20  C   UNL     1      18.952  12.708  37.972  0.00  0.00    +0.000 C 
ATOM     21  C   UNL     1      20.291  13.345  38.281  0.00  0.00    +0.000 C 
ENDBRANCH   2  20
TORSDOF 5
ENDMDL
MODEL 3
REMARK VINA RESULT:      -6.0     19.537     21.377
REMARK  Name = 
REMARK  5 active torsions:
REMARK  status: ('A' for Active; 'I' for Inactive)
REMARK    1  A    between atoms: C_2  and  C_3
REMARK    2  A    between atoms: C_3  and  C_15
REMARK    3  A    between atoms: C_4  and  C_5
REMARK    4  A    between atoms: C_4  and  C_7
REMARK    5  A    between atoms: C_10  and  O_11
REMARK                            x       y       z     vdW  Elec       q    Type
REMARK                         _______ _______ _______ _____ _____    ______ ____
ROOT
ATOM      1  C   UNL     1      27.326  24.379  25.575  0.00  0.00    +0.000 C 
ATOM      2  C   UNL     1      28.556  24.622  25.188  0.00  0.00    +0.000 C 
ENDROOT
BRANCH   1   3
ATOM      3  C   UNL     1      26.949  24.067  26.944  0.00  0.00    +0.000 A 
ATOM      4  C   UNL     1      27.449  22.918  27.510  0.00  0.00    +0.000 A 
ATOM      5  C   UNL     1      27.134  22.553  28.814  0.00  0.00    +0.000 A 
ATOM      6  C   UNL     1      26.309  23.347  29.555  0.00  0.00    +0.000 A 
ATOM      7  O   UNL     1      25.971  23.006  30.874  0.00  0.00    +0.000 OA
ATOM      8  C   UNL     1      25.809  24.494  28.988  0.00  0.00    +0.000 A 
ATOM      9  C   UNL     1      26.130  24.860  27.674  0.00  0.00    +0.000 A 
ENDBRANCH   1   3
BRANCH   2  10
ATOM     10  C   UNL     1      28.865  24.933  23.789  0.00  0.00    +0.000 A 
ATOM     11  C   UNL     1      28.947  23.931  22.854  0.00  0.00    +0.000 A 
ATOM     12  C   UNL     1      29.233  24.197  21.539  0.00  0.00    +0.000 A 
ATOM     13  C   UNL     1      29.445  25.488  21.135  0.00  0.00    +0.000 A 
ATOM     14  C   UNL     1      29.368  26.510  22.048  0.00  0.00    +0.000 A 
ATOM     15  C   UNL     1      29.079  26.245  23.382  0.00  0.00    +0.000 A 
BRANCH  13  16
ATOM     16  O   UNL     1      29.733  25.740  19.805  0.00  0.00    +0.000 OA
ATOM     17  C   UNL     1      30.003  27.027  19.333  0.00  0.00    +0.000 C 
ENDBRANCH  13  16
ENDBRANCH   2  10
BRANCH   1  19
ATOM     18  C   UNL     1      25.664  23.032  24.370  0.00  0.00    +0.000 C 
ATOM     19  C   UNL     1      26.252  24.434  24.530  0.00  0.00    +0.000 C 
ENDBRANCH   1  19
BRANCH   2  20
ATOM     20  C   UNL     1      29.648  24.585  26.162  0.00  0.00    +0.000 C 
ATOM     21  C   UNL     1      30.660  23.489  25.895  0.00  0.00    +0.000 C 
ENDBRANCH   2  20
TORSDOF 5
ENDMDL
MODEL 4
REMARK VINA RESULT:      -6.0      1.666      7.396
REMARK  Name = 
REMARK  5 active torsions:
REMARK  status: ('A' for Active; 'I' for Inactive)
REMARK    1  A    between atoms: C_2  and  C_3
REMARK    2  A    between atoms: C_3  and  C_15
REMARK    3  A    between atoms: C_4  and  C_5
REMARK    4  A    between atoms: C_4  and  C_7
REMARK    5  A    between atoms: C_10  and  O_11
REMARK                            x       y       z     vdW  Elec       q    Type
REMARK                         _______ _______ _______ _____ _____    ______ ____
ROOT
ATOM      1  C   UNL     1      16.510  11.443  37.290  0.00  0.00    +0.000 C 
ATOM      2  C   UNL     1      17.333  10.763  38.053  0.00  0.00    +0.000 C 
ENDROOT
BRANCH   1   3
ATOM      3  C   UNL     1      15.064  11.430  37.439  0.00  0.00    +0.000 A 
ATOM      4  C   UNL     1      14.312  12.156  36.546  0.00  0.00    +0.000 A 
ATOM      5  C   UNL     1      12.924  12.192  36.626  0.00  0.00    +0.000 A 
ATOM      6  C   UNL     1      12.287  11.495  37.609  0.00  0.00    +0.000 A 
ATOM      7  O   UNL     1      10.887  11.512  37.716  0.00  0.00    +0.000 OA
ATOM      8  C   UNL     1      13.039  10.770  38.501  0.00  0.00    +0.000 A 
ATOM      9  C   UNL     1      14.438  10.735  38.419  0.00  0.00    +0.000 A 
ENDBRANCH   1   3
BRANCH   2  10
ATOM     10  C   UNL     1      18.784  10.824  37.848  0.00  0.00    +0.000 A 
ATOM     11  C   UNL     1      19.520  11.856  38.375  0.00  0.00    +0.000 A 
ATOM     12  C   UNL     1      20.878  11.934  38.198  0.00  0.00    +0.000 A 
ATOM     13  C   UNL     1      21.529  10.966  37.480  0.00  0.00    +0.000 A 
ATOM     14  C   UNL     1      20.818   9.921  36.943  0.00  0.00    +0.000 A 
ATOM     15  C   UNL     1      19.442   9.839  37.120  0.00  0.00    +0.000 A 
BRANCH  13  16
ATOM     16  O   UNL     1      22.899  11.059  37.311  0.00  0.00    +0.000 OA
ATOM     17  C   UNL     1      23.560  10.447  36.243  0.00  0.00    +0.000 C 
ENDBRANCH  13  16
ENDBRANCH   2  10
BRANCH   1  19
ATOM     18  C   UNL     1      17.023  11.502  34.890  0.00  0.00    +0.000 C 
ATOM     19  C   UNL     1      17.112  12.280  36.202  0.00  0.00    +0.000 C 
ENDBRANCH   1  19
BRANCH   2  20
ATOM     20  C   UNL     1      16.807   9.928  39.133  0.00  0.00    +0.000 C 
ATOM     21  C   UNL     1      17.830   9.605  40.202  0.00  0.00    +0.000 C 
ENDBRANCH   2  20
TORSDOF 5
ENDMDL
MODEL 5
REMARK VINA RESULT:      -5.8     19.428     21.182
REMARK  Name = 
REMARK  5 active torsions:
REMARK  status: ('A' for Active; 'I' for Inactive)
REMARK    1  A    between atoms: C_2  and  C_3
REMARK    2  A    between atoms: C_3  and  C_15
REMARK    3  A    between atoms: C_4  and  C_5
REMARK    4  A    between atoms: C_4  and  C_7
REMARK    5  A    between atoms: C_10  and  O_11
REMARK                            x       y       z     vdW  Elec       q    Type
REMARK                         _______ _______ _______ _____ _____    ______ ____
ROOT
ATOM      1  C   UNL     1      28.046  24.231  25.925  0.00  0.00    +0.000 C 
ATOM      2  C   UNL     1      27.358  24.353  24.814  0.00  0.00    +0.000 C 
ENDROOT
BRANCH   1   3
ATOM      3  C   UNL     1      27.476  23.804  27.192  0.00  0.00    +0.000 A 
ATOM      4  C   UNL     1      27.862  22.587  27.702  0.00  0.00    +0.000 A 
ATOM      5  C   UNL     1      27.361  22.111  28.909  0.00  0.00    +0.000 A 
ATOM      6  C   UNL     1      26.463  22.863  29.609  0.00  0.00    +0.000 A 
ATOM      7  O   UNL     1      25.938  22.411  30.829  0.00  0.00    +0.000 OA
ATOM      8  C   UNL     1      26.078  24.079  29.098  0.00  0.00    +0.000 A 
ATOM      9  C   UNL     1      26.586  24.556  27.882  0.00  0.00    +0.000 A 
ENDBRANCH   1   3
BRANCH   2  10
ATOM     10  C   UNL     1      27.998  24.788  23.569  0.00  0.00    +0.000 A 
ATOM     11  C   UNL     1      28.475  23.865  22.671  0.00  0.00    +0.000 A 
ATOM     12  C   UNL     1      29.076  24.245  21.499  0.00  0.00    +0.000 A 
ATOM     13  C   UNL     1      29.211  25.576  21.203  0.00  0.00    +0.000 A 
ATOM     14  C   UNL     1      28.743  26.521  22.081  0.00  0.00    +0.000 A 
ATOM     15  C   UNL     1      28.133  26.139  23.271  0.00  0.00    +0.000 A 
BRANCH  13  16
ATOM     16  O   UNL     1      29.820  25.944  20.016  0.00  0.00    +0.000 OA
ATOM     17  C   UNL     1      29.911  27.277  19.609  0.00  0.00    +0.000 C 
ENDBRANCH  13  16
ENDBRANCH   2  10
BRANCH   1  19
ATOM     18  C   UNL     1      29.750  25.843  26.650  0.00  0.00    +0.000 C 
ATOM     19  C   UNL     1      29.509  24.552  25.868  0.00  0.00    +0.000 C 
ENDBRANCH   1  19
BRANCH   2  20
ATOM     20  C   UNL     1      25.926  24.054  24.806  0.00  0.00    +0.000 C 
ATOM     21  C   UNL     1      25.049  25.289  24.823  0.00  0.00    +0.000 C 
ENDBRANCH   2  20
TORSDOF 5
ENDMDL
MODEL 6
REMARK VINA RESULT:      -5.6     20.832     23.195
REMARK  Name = 
REMARK  5 active torsions:
REMARK  status: ('A' for Active; 'I' for Inactive)
REMARK    1  A    between atoms: C_2  and  C_3
REMARK    2  A    between atoms: C_3  and  C_15
REMARK    3  A    between atoms: C_4  and  C_5
REMARK    4  A    between atoms: C_4  and  C_7
REMARK    5  A    between atoms: C_10  and  O_11
REMARK                            x       y       z     vdW  Elec       q    Type
REMARK                         _______ _______ _______ _____ _____    ______ ____
ROOT
ATOM      1  C   UNL     1      30.247  24.620  24.331  0.00  0.00    +0.000 C 
ATOM      2  C   UNL     1      31.121  23.844  24.926  0.00  0.00    +0.000 C 
ENDROOT
BRANCH   1   3
ATOM      3  C   UNL     1      28.958  24.166  23.837  0.00  0.00    +0.000 A 
ATOM      4  C   UNL     1      28.780  24.065  22.478  0.00  0.00    +0.000 A 
ATOM      5  C   UNL     1      27.575  23.638  21.932  0.00  0.00    +0.000 A 
ATOM      6  C   UNL     1      26.540  23.310  22.757  0.00  0.00    +0.000 A 
ATOM      7  O   UNL     1      25.311  22.876  22.236  0.00  0.00    +0.000 OA
ATOM      8  C   UNL     1      26.718  23.411  24.115  0.00  0.00    +0.000 A 
ATOM      9  C   UNL     1      27.934  23.841  24.663  0.00  0.00    +0.000 A 
ENDBRANCH   1   3
BRANCH   2  10
ATOM     10  C   UNL     1      32.405  24.370  25.402  0.00  0.00    +0.000 A 
ATOM     11  C   UNL     1      33.518  24.322  24.600  0.00  0.00    +0.000 A 
ATOM     12  C   UNL     1      34.730  24.808  25.021  0.00  0.00    +0.000 A 
ATOM     13  C   UNL     1      34.846  25.359  26.270  0.00  0.00    +0.000 A 
ATOM     14  C   UNL     1      33.749  25.422  27.093  0.00  0.00    +0.000 A 
ATOM     15  C   UNL     1      32.519  24.929  26.670  0.00  0.00    +0.000 A 
BRANCH  13  16
ATOM     16  O   UNL     1      36.074  25.846  26.680  0.00  0.00    +0.000 OA
ATOM     17  C   UNL     1      37.202  25.027  26.785  0.00  0.00    +0.000 C 
ENDBRANCH  13  16
ENDBRANCH   2  10
BRANCH   1  19
ATOM     18  C   UNL     1      29.736  26.899  25.088  0.00  0.00    +0.000 C 
ATOM     19  C   UNL     1      30.614  26.063  24.157  0.00  0.00    +0.000 C 
ENDBRANCH   1  19
BRANCH   2  20
ATOM     20  C   UNL     1      30.821  22.426  25.127  0.00  0.00    +0.000 C 
ATOM     21  C   UNL     1      30.405  22.090  26.544  0.00  0.00    +0.000 C 
ENDBRANCH   2  20
TORSDOF 5
ENDMDL
MODEL 7
REMARK VINA RESULT:      -5.6     19.814     21.633
REMARK  Name = 
REMARK  5 active torsions:
REMARK  status: ('A' for Active; 'I' for Inactive)
REMARK    1  A    between atoms: C_2  and  C_3
REMARK    2  A    between atoms: C_3  and  C_15
REMARK    3  A    between atoms: C_4  and  C_5
REMARK    4  A    between atoms: C_4  and  C_7
REMARK    5  A    between atoms: C_10  and  O_11
REMARK                            x       y       z     vdW  Elec       q    Type
REMARK                         _______ _______ _______ _____ _____    ______ ____
ROOT
ATOM      1  C   UNL     1      28.453  24.935  24.364  0.00  0.00    +0.000 C 
ATOM      2  C   UNL     1      29.339  24.442  25.197  0.00  0.00    +0.000 C 
ENDROOT
BRANCH   1   3
ATOM      3  C   UNL     1      28.785  25.532  23.081  0.00  0.00    +0.000 A 
ATOM      4  C   UNL     1      29.102  24.697  22.037  0.00  0.00    +0.000 A 
ATOM      5  C   UNL     1      29.430  25.195  20.781  0.00  0.00    +0.000 A 
ATOM      6  C   UNL     1      29.442  26.542  20.572  0.00  0.00    +0.000 A 
ATOM      7  O   UNL     1      29.770  27.076  19.316  0.00  0.00    +0.000 OA
ATOM      8  C   UNL     1      29.125  27.377  21.617  0.00  0.00    +0.000 A 
ATOM      9  C   UNL     1      28.794  26.872  22.881  0.00  0.00    +0.000 A 
ENDBRANCH   1   3
BRANCH   2  10
ATOM     10  C   UNL     1      28.933  23.851  26.476  0.00  0.00    +0.000 A 
ATOM     11  C   UNL     1      28.474  22.558  26.532  0.00  0.00    +0.000 A 
ATOM     12  C   UNL     1      28.090  21.982  27.716  0.00  0.00    +0.000 A 
ATOM     13  C   UNL     1      28.160  22.703  28.878  0.00  0.00    +0.000 A 
ATOM     14  C   UNL     1      28.615  23.997  28.853  0.00  0.00    +0.000 A 
ATOM     15  C   UNL     1      29.006  24.585  27.655  0.00  0.00    +0.000 A 
BRANCH  13  16
ATOM     16  O   UNL     1      27.768  22.107  30.065  0.00  0.00    +0.000 OA
ATOM     17  C   UNL     1      26.441  21.750  30.316  0.00  0.00    +0.000 C 
ENDBRANCH  13  16
ENDBRANCH   2  10
BRANCH   1  19
ATOM     18  C   UNL     1      26.302  23.857  23.873  0.00  0.00    +0.000 C 
ATOM     19  C   UNL     1      27.012  24.868  24.772  0.00  0.00    +0.000 C 
ENDBRANCH   1  19
BRANCH   2  20
ATOM     20  C   UNL     1      30.761  24.477  24.855  0.00  0.00    +0.000 C 
ATOM     21  C   UNL     1      31.345  23.112  24.556  0.00  0.00    +0.000 C 
ENDBRANCH   2  20
TORSDOF 5
ENDMDL
MODEL 8
REMARK VINA RESULT:      -5.5      2.457      7.568
REMARK  Name = 
REMARK  5 active torsions:
REMARK  status: ('A' for Active; 'I' for Inactive)
REMARK    1  A    between atoms: C_2  and  C_3
REMARK    2  A    between atoms: C_3  and  C_15
REMARK    3  A    between atoms: C_4  and  C_5
REMARK    4  A    between atoms: C_4  and  C_7
REMARK    5  A    between atoms: C_10  and  O_11
REMARK                            x       y       z     vdW  Elec       q    Type
REMARK                         _______ _______ _______ _____ _____    ______ ____
ROOT
ATOM      1  C   UNL     1      17.122  10.253  38.379  0.00  0.00    +0.000 C 
ATOM      2  C   UNL     1      17.193   9.638  39.535  0.00  0.00    +0.000 C 
ENDROOT
BRANCH   1   3
ATOM      3  C   UNL     1      15.942  10.956  37.902  0.00  0.00    +0.000 A 
ATOM      4  C   UNL     1      16.101  11.899  36.914  0.00  0.00    +0.000 A 
ATOM      5  C   UNL     1      15.020  12.611  36.408  0.00  0.00    +0.000 A 
ATOM      6  C   UNL     1      13.769  12.375  36.897  0.00  0.00    +0.000 A 
ATOM      7  O   UNL     1      12.657  13.077  36.407  0.00  0.00    +0.000 OA
ATOM      8  C   UNL     1      13.610  11.432  37.884  0.00  0.00    +0.000 A 
ATOM      9  C   UNL     1      14.702  10.716  38.392  0.00  0.00    +0.000 A 
ENDBRANCH   1   3
BRANCH   2  10
ATOM     10  C   UNL     1      18.418   8.950  39.955  0.00  0.00    +0.000 A 
ATOM     11  C   UNL     1      19.494   9.664  40.422  0.00  0.00    +0.000 A 
ATOM     12  C   UNL     1      20.650   9.044  40.823  0.00  0.00    +0.000 A 
ATOM     13  C   UNL     1      20.747   7.679  40.760  0.00  0.00    +0.000 A 
ATOM     14  C   UNL     1      19.687   6.939  40.298  0.00  0.00    +0.000 A 
ATOM     15  C   UNL     1      18.514   7.564  39.891  0.00  0.00    +0.000 A 
BRANCH  13  16
ATOM     16  O   UNL     1      21.920   7.068  41.167  0.00  0.00    +0.000 OA
ATOM     17  C   UNL     1      22.154   5.704  40.976  0.00  0.00    +0.000 C 
ENDBRANCH  13  16
ENDBRANCH   2  10
BRANCH   1  19
ATOM     18  C   UNL     1      18.114   9.198  36.397  0.00  0.00    +0.000 C 
ATOM     19  C   UNL     1      18.340  10.224  37.507  0.00  0.00    +0.000 C 
ENDBRANCH   1  19
BRANCH   2  20
ATOM     20  C   UNL     1      16.036   9.632  40.432  0.00  0.00    +0.000 C 
ATOM     21  C   UNL     1      16.409   9.657  41.900  0.00  0.00    +0.000 C 
ENDBRANCH   2  20
TORSDOF 5
ENDMDL
MODEL 9
REMARK VINA RESULT:      -5.5     18.649     21.010
REMARK  Name = 
REMARK  5 active torsions:
REMARK  status: ('A' for Active; 'I' for Inactive)
REMARK    1  A    between atoms: C_2  and  C_3
REMARK    2  A    between atoms: C_3  and  C_15
REMARK    3  A    between atoms: C_4  and  C_5
REMARK    4  A    between atoms: C_4  and  C_7
REMARK    5  A    between atoms: C_10  and  O_11
REMARK                            x       y       z     vdW  Elec       q    Type
REMARK                         _______ _______ _______ _____ _____    ______ ____
ROOT
ATOM      1  C   UNL     1      30.247  23.653  26.067  0.00  0.00    +0.000 C 
ATOM      2  C   UNL     1      29.862  22.890  27.063  0.00  0.00    +0.000 C 
ENDROOT
BRANCH   1   3
ATOM      3  C   UNL     1      29.448  23.906  24.880  0.00  0.00    +0.000 A 
ATOM      4  C   UNL     1      28.828  25.127  24.761  0.00  0.00    +0.000 A 
ATOM      5  C   UNL     1      28.048  25.442  23.654  0.00  0.00    +0.000 A 
ATOM      6  C   UNL     1      27.888  24.523  22.659  0.00  0.00    +0.000 A 
ATOM      7  O   UNL     1      27.106  24.811  21.529  0.00  0.00    +0.000 OA
ATOM      8  C   UNL     1      28.508  23.303  22.778  0.00  0.00    +0.000 A 
ATOM      9  C   UNL     1      29.294  22.989  23.895  0.00  0.00    +0.000 A 
ENDBRANCH   1   3
BRANCH   2  10
ATOM     10  C   UNL     1      30.720  22.679  28.234  0.00  0.00    +0.000 A 
ATOM     11  C   UNL     1      31.650  21.669  28.244  0.00  0.00    +0.000 A 
ATOM     12  C   UNL     1      32.464  21.452  29.326  0.00  0.00    +0.000 A 
ATOM     13  C   UNL     1      32.358  22.255  30.431  0.00  0.00    +0.000 A 
ATOM     14  C   UNL     1      31.438  23.274  30.448  0.00  0.00    +0.000 A 
ATOM     15  C   UNL     1      30.611  23.497  29.353  0.00  0.00    +0.000 A 
BRANCH  13  16
ATOM     16  O   UNL     1      33.187  22.024  31.514  0.00  0.00    +0.000 OA
ATOM     17  C   UNL     1      33.966  20.869  31.622  0.00  0.00    +0.000 C 
ENDBRANCH  13  16
ENDBRANCH   2  10
BRANCH   1  19
ATOM     18  C   UNL     1      32.404  23.937  24.929  0.00  0.00    +0.000 C 
ATOM     19  C   UNL     1      31.596  24.298  26.175  0.00  0.00    +0.000 C 
ENDBRANCH   1  19
BRANCH   2  20
ATOM     20  C   UNL     1      28.556  22.233  27.017  0.00  0.00    +0.000 C 
ATOM     21  C   UNL     1      27.467  23.001  27.739  0.00  0.00    +0.000 C 
ENDBRANCH   2  20
TORSDOF 5
ENDMDL
MODEL 10
REMARK VINA RESULT:      -5.4     18.535     20.717
REMARK  Name = 
REMARK  5 active torsions:
REMARK  status: ('A' for Active; 'I' for Inactive)
REMARK    1  A    between atoms: C_2  and  C_3
REMARK    2  A    between atoms: C_3  and  C_15
REMARK    3  A    between atoms: C_4  and  C_5
REMARK    4  A    between atoms: C_4  and  C_7
REMARK    5  A    between atoms: C_10  and  O_11
REMARK                            x       y       z     vdW  Elec       q    Type
REMARK                         _______ _______ _______ _____ _____    ______ ____
ROOT
ATOM      1  C   UNL     1      23.893  26.023  26.232  0.00  0.00    +0.000 C 
ATOM      2  C   UNL     1      24.903  25.185  26.230  0.00  0.00    +0.000 C 
ENDROOT
BRANCH   1   3
ATOM      3  C   UNL     1      23.037  26.265  27.381  0.00  0.00    +0.000 A 
ATOM      4  C   UNL     1      21.691  26.017  27.254  0.00  0.00    +0.000 A 
ATOM      5  C   UNL     1      20.810  26.224  28.309  0.00  0.00    +0.000 A 
ATOM      6  C   UNL     1      21.284  26.684  29.502  0.00  0.00    +0.000 A 
ATOM      7  O   UNL     1      20.421  26.904  30.587  0.00  0.00    +0.000 OA
ATOM      8  C   UNL     1      22.629  26.932  29.629  0.00  0.00    +0.000 A 
ATOM      9  C   UNL     1      23.515  26.722  28.563  0.00  0.00    +0.000 A 
ENDBRANCH   1   3
BRANCH   2  10
ATOM     10  C   UNL     1      25.727  24.992  25.033  0.00  0.00    +0.000 A 
ATOM     11  C   UNL     1      25.580  23.867  24.259  0.00  0.00    +0.000 A 
ATOM     12  C   UNL     1      26.337  23.664  23.134  0.00  0.00    +0.000 A 
ATOM     13  C   UNL     1      27.269  24.597  22.763  0.00  0.00    +0.000 A 
ATOM     14  C   UNL     1      27.438  25.731  23.517  0.00  0.00    +0.000 A 
ATOM     15  C   UNL     1      26.671  25.941  24.658  0.00  0.00    +0.000 A 
BRANCH  13  16
ATOM     16  O   UNL     1      28.026  24.377  21.625  0.00  0.00    +0.000 OA
ATOM     17  C   UNL     1      29.139  25.160  21.310  0.00  0.00    +0.000 C 
ENDBRANCH  13  16
ENDBRANCH   2  10
BRANCH   1  19
ATOM     18  C   UNL     1      23.847  28.261  25.222  0.00  0.00    +0.000 C 
ATOM     19  C   UNL     1      23.618  26.772  24.963  0.00  0.00    +0.000 C 
ENDBRANCH   1  19
BRANCH   2  20
ATOM     20  C   UNL     1      25.222  24.425  27.439  0.00  0.00    +0.000 C 
ATOM     21  C   UNL     1      26.599  24.725  27.996  0.00  0.00    +0.000 C 
ENDBRANCH   2  20
TORSDOF 5
ENDMDL
