MODEL 1
REMARK VINA RESULT:      -6.7      0.000      0.000
REMARK  Name = 
REMARK  9 active torsions:
REMARK  status: ('A' for Active; 'I' for Inactive)
REMARK    1  A    between atoms: O_2  and  C_3
REMARK    2  A    between atoms: C_6  and  C_7
REMARK    3  A    between atoms: N_15  and  C_16
REMARK    4  A    between atoms: C_16  and  C_17
REMARK    5  A    between atoms: C_17  and  C_19
REMARK    6  A    between atoms: C_19  and  N_20
REMARK    7  A    between atoms: N_20  and  C_21
REMARK    8  A    between atoms: C_21  and  C_22
REMARK    9  A    between atoms: C_22  and  C_23
REMARK                            x       y       z     vdW  Elec       q    Type
REMARK                         _______ _______ _______ _____ _____    ______ ____
ROOT
ATOM      1  C   UNL     1      38.481   3.352  15.130  0.00  0.00    +0.000 A 
ATOM      2  C   UNL     1      39.468   2.531  14.621  0.00  0.00    +0.000 A 
ATOM      3  C   UNL     1      38.832   1.696  13.720  0.00  0.00    +0.000 A 
ATOM      4  C   UNL     1      39.320   0.673  12.912  0.00  0.00    +0.000 A 
ATOM      5  C   UNL     1      38.465  -0.030  12.081  0.00  0.00    +0.000 A 
ATOM      6  C   UNL     1      37.126   0.298  12.065  0.00  0.00    +0.000 A 
ATOM      7  C   UNL     1      36.631   1.326  12.874  0.00  0.00    +0.000 A 
ATOM      8  C   UNL     1      37.483   2.034  13.709  0.00  0.00    +0.000 A 
ATOM      9  N   UNL     1      37.297   3.041  14.575  0.00  0.00    +0.000 N 
ENDROOT
BRANCH   1  13
ATOM     10  C   UNL     1      39.178   6.468  17.974  0.00  0.00    +0.000 A 
ATOM     11  C   UNL     1      38.678   5.244  18.357  0.00  0.00    +0.000 A 
ATOM     12  C   UNL     1      38.441   4.209  17.451  0.00  0.00    +0.000 A 
ATOM     13  C   UNL     1      38.711   4.395  16.116  0.00  0.00    +0.000 A 
ATOM     14  C   UNL     1      39.211   5.618  15.727  0.00  0.00    +0.000 A 
ATOM     15  C   UNL     1      39.443   6.640  16.621  0.00  0.00    +0.000 A 
BRANCH  10  17
ATOM     16  C   UNL     1      39.292   7.399  20.244  0.00  0.00    +0.000 C 
ATOM     17  O   UNL     1      39.426   7.517  18.840  0.00  0.00    +0.000 OA
ENDBRANCH  10  17
ENDBRANCH   1  13
BRANCH   9  18
ATOM     18  C   UNL     1      36.079   3.729  14.905  0.00  0.00    +0.000 C 
BRANCH  18  19
ATOM     19  C   UNL     1      34.947   2.503  15.057  0.00  0.00    +0.000 C 
ATOM     20  O   UNL     1      33.868   3.517  15.542  0.00  0.00    +0.000 OA
BRANCH  19  21
ATOM     21  C   UNL     1      35.420   2.219  16.657  0.00  0.00    +0.000 C 
BRANCH  21  22
ATOM     22  N   UNL     1      34.569   1.143  17.076  0.00  0.00    +0.000 NA
BRANCH  22  23
ATOM     23  C   UNL     1      35.077  -0.171  16.694  0.00  0.00    +0.000 C 
BRANCH  23  24
ATOM     24  C   UNL     1      36.600  -0.014  16.742  0.00  0.00    +0.000 C 
BRANCH  24  25
ATOM     25  C   UNL     1      37.218  -1.076  15.862  0.00  0.00    +0.000 A 
ATOM     26  C   UNL     1      36.409  -1.777  15.014  0.00  0.00    +0.000 A 
ATOM     27  C   UNL     1      36.943  -2.750  14.204  0.00  0.00    +0.000 A 
ATOM     28  C   UNL     1      38.286  -3.046  14.217  0.00  0.00    +0.000 A 
ATOM     29  C   UNL     1      39.068  -2.320  15.082  0.00  0.00    +0.000 A 
ATOM     30  C   UNL     1      38.555  -1.341  15.903  0.00  0.00    +0.000 A 
ENDBRANCH  24  25
ENDBRANCH  23  24
ENDBRANCH  22  23
ENDBRANCH  21  22
ENDBRANCH  19  21
ENDBRANCH  18  19
ENDBRANCH   9  18
TORSDOF 9
ENDMDL
MODEL 2
REMARK VINA RESULT:      -6.6      2.485      4.661
REMARK  Name = 
REMARK  9 active torsions:
REMARK  status: ('A' for Active; 'I' for Inactive)
REMARK    1  A    between atoms: O_2  and  C_3
REMARK    2  A    between atoms: C_6  and  C_7
REMARK    3  A    between atoms: N_15  and  C_16
REMARK    4  A    between atoms: C_16  and  C_17
REMARK    5  A    between atoms: C_17  and  C_19
REMARK    6  A    between atoms: C_19  and  N_20
REMARK    7  A    between atoms: N_20  and  C_21
REMARK    8  A    between atoms: C_21  and  C_22
REMARK    9  A    between atoms: C_22  and  C_23
REMARK                            x       y       z     vdW  Elec       q    Type
REMARK                         _______ _______ _______ _____ _____    ______ ____
ROOT
ATOM      1  C   UNL     1      35.954   1.635  15.461  0.00  0.00    +0.000 A 
ATOM      2  C   UNL     1      35.367   1.179  16.625  0.00  0.00    +0.000 A 
ATOM      3  C   UNL     1      35.318  -0.198  16.504  0.00  0.00    +0.000 A 
ATOM      4  C   UNL     1      34.834  -1.179  17.365  0.00  0.00    +0.000 A 
ATOM      5  C   UNL     1      34.899  -2.516  17.009  0.00  0.00    +0.000 A 
ATOM      6  C   UNL     1      35.450  -2.859  15.792  0.00  0.00    +0.000 A 
ATOM      7  C   UNL     1      35.939  -1.876  14.925  0.00  0.00    +0.000 A 
ATOM      8  C   UNL     1      35.876  -0.536  15.276  0.00  0.00    +0.000 A 
ATOM      9  N   UNL     1      36.253   0.596  14.663  0.00  0.00    +0.000 N 
ENDROOT
BRANCH   1  13
ATOM     10  C   UNL     1      36.637   5.758  14.555  0.00  0.00    +0.000 A 
ATOM     11  C   UNL     1      37.541   5.024  15.288  0.00  0.00    +0.000 A 
ATOM     12  C   UNL     1      37.345   3.678  15.599  0.00  0.00    +0.000 A 
ATOM     13  C   UNL     1      36.209   3.036  15.165  0.00  0.00    +0.000 A 
ATOM     14  C   UNL     1      35.300   3.765  14.431  0.00  0.00    +0.000 A 
ATOM     15  C   UNL     1      35.494   5.095  14.126  0.00  0.00    +0.000 A 
BRANCH  10  17
ATOM     16  C   UNL     1      35.756   7.868  13.659  0.00  0.00    +0.000 C 
ATOM     17  O   UNL     1      36.794   7.092  14.227  0.00  0.00    +0.000 OA
ENDBRANCH  10  17
ENDBRANCH   1  13
BRANCH   9  18
ATOM     18  C   UNL     1      36.880   0.756  13.380  0.00  0.00    +0.000 C 
BRANCH  18  19
ATOM     19  C   UNL     1      38.517   0.613  13.705  0.00  0.00    +0.000 C 
ATOM     20  O   UNL     1      38.842   1.806  12.756  0.00  0.00    +0.000 OA
BRANCH  19  21
ATOM     21  C   UNL     1      38.711  -0.477  12.425  0.00  0.00    +0.000 C 
BRANCH  21  22
ATOM     22  N   UNL     1      39.103  -1.695  13.073  0.00  0.00    +0.000 NA
BRANCH  22  23
ATOM     23  C   UNL     1      39.704  -1.477  14.385  0.00  0.00    +0.000 C 
BRANCH  23  24
ATOM     24  C   UNL     1      39.910  -2.888  14.944  0.00  0.00    +0.000 C 
BRANCH  24  25
ATOM     25  C   UNL     1      39.251  -2.965  16.302  0.00  0.00    +0.000 A 
ATOM     26  C   UNL     1      38.920  -1.802  16.938  0.00  0.00    +0.000 A 
ATOM     27  C   UNL     1      38.322  -1.841  18.174  0.00  0.00    +0.000 A 
ATOM     28  C   UNL     1      38.040  -3.031  18.804  0.00  0.00    +0.000 A 
ATOM     29  C   UNL     1      38.387  -4.179  18.135  0.00  0.00    +0.000 A 
ATOM     30  C   UNL     1      38.986  -4.163  16.895  0.00  0.00    +0.000 A 
ENDBRANCH  24  25
ENDBRANCH  23  24
ENDBRANCH  22  23
ENDBRANCH  21  22
ENDBRANCH  19  21
ENDBRANCH  18  19
ENDBRANCH   9  18
TORSDOF 9
ENDMDL
MODEL 3
REMARK VINA RESULT:      -6.5     22.881     26.305
REMARK  Name = 
REMARK  9 active torsions:
REMARK  status: ('A' for Active; 'I' for Inactive)
REMARK    1  A    between atoms: O_2  and  C_3
REMARK    2  A    between atoms: C_6  and  C_7
REMARK    3  A    between atoms: N_15  and  C_16
REMARK    4  A    between atoms: C_16  and  C_17
REMARK    5  A    between atoms: C_17  and  C_19
REMARK    6  A    between atoms: C_19  and  N_20
REMARK    7  A    between atoms: N_20  and  C_21
REMARK    8  A    between atoms: C_21  and  C_22
REMARK    9  A    between atoms: C_22  and  C_23
REMARK                            x       y       z     vdW  Elec       q    Type
REMARK                         _______ _______ _______ _____ _____    ______ ____
ROOT
ATOM      1  C   UNL     1      12.084  -0.398  27.406  0.00  0.00    +0.000 A 
ATOM      2  C   UNL     1      10.899   0.166  26.980  0.00  0.00    +0.000 A 
ATOM      3  C   UNL     1      11.144   1.524  26.880  0.00  0.00    +0.000 A 
ATOM      4  C   UNL     1      10.323   2.581  26.500  0.00  0.00    +0.000 A 
ATOM      5  C   UNL     1      10.813   3.876  26.482  0.00  0.00    +0.000 A 
ATOM      6  C   UNL     1      12.124   4.102  26.845  0.00  0.00    +0.000 A 
ATOM      7  C   UNL     1      12.953   3.042  27.226  0.00  0.00    +0.000 A 
ATOM      8  C   UNL     1      12.468   1.742  27.246  0.00  0.00    +0.000 A 
ATOM      9  N   UNL     1      13.015   0.559  27.561  0.00  0.00    +0.000 N 
ENDROOT
BRANCH   1  13
ATOM     10  C   UNL     1      12.671  -4.589  28.019  0.00  0.00    +0.000 A 
ATOM     11  C   UNL     1      12.398  -3.741  29.067  0.00  0.00    +0.000 A 
ATOM     12  C   UNL     1      12.202  -2.370  28.897  0.00  0.00    +0.000 A 
ATOM     13  C   UNL     1      12.279  -1.820  27.639  0.00  0.00    +0.000 A 
ATOM     14  C   UNL     1      12.552  -2.664  26.586  0.00  0.00    +0.000 A 
ATOM     15  C   UNL     1      12.747  -4.017  26.755  0.00  0.00    +0.000 A 
BRANCH  10  17
ATOM     16  C   UNL     1      12.639  -6.861  27.088  0.00  0.00    +0.000 C 
ATOM     17  O   UNL     1      12.872  -5.951  28.146  0.00  0.00    +0.000 OA
ENDBRANCH  10  17
ENDBRANCH   1  13
BRANCH   9  18
ATOM     18  C   UNL     1      14.357   0.277  27.993  0.00  0.00    +0.000 C 
BRANCH  18  19
ATOM     19  C   UNL     1      15.313   0.812  26.726  0.00  0.00    +0.000 C 
ATOM     20  O   UNL     1      15.148  -0.550  25.985  0.00  0.00    +0.000 OA
BRANCH  19  21
ATOM     21  C   UNL     1      16.709   0.240  27.494  0.00  0.00    +0.000 C 
BRANCH  21  22
ATOM     22  N   UNL     1      17.775   0.891  26.788  0.00  0.00    +0.000 NA
BRANCH  22  23
ATOM     23  C   UNL     1      18.331   0.075  25.714  0.00  0.00    +0.000 C 
BRANCH  23  24
ATOM     24  C   UNL     1      19.073   1.077  24.824  0.00  0.00    +0.000 C 
BRANCH  24  25
ATOM     25  C   UNL     1      19.649   0.332  23.643  0.00  0.00    +0.000 A 
ATOM     26  C   UNL     1      19.810  -1.021  23.735  0.00  0.00    +0.000 A 
ATOM     27  C   UNL     1      20.334  -1.725  22.678  0.00  0.00    +0.000 A 
ATOM     28  C   UNL     1      20.709  -1.102  21.510  0.00  0.00    +0.000 A 
ATOM     29  C   UNL     1      20.532   0.259  21.453  0.00  0.00    +0.000 A 
ATOM     30  C   UNL     1      20.009   0.983  22.500  0.00  0.00    +0.000 A 
ENDBRANCH  24  25
ENDBRANCH  23  24
ENDBRANCH  22  23
ENDBRANCH  21  22
ENDBRANCH  19  21
ENDBRANCH  18  19
ENDBRANCH   9  18
TORSDOF 9
ENDMDL
MODEL 4
REMARK VINA RESULT:      -6.5      3.081      7.720
REMARK  Name = 
REMARK  9 active torsions:
REMARK  status: ('A' for Active; 'I' for Inactive)
REMARK    1  A    between atoms: O_2  and  C_3
REMARK    2  A    between atoms: C_6  and  C_7
REMARK    3  A    between atoms: N_15  and  C_16
REMARK    4  A    between atoms: C_16  and  C_17
REMARK    5  A    between atoms: C_17  and  C_19
REMARK    6  A    between atoms: C_19  and  N_20
REMARK    7  A    between atoms: N_20  and  C_21
REMARK    8  A    between atoms: C_21  and  C_22
REMARK    9  A    between atoms: C_22  and  C_23
REMARK                            x       y       z     vdW  Elec       q    Type
REMARK                         _______ _______ _______ _____ _____    ______ ____
ROOT
ATOM      1  C   UNL     1      37.984  -1.783  14.822  0.00  0.00    +0.000 A 
ATOM      2  C   UNL     1      37.098  -2.744  15.266  0.00  0.00    +0.000 A 
ATOM      3  C   UNL     1      36.129  -2.060  15.977  0.00  0.00    +0.000 A 
ATOM      4  C   UNL     1      34.994  -2.506  16.647  0.00  0.00    +0.000 A 
ATOM      5  C   UNL     1      34.165  -1.606  17.296  0.00  0.00    +0.000 A 
ATOM      6  C   UNL     1      34.480  -0.265  17.268  0.00  0.00    +0.000 A 
ATOM      7  C   UNL     1      35.620   0.189  16.594  0.00  0.00    +0.000 A 
ATOM      8  C   UNL     1      36.453  -0.708  15.942  0.00  0.00    +0.000 A 
ATOM      9  N   UNL     1      37.585  -0.568  15.236  0.00  0.00    +0.000 N 
ENDROOT
BRANCH   1  13
ATOM     10  C   UNL     1      41.499  -2.606  12.530  0.00  0.00    +0.000 A 
ATOM     11  C   UNL     1      40.263  -2.493  11.936  0.00  0.00    +0.000 A 
ATOM     12  C   UNL     1      39.100  -2.226  12.658  0.00  0.00    +0.000 A 
ATOM     13  C   UNL     1      39.165  -2.062  14.022  0.00  0.00    +0.000 A 
ATOM     14  C   UNL     1      40.399  -2.173  14.623  0.00  0.00    +0.000 A 
ATOM     15  C   UNL     1      41.548  -2.439  13.909  0.00  0.00    +0.000 A 
BRANCH  10  17
ATOM     16  C   UNL     1      43.760  -3.559  12.441  0.00  0.00    +0.000 C 
ATOM     17  O   UNL     1      42.674  -2.871  11.851  0.00  0.00    +0.000 OA
ENDBRANCH  10  17
ENDBRANCH   1  13
BRANCH   9  18
ATOM     18  C   UNL     1      38.305   0.636  14.924  0.00  0.00    +0.000 C 
BRANCH  18  19
ATOM     19  C   UNL     1      37.475   1.282  13.620  0.00  0.00    +0.000 C 
ATOM     20  O   UNL     1      38.807   1.776  12.977  0.00  0.00    +0.000 OA
BRANCH  19  21
ATOM     21  C   UNL     1      37.297   2.761  14.422  0.00  0.00    +0.000 C 
BRANCH  21  22
ATOM     22  N   UNL     1      38.472   2.848  15.240  0.00  0.00    +0.000 NA
BRANCH  22  23
ATOM     23  C   UNL     1      38.900   4.222  15.481  0.00  0.00    +0.000 C 
BRANCH  23  24
ATOM     24  C   UNL     1      38.325   4.560  16.860  0.00  0.00    +0.000 C 
BRANCH  24  25
ATOM     25  C   UNL     1      39.365   5.336  17.635  0.00  0.00    +0.000 A 
ATOM     26  C   UNL     1      40.484   5.768  16.981  0.00  0.00    +0.000 A 
ATOM     27  C   UNL     1      41.447   6.473  17.660  0.00  0.00    +0.000 A 
ATOM     28  C   UNL     1      41.322   6.764  18.998  0.00  0.00    +0.000 A 
ATOM     29  C   UNL     1      40.184   6.313  19.622  0.00  0.00    +0.000 A 
ATOM     30  C   UNL     1      39.206   5.606  18.961  0.00  0.00    +0.000 A 
ENDBRANCH  24  25
ENDBRANCH  23  24
ENDBRANCH  22  23
ENDBRANCH  21  22
ENDBRANCH  19  21
ENDBRANCH  18  19
ENDBRANCH   9  18
TORSDOF 9
ENDMDL
MODEL 5
REMARK VINA RESULT:      -6.4      2.810      7.624
REMARK  Name = 
REMARK  9 active torsions:
REMARK  status: ('A' for Active; 'I' for Inactive)
REMARK    1  A    between atoms: O_2  and  C_3
REMARK    2  A    between atoms: C_6  and  C_7
REMARK    3  A    between atoms: N_15  and  C_16
REMARK    4  A    between atoms: C_16  and  C_17
REMARK    5  A    between atoms: C_17  and  C_19
REMARK    6  A    between atoms: C_19  and  N_20
REMARK    7  A    between atoms: N_20  and  C_21
REMARK    8  A    between atoms: C_21  and  C_22
REMARK    9  A    between atoms: C_22  and  C_23
REMARK                            x       y       z     vdW  Elec       q    Type
REMARK                         _______ _______ _______ _____ _____    ______ ____
ROOT
ATOM      1  C   UNL     1      38.556  -1.442  15.556  0.00  0.00    +0.000 A 
ATOM      2  C   UNL     1      38.905  -2.114  16.710  0.00  0.00    +0.000 A 
ATOM      3  C   UNL     1      37.962  -1.751  17.655  0.00  0.00    +0.000 A 
ATOM      4  C   UNL     1      37.810  -2.116  18.989  0.00  0.00    +0.000 A 
ATOM      5  C   UNL     1      36.764  -1.606  19.739  0.00  0.00    +0.000 A 
ATOM      6  C   UNL     1      35.876  -0.734  19.145  0.00  0.00    +0.000 A 
ATOM      7  C   UNL     1      36.024  -0.366  17.803  0.00  0.00    +0.000 A 
ATOM      8  C   UNL     1      37.071  -0.874  17.047  0.00  0.00    +0.000 A 
ATOM      9  N   UNL     1      37.455  -0.703  15.774  0.00  0.00    +0.000 N 
ENDROOT
BRANCH   1  13
ATOM     10  C   UNL     1      40.640  -1.779  11.838  0.00  0.00    +0.000 A 
ATOM     11  C   UNL     1      41.007  -0.852  12.786  0.00  0.00    +0.000 A 
ATOM     12  C   UNL     1      40.345  -0.719  14.007  0.00  0.00    +0.000 A 
ATOM     13  C   UNL     1      39.281  -1.538  14.299  0.00  0.00    +0.000 A 
ATOM     14  C   UNL     1      38.909  -2.469  13.355  0.00  0.00    +0.000 A 
ATOM     15  C   UNL     1      39.561  -2.598  12.148  0.00  0.00    +0.000 A 
BRANCH  10  17
ATOM     16  C   UNL     1      40.570  -1.912   9.387  0.00  0.00    +0.000 C 
ATOM     17  O   UNL     1      41.269  -1.941  10.617  0.00  0.00    +0.000 OA
ENDBRANCH  10  17
ENDBRANCH   1  13
BRANCH   9  18
ATOM     18  C   UNL     1      36.847   0.107  14.753  0.00  0.00    +0.000 C 
BRANCH  18  19
ATOM     19  C   UNL     1      36.763   1.633  15.440  0.00  0.00    +0.000 C 
ATOM     20  O   UNL     1      35.810   2.124  14.308  0.00  0.00    +0.000 OA
BRANCH  19  21
ATOM     21  C   UNL     1      38.108   2.144  14.548  0.00  0.00    +0.000 C 
BRANCH  21  22
ATOM     22  N   UNL     1      38.872   2.906  15.493  0.00  0.00    +0.000 NA
BRANCH  22  23
ATOM     23  C   UNL     1      38.776   4.347  15.276  0.00  0.00    +0.000 C 
BRANCH  23  24
ATOM     24  C   UNL     1      38.164   4.883  16.574  0.00  0.00    +0.000 C 
BRANCH  24  25
ATOM     25  C   UNL     1      39.274   5.453  17.426  0.00  0.00    +0.000 A 
ATOM     26  C   UNL     1      40.416   5.886  16.813  0.00  0.00    +0.000 A 
ATOM     27  C   UNL     1      41.443   6.406  17.563  0.00  0.00    +0.000 A 
ATOM     28  C   UNL     1      41.359   6.508  18.932  0.00  0.00    +0.000 A 
ATOM     29  C   UNL     1      40.197   6.063  19.513  0.00  0.00    +0.000 A 
ATOM     30  C   UNL     1      39.155   5.539  18.781  0.00  0.00    +0.000 A 
ENDBRANCH  24  25
ENDBRANCH  23  24
ENDBRANCH  22  23
ENDBRANCH  21  22
ENDBRANCH  19  21
ENDBRANCH  18  19
ENDBRANCH   9  18
TORSDOF 9
ENDMDL
MODEL 6
REMARK VINA RESULT:      -6.2      2.299      6.213
REMARK  Name = 
REMARK  9 active torsions:
REMARK  status: ('A' for Active; 'I' for Inactive)
REMARK    1  A    between atoms: O_2  and  C_3
REMARK    2  A    between atoms: C_6  and  C_7
REMARK    3  A    between atoms: N_15  and  C_16
REMARK    4  A    between atoms: C_16  and  C_17
REMARK    5  A    between atoms: C_17  and  C_19
REMARK    6  A    between atoms: C_19  and  N_20
REMARK    7  A    between atoms: N_20  and  C_21
REMARK    8  A    between atoms: C_21  and  C_22
REMARK    9  A    between atoms: C_22  and  C_23
REMARK                            x       y       z     vdW  Elec       q    Type
REMARK                         _______ _______ _______ _____ _____    ______ ____
ROOT
ATOM      1  C   UNL     1      38.457   0.316  14.812  0.00  0.00    +0.000 A 
ATOM      2  C   UNL     1      39.389  -0.673  15.053  0.00  0.00    +0.000 A 
ATOM      3  C   UNL     1      38.779  -1.560  15.921  0.00  0.00    +0.000 A 
ATOM      4  C   UNL     1      39.236  -2.738  16.503  0.00  0.00    +0.000 A 
ATOM      5  C   UNL     1      38.417  -3.461  17.355  0.00  0.00    +0.000 A 
ATOM      6  C   UNL     1      37.146  -2.998  17.617  0.00  0.00    +0.000 A 
ATOM      7  C   UNL     1      36.682  -1.814  17.033  0.00  0.00    +0.000 A 
ATOM      8  C   UNL     1      37.497  -1.086  16.179  0.00  0.00    +0.000 A 
ATOM      9  N   UNL     1      37.328   0.055  15.494  0.00  0.00    +0.000 N 
ENDROOT
BRANCH   1  13
ATOM     10  C   UNL     1      39.158   3.706  12.302  0.00  0.00    +0.000 A 
ATOM     11  C   UNL     1      38.334   2.677  11.907  0.00  0.00    +0.000 A 
ATOM     12  C   UNL     1      38.087   1.559  12.705  0.00  0.00    +0.000 A 
ATOM     13  C   UNL     1      38.679   1.459  13.941  0.00  0.00    +0.000 A 
ATOM     14  C   UNL     1      39.505   2.485  14.343  0.00  0.00    +0.000 A 
ATOM     15  C   UNL     1      39.749   3.588  13.554  0.00  0.00    +0.000 A 
BRANCH  10  17
ATOM     16  C   UNL     1      39.754   6.080  12.115  0.00  0.00    +0.000 C 
ATOM     17  O   UNL     1      39.428   4.828  11.541  0.00  0.00    +0.000 OA
ENDBRANCH  10  17
ENDBRANCH   1  13
BRANCH   9  18
ATOM     18  C   UNL     1      36.171   0.906  15.439  0.00  0.00    +0.000 C 
BRANCH  18  19
ATOM     19  C   UNL     1      36.064   1.549  16.982  0.00  0.00    +0.000 C 
ATOM     20  O   UNL     1      34.558   1.890  16.770  0.00  0.00    +0.000 OA
BRANCH  19  21
ATOM     21  C   UNL     1      36.505   3.081  16.411  0.00  0.00    +0.000 C 
BRANCH  21  22
ATOM     22  N   UNL     1      37.750   3.343  17.073  0.00  0.00    +0.000 NA
BRANCH  22  23
ATOM     23  C   UNL     1      38.151   4.745  17.001  0.00  0.00    +0.000 C 
BRANCH  23  24
ATOM     24  C   UNL     1      38.553   5.096  18.437  0.00  0.00    +0.000 C 
BRANCH  24  25
ATOM     25  C   UNL     1      39.925   5.729  18.409  0.00  0.00    +0.000 A 
ATOM     26  C   UNL     1      40.535   5.917  17.201  0.00  0.00    +0.000 A 
ATOM     27  C   UNL     1      41.784   6.487  17.144  0.00  0.00    +0.000 A 
ATOM     28  C   UNL     1      42.451   6.883  18.281  0.00  0.00    +0.000 A 
ATOM     29  C   UNL     1      41.805   6.678  19.476  0.00  0.00    +0.000 A 
ATOM     30  C   UNL     1      40.554   6.109  19.556  0.00  0.00    +0.000 A 
ENDBRANCH  24  25
ENDBRANCH  23  24
ENDBRANCH  22  23
ENDBRANCH  21  22
ENDBRANCH  19  21
ENDBRANCH  18  19
ENDBRANCH   9  18
TORSDOF 9
ENDMDL
MODEL 7
REMARK VINA RESULT:      -6.1      2.525      6.686
REMARK  Name = 
REMARK  9 active torsions:
REMARK  status: ('A' for Active; 'I' for Inactive)
REMARK    1  A    between atoms: O_2  and  C_3
REMARK    2  A    between atoms: C_6  and  C_7
REMARK    3  A    between atoms: N_15  and  C_16
REMARK    4  A    between atoms: C_16  and  C_17
REMARK    5  A    between atoms: C_17  and  C_19
REMARK    6  A    between atoms: C_19  and  N_20
REMARK    7  A    between atoms: N_20  and  C_21
REMARK    8  A    between atoms: C_21  and  C_22
REMARK    9  A    between atoms: C_22  and  C_23
REMARK                            x       y       z     vdW  Elec       q    Type
REMARK                         _______ _______ _______ _____ _____    ______ ____
ROOT
ATOM      1  C   UNL     1      37.257   0.870  13.471  0.00  0.00    +0.000 A 
ATOM      2  C   UNL     1      36.979   0.417  12.197  0.00  0.00    +0.000 A 
ATOM      3  C   UNL     1      37.178   1.502  11.362  0.00  0.00    +0.000 A 
ATOM      4  C   UNL     1      37.050   1.636   9.983  0.00  0.00    +0.000 A 
ATOM      5  C   UNL     1      37.310   2.851   9.370  0.00  0.00    +0.000 A 
ATOM      6  C   UNL     1      37.699   3.922  10.146  0.00  0.00    +0.000 A 
ATOM      7  C   UNL     1      37.830   3.791  11.533  0.00  0.00    +0.000 A 
ATOM      8  C   UNL     1      37.571   2.577  12.151  0.00  0.00    +0.000 A 
ATOM      9  N   UNL     1      37.610   2.166  13.427  0.00  0.00    +0.000 N 
ENDROOT
BRANCH   1  13
ATOM     10  C   UNL     1      37.105  -1.562  16.984  0.00  0.00    +0.000 A 
ATOM     11  C   UNL     1      36.008  -0.852  16.554  0.00  0.00    +0.000 A 
ATOM     12  C   UNL     1      36.029  -0.050  15.412  0.00  0.00    +0.000 A 
ATOM     13  C   UNL     1      37.181   0.049  14.668  0.00  0.00    +0.000 A 
ATOM     14  C   UNL     1      38.282  -0.660  15.093  0.00  0.00    +0.000 A 
ATOM     15  C   UNL     1      38.261  -1.450  16.222  0.00  0.00    +0.000 A 
BRANCH  10  17
ATOM     16  C   UNL     1      37.492  -1.883  19.388  0.00  0.00    +0.000 C 
ATOM     17  O   UNL     1      37.125  -2.366  18.109  0.00  0.00    +0.000 OA
ENDBRANCH  10  17
ENDBRANCH   1  13
BRANCH   9  18
ATOM     18  C   UNL     1      37.962   2.916  14.602  0.00  0.00    +0.000 C 
BRANCH  18  19
ATOM     19  C   UNL     1      36.508   3.563  15.125  0.00  0.00    +0.000 C 
ATOM     20  O   UNL     1      37.087   5.008  15.048  0.00  0.00    +0.000 OA
BRANCH  19  21
ATOM     21  C   UNL     1      36.995   3.438  16.741  0.00  0.00    +0.000 C 
BRANCH  21  22
ATOM     22  N   UNL     1      38.268   4.099  16.764  0.00  0.00    +0.000 NA
BRANCH  22  23
ATOM     23  C   UNL     1      38.639   4.581  18.090  0.00  0.00    +0.000 C 
BRANCH  23  24
ATOM     24  C   UNL     1      39.039   6.042  17.862  0.00  0.00    +0.000 C 
BRANCH  24  25
ATOM     25  C   UNL     1      40.406   6.263  18.467  0.00  0.00    +0.000 A 
ATOM     26  C   UNL     1      40.528   6.271  19.828  0.00  0.00    +0.000 A 
ATOM     27  C   UNL     1      41.758   6.472  20.406  0.00  0.00    +0.000 A 
ATOM     28  C   UNL     1      42.890   6.669  19.649  0.00  0.00    +0.000 A 
ATOM     29  C   UNL     1      42.728   6.654  18.285  0.00  0.00    +0.000 A 
ATOM     30  C   UNL     1      41.506   6.454  17.685  0.00  0.00    +0.000 A 
ENDBRANCH  24  25
ENDBRANCH  23  24
ENDBRANCH  22  23
ENDBRANCH  21  22
ENDBRANCH  19  21
ENDBRANCH  18  19
ENDBRANCH   9  18
TORSDOF 9
ENDMDL
MODEL 8
REMARK VINA RESULT:      -6.0      2.744      8.366
REMARK  Name = 
REMARK  9 active torsions:
REMARK  status: ('A' for Active; 'I' for Inactive)
REMARK    1  A    between atoms: O_2  and  C_3
REMARK    2  A    between atoms: C_6  and  C_7
REMARK    3  A    between atoms: N_15  and  C_16
REMARK    4  A    between atoms: C_16  and  C_17
REMARK    5  A    between atoms: C_17  and  C_19
REMARK    6  A    between atoms: C_19  and  N_20
REMARK    7  A    between atoms: N_20  and  C_21
REMARK    8  A    between atoms: C_21  and  C_22
REMARK    9  A    between atoms: C_22  and  C_23
REMARK                            x       y       z     vdW  Elec       q    Type
REMARK                         _______ _______ _______ _____ _____    ______ ____
ROOT
ATOM      1  C   UNL     1      38.478   5.444  17.299  0.00  0.00    +0.000 A 
ATOM      2  C   UNL     1      39.017   5.380  18.568  0.00  0.00    +0.000 A 
ATOM      3  C   UNL     1      39.030   6.681  19.037  0.00  0.00    +0.000 A 
ATOM      4  C   UNL     1      39.459   7.218  20.246  0.00  0.00    +0.000 A 
ATOM      5  C   UNL     1      39.366   8.580  20.480  0.00  0.00    +0.000 A 
ATOM      6  C   UNL     1      38.841   9.394  19.498  0.00  0.00    +0.000 A 
ATOM      7  C   UNL     1      38.407   8.858  18.281  0.00  0.00    +0.000 A 
ATOM      8  C   UNL     1      38.498   7.494  18.042  0.00  0.00    +0.000 A 
ATOM      9  N   UNL     1      38.172   6.718  16.998  0.00  0.00    +0.000 N 
ENDROOT
BRANCH   1  13
ATOM     10  C   UNL     1      37.806   2.049  14.788  0.00  0.00    +0.000 A 
ATOM     11  C   UNL     1      38.965   2.787  14.705  0.00  0.00    +0.000 A 
ATOM     12  C   UNL     1      39.211   3.899  15.511  0.00  0.00    +0.000 A 
ATOM     13  C   UNL     1      38.272   4.293  16.435  0.00  0.00    +0.000 A 
ATOM     14  C   UNL     1      37.111   3.559  16.523  0.00  0.00    +0.000 A 
ATOM     15  C   UNL     1      36.867   2.462  15.726  0.00  0.00    +0.000 A 
BRANCH  10  17
ATOM     16  C   UNL     1      37.032  -0.269  14.548  0.00  0.00    +0.000 C 
ATOM     17  O   UNL     1      37.524   0.943  14.008  0.00  0.00    +0.000 OA
ENDBRANCH  10  17
ENDBRANCH   1  13
BRANCH   9  18
ATOM     18  C   UNL     1      37.588   7.102  15.741  0.00  0.00    +0.000 C 
BRANCH  18  19
ATOM     19  C   UNL     1      38.714   8.144  15.069  0.00  0.00    +0.000 C 
ATOM     20  O   UNL     1      37.611   8.832  14.209  0.00  0.00    +0.000 OA
BRANCH  19  21
ATOM     21  C   UNL     1      39.029   7.050  13.816  0.00  0.00    +0.000 C 
BRANCH  21  22
ATOM     22  N   UNL     1      40.445   6.839  13.898  0.00  0.00    +0.000 NA
BRANCH  22  23
ATOM     23  C   UNL     1      41.079   7.616  14.958  0.00  0.00    +0.000 C 
BRANCH  23  24
ATOM     24  C   UNL     1      41.750   6.565  15.847  0.00  0.00    +0.000 C 
BRANCH  24  25
ATOM     25  C   UNL     1      42.157   7.226  17.144  0.00  0.00    +0.000 A 
ATOM     26  C   UNL     1      42.047   8.583  17.252  0.00  0.00    +0.000 A 
ATOM     27  C   UNL     1      42.412   9.212  18.417  0.00  0.00    +0.000 A 
ATOM     28  C   UNL     1      42.893   8.509  19.498  0.00  0.00    +0.000 A 
ATOM     29  C   UNL     1      42.989   7.147  19.353  0.00  0.00    +0.000 A 
ATOM     30  C   UNL     1      42.629   6.496  18.194  0.00  0.00    +0.000 A 
ENDBRANCH  24  25
ENDBRANCH  23  24
ENDBRANCH  22  23
ENDBRANCH  21  22
ENDBRANCH  19  21
ENDBRANCH  18  19
ENDBRANCH   9  18
TORSDOF 9
ENDMDL
MODEL 9
REMARK VINA RESULT:      -6.0      2.719      7.126
REMARK  Name = 
REMARK  9 active torsions:
REMARK  status: ('A' for Active; 'I' for Inactive)
REMARK    1  A    between atoms: O_2  and  C_3
REMARK    2  A    between atoms: C_6  and  C_7
REMARK    3  A    between atoms: N_15  and  C_16
REMARK    4  A    between atoms: C_16  and  C_17
REMARK    5  A    between atoms: C_17  and  C_19
REMARK    6  A    between atoms: C_19  and  N_20
REMARK    7  A    between atoms: N_20  and  C_21
REMARK    8  A    between atoms: C_21  and  C_22
REMARK    9  A    between atoms: C_22  and  C_23
REMARK                            x       y       z     vdW  Elec       q    Type
REMARK                         _______ _______ _______ _____ _____    ______ ____
ROOT
ATOM      1  C   UNL     1      35.463   3.888  14.502  0.00  0.00    +0.000 A 
ATOM      2  C   UNL     1      34.361   4.686  14.731  0.00  0.00    +0.000 A 
ATOM      3  C   UNL     1      34.506   5.776  13.891  0.00  0.00    +0.000 A 
ATOM      4  C   UNL     1      33.704   6.896  13.692  0.00  0.00    +0.000 A 
ATOM      5  C   UNL     1      34.074   7.867  12.776  0.00  0.00    +0.000 A 
ATOM      6  C   UNL     1      35.245   7.706  12.065  0.00  0.00    +0.000 A 
ATOM      7  C   UNL     1      36.053   6.581  12.262  0.00  0.00    +0.000 A 
ATOM      8  C   UNL     1      35.687   5.606  13.178  0.00  0.00    +0.000 A 
ATOM      9  N   UNL     1      36.249   4.452  13.569  0.00  0.00    +0.000 N 
ENDROOT
BRANCH   1  13
ATOM     10  C   UNL     1      36.196   0.205  16.547  0.00  0.00    +0.000 A 
ATOM     11  C   UNL     1      36.168   0.271  15.173  0.00  0.00    +0.000 A 
ATOM     12  C   UNL     1      35.931   1.458  14.479  0.00  0.00    +0.000 A 
ATOM     13  C   UNL     1      35.715   2.624  15.175  0.00  0.00    +0.000 A 
ATOM     14  C   UNL     1      35.743   2.565  16.550  0.00  0.00    +0.000 A 
ATOM     15  C   UNL     1      35.975   1.392  17.235  0.00  0.00    +0.000 A 
BRANCH  10  17
ATOM     16  C   UNL     1      36.232  -1.027  18.671  0.00  0.00    +0.000 C 
ATOM     17  O   UNL     1      36.427  -0.950  17.272  0.00  0.00    +0.000 OA
ENDBRANCH  10  17
ENDBRANCH   1  13
BRANCH   9  18
ATOM     18  C   UNL     1      37.473   3.850  13.115  0.00  0.00    +0.000 C 
BRANCH  18  19
ATOM     19  C   UNL     1      38.672   4.798  13.799  0.00  0.00    +0.000 C 
ATOM     20  O   UNL     1      39.560   4.651  12.526  0.00  0.00    +0.000 OA
BRANCH  19  21
ATOM     21  C   UNL     1      39.405   3.435  14.485  0.00  0.00    +0.000 C 
BRANCH  21  22
ATOM     22  N   UNL     1      39.025   3.505  15.867  0.00  0.00    +0.000 NA
BRANCH  22  23
ATOM     23  C   UNL     1      39.070   4.861  16.404  0.00  0.00    +0.000 C 
BRANCH  23  24
ATOM     24  C   UNL     1      38.532   4.719  17.831  0.00  0.00    +0.000 C 
BRANCH  24  25
ATOM     25  C   UNL     1      38.956   5.933  18.625  0.00  0.00    +0.000 A 
ATOM     26  C   UNL     1      38.218   7.077  18.518  0.00  0.00    +0.000 A 
ATOM     27  C   UNL     1      38.581   8.197  19.226  0.00  0.00    +0.000 A 
ATOM     28  C   UNL     1      39.681   8.206  20.053  0.00  0.00    +0.000 A 
ATOM     29  C   UNL     1      40.398   7.037  20.135  0.00  0.00    +0.000 A 
ATOM     30  C   UNL     1      40.052   5.903  19.435  0.00  0.00    +0.000 A 
ENDBRANCH  24  25
ENDBRANCH  23  24
ENDBRANCH  22  23
ENDBRANCH  21  22
ENDBRANCH  19  21
ENDBRANCH  18  19
ENDBRANCH   9  18
TORSDOF 9
ENDMDL
MODEL 10
REMARK VINA RESULT:      -6.0     25.406     28.889
REMARK  Name = 
REMARK  9 active torsions:
REMARK  status: ('A' for Active; 'I' for Inactive)
REMARK    1  A    between atoms: O_2  and  C_3
REMARK    2  A    between atoms: C_6  and  C_7
REMARK    3  A    between atoms: N_15  and  C_16
REMARK    4  A    between atoms: C_16  and  C_17
REMARK    5  A    between atoms: C_17  and  C_19
REMARK    6  A    between atoms: C_19  and  N_20
REMARK    7  A    between atoms: N_20  and  C_21
REMARK    8  A    between atoms: C_21  and  C_22
REMARK    9  A    between atoms: C_22  and  C_23
REMARK                            x       y       z     vdW  Elec       q    Type
REMARK                         _______ _______ _______ _____ _____    ______ ____
ROOT
ATOM      1  C   UNL     1      27.135  12.704  40.679  0.00  0.00    +0.000 A 
ATOM      2  C   UNL     1      26.987  11.333  40.754  0.00  0.00    +0.000 A 
ATOM      3  C   UNL     1      28.270  10.817  40.759  0.00  0.00    +0.000 A 
ATOM      4  C   UNL     1      28.734   9.506  40.821  0.00  0.00    +0.000 A 
ATOM      5  C   UNL     1      30.094   9.244  40.810  0.00  0.00    +0.000 A 
ATOM      6  C   UNL     1      30.979  10.298  40.739  0.00  0.00    +0.000 A 
ATOM      7  C   UNL     1      30.517  11.617  40.679  0.00  0.00    +0.000 A 
ATOM      8  C   UNL     1      29.157  11.886  40.688  0.00  0.00    +0.000 A 
ATOM      9  N   UNL     1      28.441  13.020  40.640  0.00  0.00    +0.000 N 
ENDROOT
BRANCH   1  13
ATOM     10  C   UNL     1      23.884  15.477  40.530  0.00  0.00    +0.000 A 
ATOM     11  C   UNL     1      24.429  15.072  41.726  0.00  0.00    +0.000 A 
ATOM     12  C   UNL     1      25.489  14.168  41.805  0.00  0.00    +0.000 A 
ATOM     13  C   UNL     1      26.031  13.648  40.654  0.00  0.00    +0.000 A 
ATOM     14  C   UNL     1      25.490  14.050  39.453  0.00  0.00    +0.000 A 
ATOM     15  C   UNL     1      24.442  14.941  39.375  0.00  0.00    +0.000 A 
BRANCH  10  17
ATOM     16  C   UNL     1      21.965  16.676  41.483  0.00  0.00    +0.000 C 
ATOM     17  O   UNL     1      22.834  16.368  40.409  0.00  0.00    +0.000 OA
ENDBRANCH  10  17
ENDBRANCH   1  13
BRANCH   9  18
ATOM     18  C   UNL     1      28.911  14.376  40.565  0.00  0.00    +0.000 C 
BRANCH  18  19
ATOM     19  C   UNL     1      29.348  14.568  38.959  0.00  0.00    +0.000 C 
ATOM     20  O   UNL     1      30.606  15.393  39.367  0.00  0.00    +0.000 OA
BRANCH  19  21
ATOM     21  C   UNL     1      28.435  15.989  38.845  0.00  0.00    +0.000 C 
BRANCH  21  22
ATOM     22  N   UNL     1      28.376  16.241  37.435  0.00  0.00    +0.000 NA
BRANCH  22  23
ATOM     23  C   UNL     1      27.015  16.439  36.946  0.00  0.00    +0.000 C 
BRANCH  23  24
ATOM     24  C   UNL     1      26.675  15.125  36.237  0.00  0.00    +0.000 C 
BRANCH  24  25
ATOM     25  C   UNL     1      26.001  15.451  34.924  0.00  0.00    +0.000 A 
ATOM     26  C   UNL     1      25.923  14.479  33.967  0.00  0.00    +0.000 A 
ATOM     27  C   UNL     1      25.319  14.747  32.763  0.00  0.00    +0.000 A 
ATOM     28  C   UNL     1      24.779  15.981  32.484  0.00  0.00    +0.000 A 
ATOM     29  C   UNL     1      24.875  16.932  33.469  0.00  0.00    +0.000 A 
ATOM     30  C   UNL     1      25.476  16.686  34.683  0.00  0.00    +0.000 A 
ENDBRANCH  24  25
ENDBRANCH  23  24
ENDBRANCH  22  23
ENDBRANCH  21  22
ENDBRANCH  19  21
ENDBRANCH  18  19
ENDBRANCH   9  18
TORSDOF 9
ENDMDL
