MODEL 1
REMARK VINA RESULT:      -7.2      0.000      0.000
REMARK  Name = 
REMARK  0 active torsions:
REMARK  status: ('A' for Active; 'I' for Inactive)
REMARK                            x       y       z     vdW  Elec       q    Type
REMARK                         _______ _______ _______ _____ _____    ______ ____
ROOT
ATOM      1  C   UNL     1      34.815  21.573  10.351  0.00  0.00    +0.000 C 
ATOM      2  C   UNL     1      33.304  21.436  10.623  0.00  0.00    +0.000 C 
ATOM      3  C   UNL     1      33.054  21.343  11.973  0.00  0.00    +0.000 C 
ATOM      4  C   UNL     1      31.596  21.366  12.228  0.00  0.00    +0.000 C 
ATOM      5  C   UNL     1      31.324  22.899  11.807  0.00  0.00    +0.000 C 
ATOM      6  C   UNL     1      29.774  22.803  12.085  0.00  0.00    +0.000 A 
ATOM      7  C   UNL     1      29.369  23.406  13.262  0.00  0.00    +0.000 A 
ATOM      8  C   UNL     1      28.051  23.414  13.659  0.00  0.00    +0.000 A 
ATOM      9  C   UNL     1      27.129  22.795  12.838  0.00  0.00    +0.000 A 
ATOM     10  O   UNL     1      25.773  22.767  13.181  0.00  0.00    +0.000 OA
ATOM     11  C   UNL     1      27.579  22.208  11.676  0.00  0.00    +0.000 A 
ATOM     12  C   UNL     1      28.909  22.202  11.280  0.00  0.00    +0.000 A 
ATOM     13  C   UNL     1      29.209  21.507   9.968  0.00  0.00    +0.000 C 
ATOM     14  C   UNL     1      30.710  21.284   9.939  0.00  0.00    +0.000 C 
ATOM     15  C   UNL     1      31.182  22.786  10.145  0.00  0.00    +0.000 C 
ATOM     16  C   UNL     1      32.818  22.691   9.784  0.00  0.00    +0.000 C 
ATOM     17  C   UNL     1      32.570  21.950   8.363  0.00  0.00    +0.000 C 
ATOM     18  C   UNL     1      33.573  20.808   8.415  0.00  0.00    +0.000 C 
ATOM     19  C   UNL     1      32.797  20.192   9.725  0.00  0.00    +0.000 C 
ATOM     20  O   UNL     1      33.941  19.285  10.118  0.00  0.00    +0.000 OA
ENDROOT
TORSDOF 0
ENDMDL
MODEL 2
REMARK VINA RESULT:      -7.0     19.246     22.176
REMARK  Name = 
REMARK  0 active torsions:
REMARK  status: ('A' for Active; 'I' for Inactive)
REMARK                            x       y       z     vdW  Elec       q    Type
REMARK                         _______ _______ _______ _____ _____    ______ ____
ROOT
ATOM      1  C   UNL     1       8.147  20.651  21.138  0.00  0.00    +0.000 C 
ATOM      2  C   UNL     1       9.481  21.363  20.837  0.00  0.00    +0.000 C 
ATOM      3  C   UNL     1       9.330  22.729  20.888  0.00  0.00    +0.000 C 
ATOM      4  C   UNL     1      10.645  23.397  20.750  0.00  0.00    +0.000 C 
ATOM      5  C   UNL     1      11.271  22.943  22.165  0.00  0.00    +0.000 C 
ATOM      6  C   UNL     1      12.647  23.668  21.900  0.00  0.00    +0.000 A 
ATOM      7  C   UNL     1      12.806  24.856  22.591  0.00  0.00    +0.000 A 
ATOM      8  C   UNL     1      13.945  25.618  22.475  0.00  0.00    +0.000 A 
ATOM      9  C   UNL     1      14.943  25.159  21.638  0.00  0.00    +0.000 A 
ATOM     10  O   UNL     1      16.128  25.884  21.474  0.00  0.00    +0.000 OA
ATOM     11  C   UNL     1      14.740  23.972  20.970  0.00  0.00    +0.000 A 
ATOM     12  C   UNL     1      13.589  23.206  21.090  0.00  0.00    +0.000 A 
ATOM     13  C   UNL     1      13.551  21.929  20.276  0.00  0.00    +0.000 C 
ATOM     14  C   UNL     1      12.101  21.483  20.254  0.00  0.00    +0.000 C 
ATOM     15  C   UNL     1      11.845  21.411  21.819  0.00  0.00    +0.000 C 
ATOM     16  C   UNL     1      10.379  20.598  21.897  0.00  0.00    +0.000 C 
ATOM     17  C   UNL     1      10.883  19.380  20.951  0.00  0.00    +0.000 C 
ATOM     18  C   UNL     1       9.731  19.236  19.970  0.00  0.00    +0.000 C 
ATOM     19  C   UNL     1      10.003  20.763  19.431  0.00  0.00    +0.000 C 
ATOM     20  O   UNL     1       8.661  20.882  18.744  0.00  0.00    +0.000 OA
ENDROOT
TORSDOF 0
ENDMDL
MODEL 3
REMARK VINA RESULT:      -6.9     13.717     17.045
REMARK  Name = 
REMARK  0 active torsions:
REMARK  status: ('A' for Active; 'I' for Inactive)
REMARK                            x       y       z     vdW  Elec       q    Type
REMARK                         _______ _______ _______ _____ _____    ______ ____
ROOT
ATOM      1  C   UNL     1      26.604  23.963  30.707  0.00  0.00    +0.000 C 
ATOM      2  C   UNL     1      27.034  23.528  29.291  0.00  0.00    +0.000 C 
ATOM      3  C   UNL     1      26.051  23.808  28.372  0.00  0.00    +0.000 C 
ATOM      4  C   UNL     1      26.535  23.527  27.000  0.00  0.00    +0.000 C 
ATOM      5  C   UNL     1      27.618  24.718  26.903  0.00  0.00    +0.000 C 
ATOM      6  C   UNL     1      28.079  24.311  25.450  0.00  0.00    +0.000 A 
ATOM      7  C   UNL     1      27.587  25.129  24.448  0.00  0.00    +0.000 A 
ATOM      8  C   UNL     1      27.889  24.917  23.122  0.00  0.00    +0.000 A 
ATOM      9  C   UNL     1      28.708  23.850  22.812  0.00  0.00    +0.000 A 
ATOM     10  O   UNL     1      29.055  23.577  21.485  0.00  0.00    +0.000 OA
ATOM     11  C   UNL     1      29.174  23.063  23.843  0.00  0.00    +0.000 A 
ATOM     12  C   UNL     1      28.867  23.280  25.178  0.00  0.00    +0.000 A 
ATOM     13  C   UNL     1      29.475  22.308  26.168  0.00  0.00    +0.000 C 
ATOM     14  C   UNL     1      28.712  22.490  27.466  0.00  0.00    +0.000 C 
ATOM     15  C   UNL     1      28.945  24.048  27.669  0.00  0.00    +0.000 C 
ATOM     16  C   UNL     1      28.432  24.276  29.250  0.00  0.00    +0.000 C 
ATOM     17  C   UNL     1      29.362  23.083  29.836  0.00  0.00    +0.000 C 
ATOM     18  C   UNL     1      28.390  22.324  30.724  0.00  0.00    +0.000 C 
ATOM     19  C   UNL     1      27.467  21.976  29.411  0.00  0.00    +0.000 C 
ATOM     20  O   UNL     1      26.257  21.576  30.225  0.00  0.00    +0.000 OA
ENDROOT
TORSDOF 0
ENDMDL
MODEL 4
REMARK VINA RESULT:      -6.9     12.542     15.500
REMARK  Name = 
REMARK  0 active torsions:
REMARK  status: ('A' for Active; 'I' for Inactive)
REMARK                            x       y       z     vdW  Elec       q    Type
REMARK                         _______ _______ _______ _____ _____    ______ ____
ROOT
ATOM      1  C   UNL     1      29.476  24.606  22.224  0.00  0.00    +0.000 C 
ATOM      2  C   UNL     1      28.588  24.228  23.426  0.00  0.00    +0.000 C 
ATOM      3  C   UNL     1      29.010  23.051  23.998  0.00  0.00    +0.000 C 
ATOM      4  C   UNL     1      28.248  22.780  25.239  0.00  0.00    +0.000 C 
ATOM      5  C   UNL     1      28.854  23.977  26.134  0.00  0.00    +0.000 C 
ATOM      6  C   UNL     1      27.970  23.617  27.390  0.00  0.00    +0.000 A 
ATOM      7  C   UNL     1      28.655  22.965  28.399  0.00  0.00    +0.000 A 
ATOM      8  C   UNL     1      28.037  22.577  29.565  0.00  0.00    +0.000 A 
ATOM      9  C   UNL     1      26.693  22.859  29.705  0.00  0.00    +0.000 A 
ATOM     10  O   UNL     1      26.003  22.493  30.865  0.00  0.00    +0.000 OA
ATOM     11  C   UNL     1      26.052  23.509  28.674  0.00  0.00    +0.000 A 
ATOM     12  C   UNL     1      26.679  23.899  27.499  0.00  0.00    +0.000 A 
ATOM     13  C   UNL     1      25.807  24.604  26.481  0.00  0.00    +0.000 C 
ATOM     14  C   UNL     1      26.575  24.577  25.173  0.00  0.00    +0.000 C 
ATOM     15  C   UNL     1      27.914  25.277  25.662  0.00  0.00    +0.000 C 
ATOM     16  C   UNL     1      28.689  25.603  24.211  0.00  0.00    +0.000 C 
ATOM     17  C   UNL     1      27.400  26.345  23.566  0.00  0.00    +0.000 C 
ATOM     18  C   UNL     1      27.318  25.709  22.187  0.00  0.00    +0.000 C 
ATOM     19  C   UNL     1      27.066  24.243  22.883  0.00  0.00    +0.000 C 
ATOM     20  O   UNL     1      27.380  23.465  21.625  0.00  0.00    +0.000 OA
ENDROOT
TORSDOF 0
ENDMDL
MODEL 5
REMARK VINA RESULT:      -6.8     12.362     15.326
REMARK  Name = 
REMARK  0 active torsions:
REMARK  status: ('A' for Active; 'I' for Inactive)
REMARK                            x       y       z     vdW  Elec       q    Type
REMARK                         _______ _______ _______ _____ _____    ______ ____
ROOT
ATOM      1  C   UNL     1      26.356  23.430  23.259  0.00  0.00    +0.000 C 
ATOM      2  C   UNL     1      27.573  23.816  24.124  0.00  0.00    +0.000 C 
ATOM      3  C   UNL     1      27.341  23.537  25.450  0.00  0.00    +0.000 C 
ATOM      4  C   UNL     1      28.568  23.768  26.247  0.00  0.00    +0.000 C 
ATOM      5  C   UNL     1      29.443  22.548  25.659  0.00  0.00    +0.000 C 
ATOM      6  C   UNL     1      30.706  22.904  26.536  0.00  0.00    +0.000 A 
ATOM      7  C   UNL     1      30.894  22.073  27.625  0.00  0.00    +0.000 A 
ATOM      8  C   UNL     1      31.946  22.242  28.496  0.00  0.00    +0.000 A 
ATOM      9  C   UNL     1      32.824  23.279  28.250  0.00  0.00    +0.000 A 
ATOM     10  O   UNL     1      33.915  23.507  29.095  0.00  0.00    +0.000 OA
ATOM     11  C   UNL     1      32.596  24.080  27.154  0.00  0.00    +0.000 A 
ATOM     12  C   UNL     1      31.534  23.907  26.278  0.00  0.00    +0.000 A 
ATOM     13  C   UNL     1      31.452  24.889  25.128  0.00  0.00    +0.000 C 
ATOM     14  C   UNL     1      30.051  24.761  24.560  0.00  0.00    +0.000 C 
ATOM     15  C   UNL     1      30.056  23.204  24.249  0.00  0.00    +0.000 C 
ATOM     16  C   UNL     1      28.681  23.031  23.303  0.00  0.00    +0.000 C 
ATOM     17  C   UNL     1      29.106  24.215  22.280  0.00  0.00    +0.000 C 
ATOM     18  C   UNL     1      27.823  25.023  22.169  0.00  0.00    +0.000 C 
ATOM     19  C   UNL     1      27.901  25.359  23.774  0.00  0.00    +0.000 C 
ATOM     20  O   UNL     1      26.461  25.812  23.866  0.00  0.00    +0.000 OA
ENDROOT
TORSDOF 0
ENDMDL
MODEL 6
REMARK VINA RESULT:      -6.8     12.020     15.021
REMARK  Name = 
REMARK  0 active torsions:
REMARK  status: ('A' for Active; 'I' for Inactive)
REMARK                            x       y       z     vdW  Elec       q    Type
REMARK                         _______ _______ _______ _____ _____    ______ ____
ROOT
ATOM      1  C   UNL     1      27.316  26.279  21.770  0.00  0.00    +0.000 C 
ATOM      2  C   UNL     1      27.729  25.590  23.087  0.00  0.00    +0.000 C 
ATOM      3  C   UNL     1      27.334  26.334  24.175  0.00  0.00    +0.000 C 
ATOM      4  C   UNL     1      27.599  25.590  25.428  0.00  0.00    +0.000 C 
ATOM      5  C   UNL     1      26.496  24.430  25.232  0.00  0.00    +0.000 C 
ATOM      6  C   UNL     1      26.881  23.701  26.577  0.00  0.00    +0.000 A 
ATOM      7  C   UNL     1      25.988  23.911  27.612  0.00  0.00    +0.000 A 
ATOM      8  C   UNL     1      26.171  23.350  28.855  0.00  0.00    +0.000 A 
ATOM      9  C   UNL     1      27.287  22.561  29.047  0.00  0.00    +0.000 A 
ATOM     10  O   UNL     1      27.534  21.960  30.285  0.00  0.00    +0.000 OA
ATOM     11  C   UNL     1      28.149  22.381  27.987  0.00  0.00    +0.000 A 
ATOM     12  C   UNL     1      27.960  22.948  26.735  0.00  0.00    +0.000 A 
ATOM     13  C   UNL     1      29.017  22.634  25.696  0.00  0.00    +0.000 C 
ATOM     14  C   UNL     1      28.825  23.640  24.577  0.00  0.00    +0.000 C 
ATOM     15  C   UNL     1      27.300  23.347  24.244  0.00  0.00    +0.000 C 
ATOM     16  C   UNL     1      27.094  24.166  22.795  0.00  0.00    +0.000 C 
ATOM     17  C   UNL     1      28.380  23.468  22.095  0.00  0.00    +0.000 C 
ATOM     18  C   UNL     1      29.093  24.657  21.472  0.00  0.00    +0.000 C 
ATOM     19  C   UNL     1      29.314  25.302  22.966  0.00  0.00    +0.000 C 
ATOM     20  O   UNL     1      29.647  26.683  22.446  0.00  0.00    +0.000 OA
ENDROOT
TORSDOF 0
ENDMDL
MODEL 7
REMARK VINA RESULT:      -6.8     19.564     20.750
REMARK  Name = 
REMARK  0 active torsions:
REMARK  status: ('A' for Active; 'I' for Inactive)
REMARK                            x       y       z     vdW  Elec       q    Type
REMARK                         _______ _______ _______ _____ _____    ______ ____
ROOT
ATOM      1  C   UNL     1      22.025   1.307  18.096  0.00  0.00    +0.000 C 
ATOM      2  C   UNL     1      23.072   2.312  17.575  0.00  0.00    +0.000 C 
ATOM      3  C   UNL     1      22.973   3.513  18.238  0.00  0.00    +0.000 C 
ATOM      4  C   UNL     1      24.078   4.413  17.838  0.00  0.00    +0.000 C 
ATOM      5  C   UNL     1      25.286   3.598  18.529  0.00  0.00    +0.000 C 
ATOM      6  C   UNL     1      26.387   4.608  18.024  0.00  0.00    +0.000 A 
ATOM      7  C   UNL     1      26.857   5.470  18.999  0.00  0.00    +0.000 A 
ATOM      8  C   UNL     1      27.819   6.416  18.730  0.00  0.00    +0.000 A 
ATOM      9  C   UNL     1      28.311   6.486  17.442  0.00  0.00    +0.000 A 
ATOM     10  O   UNL     1      29.290   7.424  17.101  0.00  0.00    +0.000 OA
ATOM     11  C   UNL     1      27.813   5.608  16.505  0.00  0.00    +0.000 A 
ATOM     12  C   UNL     1      26.843   4.655  16.780  0.00  0.00    +0.000 A 
ATOM     13  C   UNL     1      26.422   3.779  15.618  0.00  0.00    +0.000 C 
ATOM     14  C   UNL     1      25.124   3.114  16.036  0.00  0.00    +0.000 C 
ATOM     15  C   UNL     1      25.622   2.431  17.380  0.00  0.00    +0.000 C 
ATOM     16  C   UNL     1      24.354   1.391  17.735  0.00  0.00    +0.000 C 
ATOM     17  C   UNL     1      24.353   0.717  16.260  0.00  0.00    +0.000 C 
ATOM     18  C   UNL     1      22.875   0.732  15.900  0.00  0.00    +0.000 C 
ATOM     19  C   UNL     1      22.878   2.372  15.972  0.00  0.00    +0.000 C 
ATOM     20  O   UNL     1      21.372   2.486  16.037  0.00  0.00    +0.000 OA
ENDROOT
TORSDOF 0
ENDMDL
MODEL 8
REMARK VINA RESULT:      -6.4     13.780     17.105
REMARK  Name = 
REMARK  0 active torsions:
REMARK  status: ('A' for Active; 'I' for Inactive)
REMARK                            x       y       z     vdW  Elec       q    Type
REMARK                         _______ _______ _______ _____ _____    ______ ____
ROOT
ATOM      1  C   UNL     1      29.219  23.520  30.740  0.00  0.00    +0.000 C 
ATOM      2  C   UNL     1      28.552  23.802  29.379  0.00  0.00    +0.000 C 
ATOM      3  C   UNL     1      29.445  24.373  28.503  0.00  0.00    +0.000 C 
ATOM      4  C   UNL     1      28.839  24.497  27.158  0.00  0.00    +0.000 C 
ATOM      5  C   UNL     1      28.776  22.926  26.801  0.00  0.00    +0.000 C 
ATOM      6  C   UNL     1      28.102  23.172  25.395  0.00  0.00    +0.000 A 
ATOM      7  C   UNL     1      28.964  23.039  24.321  0.00  0.00    +0.000 A 
ATOM      8  C   UNL     1      28.542  23.221  23.024  0.00  0.00    +0.000 A 
ATOM      9  C   UNL     1      27.216  23.546  22.819  0.00  0.00    +0.000 A 
ATOM     10  O   UNL     1      26.721  23.744  21.526  0.00  0.00    +0.000 OA
ATOM     11  C   UNL     1      26.396  23.668  23.918  0.00  0.00    +0.000 A 
ATOM     12  C   UNL     1      26.825  23.483  25.225  0.00  0.00    +0.000 A 
ATOM     13  C   UNL     1      25.774  23.660  26.302  0.00  0.00    +0.000 C 
ATOM     14  C   UNL     1      26.528  23.801  27.611  0.00  0.00    +0.000 C 
ATOM     15  C   UNL     1      27.362  22.451  27.558  0.00  0.00    +0.000 C 
ATOM     16  C   UNL     1      27.966  22.351  29.120  0.00  0.00    +0.000 C 
ATOM     17  C   UNL     1      26.511  22.552  29.809  0.00  0.00    +0.000 C 
ATOM     18  C   UNL     1      26.800  23.600  30.872  0.00  0.00    +0.000 C 
ATOM     19  C   UNL     1      27.226  24.667  29.699  0.00  0.00    +0.000 C 
ATOM     20  O   UNL     1      27.925  25.610  30.652  0.00  0.00    +0.000 OA
ENDROOT
TORSDOF 0
ENDMDL
MODEL 9
REMARK VINA RESULT:      -6.4     13.014     14.811
REMARK  Name = 
REMARK  0 active torsions:
REMARK  status: ('A' for Active; 'I' for Inactive)
REMARK                            x       y       z     vdW  Elec       q    Type
REMARK                         _______ _______ _______ _____ _____    ______ ____
ROOT
ATOM      1  C   UNL     1      26.285  25.409  24.262  0.00  0.00    +0.000 C 
ATOM      2  C   UNL     1      27.765  25.007  24.099  0.00  0.00    +0.000 C 
ATOM      3  C   UNL     1      28.491  26.025  23.527  0.00  0.00    +0.000 C 
ATOM      4  C   UNL     1      29.932  25.686  23.517  0.00  0.00    +0.000 C 
ATOM      5  C   UNL     1      30.187  25.768  25.108  0.00  0.00    +0.000 C 
ATOM      6  C   UNL     1      31.709  25.370  24.983  0.00  0.00    +0.000 A 
ATOM      7  C   UNL     1      32.587  26.428  25.126  0.00  0.00    +0.000 A 
ATOM      8  C   UNL     1      33.950  26.259  25.045  0.00  0.00    +0.000 A 
ATOM      9  C   UNL     1      34.426  24.984  24.813  0.00  0.00    +0.000 A 
ATOM     10  O   UNL     1      35.800  24.741  24.719  0.00  0.00    +0.000 OA
ATOM     11  C   UNL     1      33.514  23.961  24.676  0.00  0.00    +0.000 A 
ATOM     12  C   UNL     1      32.140  24.136  24.759  0.00  0.00    +0.000 A 
ATOM     13  C   UNL     1      31.298  22.889  24.584  0.00  0.00    +0.000 C 
ATOM     14  C   UNL     1      29.882  23.367  24.323  0.00  0.00    +0.000 C 
ATOM     15  C   UNL     1      29.683  24.259  25.621  0.00  0.00    +0.000 C 
ATOM     16  C   UNL     1      28.031  24.551  25.595  0.00  0.00    +0.000 C 
ATOM     17  C   UNL     1      27.648  22.983  25.442  0.00  0.00    +0.000 C 
ATOM     18  C   UNL     1      26.623  23.009  24.319  0.00  0.00    +0.000 C 
ATOM     19  C   UNL     1      27.763  23.604  23.298  0.00  0.00    +0.000 C 
ATOM     20  O   UNL     1      26.761  24.059  22.261  0.00  0.00    +0.000 OA
ENDROOT
TORSDOF 0
ENDMDL
MODEL 10
REMARK VINA RESULT:      -6.4     13.459     16.206
REMARK  Name = 
REMARK  0 active torsions:
REMARK  status: ('A' for Active; 'I' for Inactive)
REMARK                            x       y       z     vdW  Elec       q    Type
REMARK                         _______ _______ _______ _____ _____    ______ ____
ROOT
ATOM      1  C   UNL     1      29.430  24.360  22.654  0.00  0.00    +0.000 C 
ATOM      2  C   UNL     1      29.305  23.854  24.106  0.00  0.00    +0.000 C 
ATOM      3  C   UNL     1      30.028  22.698  24.286  0.00  0.00    +0.000 C 
ATOM      4  C   UNL     1      30.025  22.308  25.715  0.00  0.00    +0.000 C 
ATOM      5  C   UNL     1      30.934  23.518  26.273  0.00  0.00    +0.000 C 
ATOM      6  C   UNL     1      30.840  23.027  27.770  0.00  0.00    +0.000 A 
ATOM      7  C   UNL     1      31.982  22.400  28.235  0.00  0.00    +0.000 A 
ATOM      8  C   UNL     1      32.071  21.909  29.517  0.00  0.00    +0.000 A 
ATOM      9  C   UNL     1      30.974  22.061  30.342  0.00  0.00    +0.000 A 
ATOM     10  O   UNL     1      30.997  21.585  31.657  0.00  0.00    +0.000 OA
ATOM     11  C   UNL     1      29.859  22.691  29.835  0.00  0.00    +0.000 A 
ATOM     12  C   UNL     1      29.773  23.184  28.541  0.00  0.00    +0.000 A 
ATOM     13  C   UNL     1      28.464  23.848  28.167  0.00  0.00    +0.000 C 
ATOM     14  C   UNL     1      28.454  23.945  26.653  0.00  0.00    +0.000 C 
ATOM     15  C   UNL     1      29.812  24.744  26.452  0.00  0.00    +0.000 C 
ATOM     16  C   UNL     1      29.715  25.199  24.840  0.00  0.00    +0.000 C 
ATOM     17  C   UNL     1      28.236  25.846  25.001  0.00  0.00    +0.000 C 
ATOM     18  C   UNL     1      27.497  25.262  23.807  0.00  0.00    +0.000 C 
ATOM     19  C   UNL     1      27.722  23.752  24.412  0.00  0.00    +0.000 C 
ATOM     20  O   UNL     1      27.392  23.058  23.109  0.00  0.00    +0.000 OA
ENDROOT
TORSDOF 0
ENDMDL
