MODEL 1
REMARK VINA RESULT:      -7.6      0.000      0.000
REMARK  Name = 
REMARK  4 active torsions:
REMARK  status: ('A' for Active; 'I' for Inactive)
REMARK    1  A    between atoms: C_2  and  C_3
REMARK    2  A    between atoms: C_9  and  N_10
REMARK    3  A    between atoms: C_11  and  C_13
REMARK    4  A    between atoms: C_17  and  N_18
REMARK                            x       y       z     vdW  Elec       q    Type
REMARK                         _______ _______ _______ _____ _____    ______ ____
ROOT
ATOM      1  N   UNL     1      15.037  11.559  34.541  0.00  0.00    +0.000 NA
ATOM      2  C   UNL     1      16.239  11.796  35.278  0.00  0.00    +0.000 C 
ATOM      3  O   UNL     1      17.067  12.590  34.780  0.00  0.00    +0.000 OA
ENDROOT
BRANCH   1  10
ATOM      4  C   UNL     1      14.145  13.425  33.257  0.00  0.00    +0.000 A 
ATOM      5  C   UNL     1      13.956  14.079  32.063  0.00  0.00    +0.000 A 
ATOM      6  C   UNL     1      14.458  13.573  30.871  0.00  0.00    +0.000 A 
ATOM      7  C   UNL     1      15.162  12.379  30.905  0.00  0.00    +0.000 A 
ATOM      8  C   UNL     1      15.351  11.724  32.106  0.00  0.00    +0.000 A 
ATOM      9  C   UNL     1      16.103  10.442  32.154  0.00  0.00    +0.000 C 
ATOM     10  C   UNL     1      14.846  12.238  33.281  0.00  0.00    +0.000 A 
BRANCH   4  12
ATOM     11  C   UNL     1      12.903  15.254  34.284  0.00  0.00    +0.000 C 
ATOM     12  C   UNL     1      13.618  13.944  34.553  0.00  0.00    +0.000 C 
ENDBRANCH   4  12
ENDBRANCH   1  10
BRANCH   2  13
ATOM     13  C   UNL     1      16.529  11.167  36.547  0.00  0.00    +0.000 A 
ATOM     14  C   UNL     1      15.619  11.081  37.578  0.00  0.00    +0.000 A 
ATOM     15  C   UNL     1      15.986  10.462  38.760  0.00  0.00    +0.000 A 
ATOM     16  C   UNL     1      17.248   9.925  38.931  0.00  0.00    +0.000 A 
ATOM     17  C   UNL     1      18.177  10.004  37.898  0.00  0.00    +0.000 A 
ATOM     18  C   UNL     1      17.774  10.623  36.750  0.00  0.00    +0.000 A 
BRANCH  17  19
ATOM     19  N   UNL     1      19.477   9.460  38.059  0.00  0.00    +0.000 N 
ATOM     20  O   UNL     1      19.815   8.801  39.057  0.00  0.00    +0.000 OA
ATOM     21  O   UNL     1      20.408   9.666  37.076  0.00  0.00    +0.000 OA
ENDBRANCH  17  19
ENDBRANCH   2  13
TORSDOF 4
ENDMDL
MODEL 2
REMARK VINA RESULT:      -6.9      1.100      2.696
REMARK  Name = 
REMARK  4 active torsions:
REMARK  status: ('A' for Active; 'I' for Inactive)
REMARK    1  A    between atoms: C_2  and  C_3
REMARK    2  A    between atoms: C_9  and  N_10
REMARK    3  A    between atoms: C_11  and  C_13
REMARK    4  A    between atoms: C_17  and  N_18
REMARK                            x       y       z     vdW  Elec       q    Type
REMARK                         _______ _______ _______ _____ _____    ______ ____
ROOT
ATOM      1  N   UNL     1      15.443  11.434  35.431  0.00  0.00    +0.000 NA
ATOM      2  C   UNL     1      16.544  11.880  36.226  0.00  0.00    +0.000 C 
ATOM      3  O   UNL     1      16.928  13.057  36.058  0.00  0.00    +0.000 OA
ENDROOT
BRANCH   1  10
ATOM      4  C   UNL     1      15.220  12.300  33.167  0.00  0.00    +0.000 A 
ATOM      5  C   UNL     1      14.657  13.170  32.264  0.00  0.00    +0.000 A 
ATOM      6  C   UNL     1      13.709  14.106  32.654  0.00  0.00    +0.000 A 
ATOM      7  C   UNL     1      13.334  14.151  33.989  0.00  0.00    +0.000 A 
ATOM      8  C   UNL     1      13.903  13.275  34.893  0.00  0.00    +0.000 A 
ATOM      9  C   UNL     1      13.510  13.315  36.327  0.00  0.00    +0.000 C 
ATOM     10  C   UNL     1      14.843  12.352  34.491  0.00  0.00    +0.000 A 
BRANCH   4  12
ATOM     11  C   UNL     1      15.844  10.702  31.433  0.00  0.00    +0.000 C 
ATOM     12  C   UNL     1      16.241  11.283  32.777  0.00  0.00    +0.000 C 
ENDBRANCH   4  12
ENDBRANCH   1  10
BRANCH   2  13
ATOM     13  C   UNL     1      17.216  11.041  37.193  0.00  0.00    +0.000 A 
ATOM     14  C   UNL     1      16.590  10.501  38.296  0.00  0.00    +0.000 A 
ATOM     15  C   UNL     1      17.315   9.711  39.170  0.00  0.00    +0.000 A 
ATOM     16  C   UNL     1      18.656   9.450  38.963  0.00  0.00    +0.000 A 
ATOM     17  C   UNL     1      19.301   9.989  37.854  0.00  0.00    +0.000 A 
ATOM     18  C   UNL     1      18.549  10.762  37.017  0.00  0.00    +0.000 A 
BRANCH  17  19
ATOM     19  N   UNL     1      20.678   9.731  37.629  0.00  0.00    +0.000 N 
ATOM     20  O   UNL     1      21.185   9.714  36.494  0.00  0.00    +0.000 OA
ATOM     21  O   UNL     1      21.490   9.488  38.704  0.00  0.00    +0.000 OA
ENDBRANCH  17  19
ENDBRANCH   2  13
TORSDOF 4
ENDMDL
MODEL 3
REMARK VINA RESULT:      -6.5     18.203     19.500
REMARK  Name = 
REMARK  4 active torsions:
REMARK  status: ('A' for Active; 'I' for Inactive)
REMARK    1  A    between atoms: C_2  and  C_3
REMARK    2  A    between atoms: C_9  and  N_10
REMARK    3  A    between atoms: C_11  and  C_13
REMARK    4  A    between atoms: C_17  and  N_18
REMARK                            x       y       z     vdW  Elec       q    Type
REMARK                         _______ _______ _______ _____ _____    ______ ____
ROOT
ATOM      1  N   UNL     1      28.409  24.236  25.790  0.00  0.00    +0.000 NA
ATOM      2  C   UNL     1      28.977  23.100  26.445  0.00  0.00    +0.000 C 
ATOM      3  O   UNL     1      29.487  22.218  25.721  0.00  0.00    +0.000 OA
ENDROOT
BRANCH   1  10
ATOM      4  C   UNL     1      29.544  24.882  23.736  0.00  0.00    +0.000 A 
ATOM      5  C   UNL     1      29.595  24.953  22.364  0.00  0.00    +0.000 A 
ATOM      6  C   UNL     1      28.570  24.452  21.573  0.00  0.00    +0.000 A 
ATOM      7  C   UNL     1      27.477  23.871  22.197  0.00  0.00    +0.000 A 
ATOM      8  C   UNL     1      27.428  23.802  23.576  0.00  0.00    +0.000 A 
ATOM      9  C   UNL     1      26.260  23.182  24.256  0.00  0.00    +0.000 C 
ATOM     10  C   UNL     1      28.452  24.303  24.348  0.00  0.00    +0.000 A 
BRANCH   4  12
ATOM     11  C   UNL     1      31.824  24.483  24.501  0.00  0.00    +0.000 C 
ATOM     12  C   UNL     1      30.629  25.411  24.612  0.00  0.00    +0.000 C 
ENDBRANCH   4  12
ENDBRANCH   1  10
BRANCH   2  13
ATOM     13  C   UNL     1      28.984  22.934  27.882  0.00  0.00    +0.000 A 
ATOM     14  C   UNL     1      30.138  22.810  28.627  0.00  0.00    +0.000 A 
ATOM     15  C   UNL     1      30.047  22.652  29.998  0.00  0.00    +0.000 A 
ATOM     16  C   UNL     1      28.825  22.616  30.641  0.00  0.00    +0.000 A 
ATOM     17  C   UNL     1      27.652  22.739  29.902  0.00  0.00    +0.000 A 
ATOM     18  C   UNL     1      27.786  22.893  28.552  0.00  0.00    +0.000 A 
BRANCH  17  19
ATOM     19  N   UNL     1      26.389  22.701  30.547  0.00  0.00    +0.000 N 
ATOM     20  O   UNL     1      25.730  23.724  30.801  0.00  0.00    +0.000 OA
ATOM     21  O   UNL     1      25.867  21.489  30.910  0.00  0.00    +0.000 OA
ENDBRANCH  17  19
ENDBRANCH   2  13
TORSDOF 4
ENDMDL
MODEL 4
REMARK VINA RESULT:      -6.5     18.025     19.294
REMARK  Name = 
REMARK  4 active torsions:
REMARK  status: ('A' for Active; 'I' for Inactive)
REMARK    1  A    between atoms: C_2  and  C_3
REMARK    2  A    between atoms: C_9  and  N_10
REMARK    3  A    between atoms: C_11  and  C_13
REMARK    4  A    between atoms: C_17  and  N_18
REMARK                            x       y       z     vdW  Elec       q    Type
REMARK                         _______ _______ _______ _____ _____    ______ ____
ROOT
ATOM      1  N   UNL     1      28.526  24.225  25.800  0.00  0.00    +0.000 NA
ATOM      2  C   UNL     1      29.095  23.094  26.464  0.00  0.00    +0.000 C 
ATOM      3  O   UNL     1      29.630  22.221  25.747  0.00  0.00    +0.000 OA
ENDROOT
BRANCH   1  10
ATOM      4  C   UNL     1      27.551  23.806  23.609  0.00  0.00    +0.000 A 
ATOM      5  C   UNL     1      27.610  23.869  22.237  0.00  0.00    +0.000 A 
ATOM      6  C   UNL     1      28.703  24.421  21.583  0.00  0.00    +0.000 A 
ATOM      7  C   UNL     1      29.750  24.914  22.346  0.00  0.00    +0.000 A 
ATOM      8  C   UNL     1      29.689  24.849  23.724  0.00  0.00    +0.000 A 
ATOM      9  C   UNL     1      30.807  25.373  24.552  0.00  0.00    +0.000 C 
ATOM     10  C   UNL     1      28.598  24.298  24.360  0.00  0.00    +0.000 A 
BRANCH   4  12
ATOM     11  C   UNL     1      25.352  24.308  24.535  0.00  0.00    +0.000 C 
ATOM     12  C   UNL     1      26.390  23.219  24.341  0.00  0.00    +0.000 C 
ENDBRANCH   4  12
ENDBRANCH   1  10
BRANCH   2  13
ATOM     13  C   UNL     1      29.076  22.923  27.900  0.00  0.00    +0.000 A 
ATOM     14  C   UNL     1      30.214  22.778  28.663  0.00  0.00    +0.000 A 
ATOM     15  C   UNL     1      30.098  22.617  30.032  0.00  0.00    +0.000 A 
ATOM     16  C   UNL     1      28.864  22.599  30.654  0.00  0.00    +0.000 A 
ATOM     17  C   UNL     1      27.707  22.744  29.896  0.00  0.00    +0.000 A 
ATOM     18  C   UNL     1      27.866  22.900  28.549  0.00  0.00    +0.000 A 
BRANCH  17  19
ATOM     19  N   UNL     1      26.433  22.725  30.519  0.00  0.00    +0.000 N 
ATOM     20  O   UNL     1      25.783  23.756  30.760  0.00  0.00    +0.000 OA
ATOM     21  O   UNL     1      25.888  21.520  30.877  0.00  0.00    +0.000 OA
ENDBRANCH  17  19
ENDBRANCH   2  13
TORSDOF 4
ENDMDL
MODEL 5
REMARK VINA RESULT:      -6.5      2.346      7.585
REMARK  Name = 
REMARK  4 active torsions:
REMARK  status: ('A' for Active; 'I' for Inactive)
REMARK    1  A    between atoms: C_2  and  C_3
REMARK    2  A    between atoms: C_9  and  N_10
REMARK    3  A    between atoms: C_11  and  C_13
REMARK    4  A    between atoms: C_17  and  N_18
REMARK                            x       y       z     vdW  Elec       q    Type
REMARK                         _______ _______ _______ _____ _____    ______ ____
ROOT
ATOM      1  N   UNL     1      18.081  10.933  37.866  0.00  0.00    +0.000 NA
ATOM      2  C   UNL     1      17.750  10.142  36.723  0.00  0.00    +0.000 C 
ATOM      3  O   UNL     1      18.124   8.950  36.725  0.00  0.00    +0.000 OA
ENDROOT
BRANCH   1  10
ATOM      4  C   UNL     1      20.197  10.355  38.922  0.00  0.00    +0.000 A 
ATOM      5  C   UNL     1      20.910   9.775  39.945  0.00  0.00    +0.000 A 
ATOM      6  C   UNL     1      20.273   9.155  41.011  0.00  0.00    +0.000 A 
ATOM      7  C   UNL     1      18.887   9.128  41.028  0.00  0.00    +0.000 A 
ATOM      8  C   UNL     1      18.174   9.711  39.999  0.00  0.00    +0.000 A 
ATOM      9  C   UNL     1      16.687   9.686  40.006  0.00  0.00    +0.000 C 
ATOM     10  C   UNL     1      18.819  10.322  38.947  0.00  0.00    +0.000 A 
BRANCH   4  12
ATOM     11  C   UNL     1      21.558   9.970  36.935  0.00  0.00    +0.000 C 
ATOM     12  C   UNL     1      20.853  11.028  37.763  0.00  0.00    +0.000 C 
ENDBRANCH   4  12
ENDBRANCH   1  10
BRANCH   2  13
ATOM     13  C   UNL     1      17.017  10.656  35.587  0.00  0.00    +0.000 A 
ATOM     14  C   UNL     1      17.303  10.318  34.282  0.00  0.00    +0.000 A 
ATOM     15  C   UNL     1      16.548  10.862  33.258  0.00  0.00    +0.000 A 
ATOM     16  C   UNL     1      15.511  11.738  33.513  0.00  0.00    +0.000 A 
ATOM     17  C   UNL     1      15.211  12.089  34.827  0.00  0.00    +0.000 A 
ATOM     18  C   UNL     1      15.980  11.530  35.806  0.00  0.00    +0.000 A 
BRANCH  17  19
ATOM     19  N   UNL     1      14.150  12.989  35.105  0.00  0.00    +0.000 N 
ATOM     20  O   UNL     1      13.846  13.928  34.351  0.00  0.00    +0.000 OA
ATOM     21  O   UNL     1      13.426  12.822  36.255  0.00  0.00    +0.000 OA
ENDBRANCH  17  19
ENDBRANCH   2  13
TORSDOF 4
ENDMDL
MODEL 6
REMARK VINA RESULT:      -6.4     17.663     19.225
REMARK  Name = 
REMARK  4 active torsions:
REMARK  status: ('A' for Active; 'I' for Inactive)
REMARK    1  A    between atoms: C_2  and  C_3
REMARK    2  A    between atoms: C_9  and  N_10
REMARK    3  A    between atoms: C_11  and  C_13
REMARK    4  A    between atoms: C_17  and  N_18
REMARK                            x       y       z     vdW  Elec       q    Type
REMARK                         _______ _______ _______ _____ _____    ______ ____
ROOT
ATOM      1  N   UNL     1      27.651  25.029  25.615  0.00  0.00    +0.000 NA
ATOM      2  C   UNL     1      26.463  24.474  26.184  0.00  0.00    +0.000 C 
ATOM      3  O   UNL     1      25.657  23.927  25.403  0.00  0.00    +0.000 OA
ENDROOT
BRANCH   1  10
ATOM      4  C   UNL     1      28.561  23.860  23.683  0.00  0.00    +0.000 A 
ATOM      5  C   UNL     1      28.760  23.755  22.327  0.00  0.00    +0.000 A 
ATOM      6  C   UNL     1      28.261  24.705  21.445  0.00  0.00    +0.000 A 
ATOM      7  C   UNL     1      27.549  25.776  21.963  0.00  0.00    +0.000 A 
ATOM      8  C   UNL     1      27.351  25.879  23.325  0.00  0.00    +0.000 A 
ATOM      9  C   UNL     1      26.590  27.025  23.891  0.00  0.00    +0.000 C 
ATOM     10  C   UNL     1      27.853  24.929  24.188  0.00  0.00    +0.000 A 
BRANCH   4  12
ATOM     11  C   UNL     1      30.599  22.845  24.557  0.00  0.00    +0.000 C 
ATOM     12  C   UNL     1      29.085  22.855  24.655  0.00  0.00    +0.000 C 
ENDBRANCH   4  12
ENDBRANCH   1  10
BRANCH   2  13
ATOM     13  C   UNL     1      26.164  24.522  27.599  0.00  0.00    +0.000 A 
ATOM     14  C   UNL     1      25.587  25.611  28.217  0.00  0.00    +0.000 A 
ATOM     15  C   UNL     1      25.339  25.567  29.577  0.00  0.00    +0.000 A 
ATOM     16  C   UNL     1      25.657  24.455  30.333  0.00  0.00    +0.000 A 
ATOM     17  C   UNL     1      26.241  23.349  29.722  0.00  0.00    +0.000 A 
ATOM     18  C   UNL     1      26.468  23.433  28.379  0.00  0.00    +0.000 A 
BRANCH  17  19
ATOM     19  N   UNL     1      26.575  22.201  30.485  0.00  0.00    +0.000 N 
ATOM     20  O   UNL     1      25.720  21.435  30.964  0.00  0.00    +0.000 OA
ATOM     21  O   UNL     1      27.895  21.916  30.710  0.00  0.00    +0.000 OA
ENDBRANCH  17  19
ENDBRANCH   2  13
TORSDOF 4
ENDMDL
MODEL 7
REMARK VINA RESULT:      -6.3     20.983     23.256
REMARK  Name = 
REMARK  4 active torsions:
REMARK  status: ('A' for Active; 'I' for Inactive)
REMARK    1  A    between atoms: C_2  and  C_3
REMARK    2  A    between atoms: C_9  and  N_10
REMARK    3  A    between atoms: C_11  and  C_13
REMARK    4  A    between atoms: C_17  and  N_18
REMARK                            x       y       z     vdW  Elec       q    Type
REMARK                         _______ _______ _______ _____ _____    ______ ____
ROOT
ATOM      1  N   UNL     1      21.960  -7.168  23.787  0.00  0.00    +0.000 NA
ATOM      2  C   UNL     1      21.545  -7.573  25.094  0.00  0.00    +0.000 C 
ATOM      3  O   UNL     1      22.258  -8.412  25.684  0.00  0.00    +0.000 OA
ENDROOT
BRANCH   1  10
ATOM      4  C   UNL     1      23.061  -8.845  22.408  0.00  0.00    +0.000 A 
ATOM      5  C   UNL     1      24.199  -9.399  21.871  0.00  0.00    +0.000 A 
ATOM      6  C   UNL     1      25.456  -8.872  22.133  0.00  0.00    +0.000 A 
ATOM      7  C   UNL     1      25.547  -7.761  22.958  0.00  0.00    +0.000 A 
ATOM      8  C   UNL     1      24.402  -7.207  23.496  0.00  0.00    +0.000 A 
ATOM      9  C   UNL     1      24.489  -6.016  24.384  0.00  0.00    +0.000 C 
ATOM     10  C   UNL     1      23.162  -7.741  23.227  0.00  0.00    +0.000 A 
BRANCH   4  12
ATOM     11  C   UNL     1      21.532 -10.667  22.945  0.00  0.00    +0.000 C 
ATOM     12  C   UNL     1      21.697  -9.389  22.144  0.00  0.00    +0.000 C 
ENDBRANCH   4  12
ENDBRANCH   1  10
BRANCH   2  13
ATOM     13  C   UNL     1      20.358  -7.063  25.744  0.00  0.00    +0.000 A 
ATOM     14  C   UNL     1      20.025  -5.726  25.775  0.00  0.00    +0.000 A 
ATOM     15  C   UNL     1      18.869  -5.329  26.423  0.00  0.00    +0.000 A 
ATOM     16  C   UNL     1      18.039  -6.243  27.042  0.00  0.00    +0.000 A 
ATOM     17  C   UNL     1      18.363  -7.596  27.019  0.00  0.00    +0.000 A 
ATOM     18  C   UNL     1      19.511  -7.945  26.369  0.00  0.00    +0.000 A 
BRANCH  17  19
ATOM     19  N   UNL     1      17.522  -8.548  27.651  0.00  0.00    +0.000 N 
ATOM     20  O   UNL     1      17.727  -8.972  28.801  0.00  0.00    +0.000 OA
ATOM     21  O   UNL     1      16.434  -9.026  26.970  0.00  0.00    +0.000 OA
ENDBRANCH  17  19
ENDBRANCH   2  13
TORSDOF 4
ENDMDL
MODEL 8
REMARK VINA RESULT:      -6.2      2.441      7.485
REMARK  Name = 
REMARK  4 active torsions:
REMARK  status: ('A' for Active; 'I' for Inactive)
REMARK    1  A    between atoms: C_2  and  C_3
REMARK    2  A    between atoms: C_9  and  N_10
REMARK    3  A    between atoms: C_11  and  C_13
REMARK    4  A    between atoms: C_17  and  N_18
REMARK                            x       y       z     vdW  Elec       q    Type
REMARK                         _______ _______ _______ _____ _____    ______ ____
ROOT
ATOM      1  N   UNL     1      18.034  10.816  38.239  0.00  0.00    +0.000 NA
ATOM      2  C   UNL     1      17.485  10.287  37.030  0.00  0.00    +0.000 C 
ATOM      3  O   UNL     1      17.793   9.114  36.729  0.00  0.00    +0.000 OA
ENDROOT
BRANCH   1  10
ATOM      4  C   UNL     1      20.250   9.947  38.749  0.00  0.00    +0.000 A 
ATOM      5  C   UNL     1      21.085   9.154  39.500  0.00  0.00    +0.000 A 
ATOM      6  C   UNL     1      20.603   8.381  40.548  0.00  0.00    +0.000 A 
ATOM      7  C   UNL     1      19.245   8.422  40.829  0.00  0.00    +0.000 A 
ATOM      8  C   UNL     1      18.409   9.220  40.073  0.00  0.00    +0.000 A 
ATOM      9  C   UNL     1      16.952   9.271  40.365  0.00  0.00    +0.000 C 
ATOM     10  C   UNL     1      18.902   9.981  39.036  0.00  0.00    +0.000 A 
BRANCH   4  12
ATOM     11  C   UNL     1      21.512   9.897  36.664  0.00  0.00    +0.000 C 
ATOM     12  C   UNL     1      20.738  10.788  37.617  0.00  0.00    +0.000 C 
ENDBRANCH   4  12
ENDBRANCH   1  10
BRANCH   2  13
ATOM     13  C   UNL     1      16.608  11.040  36.161  0.00  0.00    +0.000 A 
ATOM     14  C   UNL     1      15.875  12.130  36.580  0.00  0.00    +0.000 A 
ATOM     15  C   UNL     1      15.060  12.788  35.676  0.00  0.00    +0.000 A 
ATOM     16  C   UNL     1      14.962  12.378  34.361  0.00  0.00    +0.000 A 
ATOM     17  C   UNL     1      15.696  11.279  33.924  0.00  0.00    +0.000 A 
ATOM     18  C   UNL     1      16.488  10.659  34.847  0.00  0.00    +0.000 A 
BRANCH  17  19
ATOM     19  N   UNL     1      15.606  10.845  32.577  0.00  0.00    +0.000 N 
ATOM     20  O   UNL     1      14.556  10.908  31.915  0.00  0.00    +0.000 OA
ATOM     21  O   UNL     1      16.721  10.329  31.971  0.00  0.00    +0.000 OA
ENDBRANCH  17  19
ENDBRANCH   2  13
TORSDOF 4
ENDMDL
MODEL 9
REMARK VINA RESULT:      -6.2     20.042     21.976
REMARK  Name = 
REMARK  4 active torsions:
REMARK  status: ('A' for Active; 'I' for Inactive)
REMARK    1  A    between atoms: C_2  and  C_3
REMARK    2  A    between atoms: C_9  and  N_10
REMARK    3  A    between atoms: C_11  and  C_13
REMARK    4  A    between atoms: C_17  and  N_18
REMARK                            x       y       z     vdW  Elec       q    Type
REMARK                         _______ _______ _______ _____ _____    ______ ____
ROOT
ATOM      1  N   UNL     1      30.607  24.366  25.784  0.00  0.00    +0.000 NA
ATOM      2  C   UNL     1      30.551  23.718  24.510  0.00  0.00    +0.000 C 
ATOM      3  O   UNL     1      31.459  22.901  24.245  0.00  0.00    +0.000 OA
ENDROOT
BRANCH   1  10
ATOM      4  C   UNL     1      31.511  23.060  27.628  0.00  0.00    +0.000 A 
ATOM      5  C   UNL     1      32.536  22.748  28.490  0.00  0.00    +0.000 A 
ATOM      6  C   UNL     1      33.758  23.404  28.430  0.00  0.00    +0.000 A 
ATOM      7  C   UNL     1      33.930  24.394  27.475  0.00  0.00    +0.000 A 
ATOM      8  C   UNL     1      32.899  24.705  26.611  0.00  0.00    +0.000 A 
ATOM      9  C   UNL     1      33.072  25.766  25.583  0.00  0.00    +0.000 C 
ATOM     10  C   UNL     1      31.691  24.046  26.682  0.00  0.00    +0.000 A 
BRANCH   4  12
ATOM     11  C   UNL     1      29.340  23.034  28.738  0.00  0.00    +0.000 C 
ATOM     12  C   UNL     1      30.187  22.372  27.668  0.00  0.00    +0.000 C 
ENDBRANCH   4  12
ENDBRANCH   1  10
BRANCH   2  13
ATOM     13  C   UNL     1      29.511  23.968  23.538  0.00  0.00    +0.000 A 
ATOM     14  C   UNL     1      29.724  24.636  22.351  0.00  0.00    +0.000 A 
ATOM     15  C   UNL     1      28.666  24.830  21.481  0.00  0.00    +0.000 A 
ATOM     16  C   UNL     1      27.397  24.370  21.774  0.00  0.00    +0.000 A 
ATOM     17  C   UNL     1      27.167  23.694  22.969  0.00  0.00    +0.000 A 
ATOM     18  C   UNL     1      28.237  23.523  23.798  0.00  0.00    +0.000 A 
BRANCH  17  19
ATOM     19  N   UNL     1      25.869  23.217  23.285  0.00  0.00    +0.000 N 
ATOM     20  O   UNL     1      25.372  23.313  24.420  0.00  0.00    +0.000 OA
ATOM     21  O   UNL     1      25.125  22.620  22.302  0.00  0.00    +0.000 OA
ENDBRANCH  17  19
ENDBRANCH   2  13
TORSDOF 4
ENDMDL
MODEL 10
REMARK VINA RESULT:      -6.2      2.382      7.421
REMARK  Name = 
REMARK  4 active torsions:
REMARK  status: ('A' for Active; 'I' for Inactive)
REMARK    1  A    between atoms: C_2  and  C_3
REMARK    2  A    between atoms: C_9  and  N_10
REMARK    3  A    between atoms: C_11  and  C_13
REMARK    4  A    between atoms: C_17  and  N_18
REMARK                            x       y       z     vdW  Elec       q    Type
REMARK                         _______ _______ _______ _____ _____    ______ ____
ROOT
ATOM      1  N   UNL     1      18.128  10.708  38.230  0.00  0.00    +0.000 NA
ATOM      2  C   UNL     1      17.604  10.202  37.001  0.00  0.00    +0.000 C 
ATOM      3  O   UNL     1      17.990   9.070  36.639  0.00  0.00    +0.000 OA
ENDROOT
BRANCH   1  10
ATOM      4  C   UNL     1      18.585   9.073  39.974  0.00  0.00    +0.000 A 
ATOM      5  C   UNL     1      19.464   8.297  40.693  0.00  0.00    +0.000 A 
ATOM      6  C   UNL     1      20.828   8.322  40.438  0.00  0.00    +0.000 A 
ATOM      7  C   UNL     1      21.298   9.155  39.433  0.00  0.00    +0.000 A 
ATOM      8  C   UNL     1      20.412   9.932  38.713  0.00  0.00    +0.000 A 
ATOM      9  C   UNL     1      20.905  10.830  37.634  0.00  0.00    +0.000 C 
ATOM     10  C   UNL     1      19.061   9.897  38.978  0.00  0.00    +0.000 A 
BRANCH   4  12
ATOM     11  C   UNL     1      16.783   7.858  41.079  0.00  0.00    +0.000 C 
ATOM     12  C   UNL     1      17.114   9.067  40.225  0.00  0.00    +0.000 C 
ENDBRANCH   4  12
ENDBRANCH   1  10
BRANCH   2  13
ATOM     13  C   UNL     1      16.667  10.933  36.176  0.00  0.00    +0.000 A 
ATOM     14  C   UNL     1      15.652  11.713  36.688  0.00  0.00    +0.000 A 
ATOM     15  C   UNL     1      14.801  12.375  35.822  0.00  0.00    +0.000 A 
ATOM     16  C   UNL     1      14.945  12.273  34.451  0.00  0.00    +0.000 A 
ATOM     17  C   UNL     1      15.965  11.489  33.921  0.00  0.00    +0.000 A 
ATOM     18  C   UNL     1      16.782  10.853  34.810  0.00  0.00    +0.000 A 
BRANCH  17  19
ATOM     19  N   UNL     1      16.124  11.373  32.516  0.00  0.00    +0.000 N 
ATOM     20  O   UNL     1      16.640  10.381  31.974  0.00  0.00    +0.000 OA
ATOM     21  O   UNL     1      15.694  12.397  31.714  0.00  0.00    +0.000 OA
ENDBRANCH  17  19
ENDBRANCH   2  13
TORSDOF 4
ENDMDL
