MODEL 1
REMARK VINA RESULT:      -7.1      0.000      0.000
REMARK  Name = 
REMARK  4 active torsions:
REMARK  status: ('A' for Active; 'I' for Inactive)
REMARK    1  A    between atoms: C_6  and  N_7
REMARK    2  A    between atoms: N_7  and  C_8
REMARK    3  A    between atoms: C_8  and  N_10
REMARK    4  A    between atoms: C_11  and  C_13
REMARK                            x       y       z     vdW  Elec       q    Type
REMARK                         _______ _______ _______ _____ _____    ______ ____
ROOT
ATOM      1  N   UNL     1      14.395  13.175  36.070  0.00  0.00    +0.000 NA
ENDROOT
BRANCH   1   7
ATOM      2  C   UNL     1      14.342  13.032  30.364  0.00  0.00    +0.000 C 
ATOM      3  C   UNL     1      14.333  13.101  31.842  0.00  0.00    +0.000 A 
ATOM      4  C   UNL     1      13.644  14.073  32.543  0.00  0.00    +0.000 A 
ATOM      5  C   UNL     1      13.672  14.089  33.938  0.00  0.00    +0.000 A 
ATOM      6  O   UNL     1      12.979  15.066  34.635  0.00  0.00    +0.000 OA
ATOM      7  C   UNL     1      14.373  13.151  34.659  0.00  0.00    +0.000 A 
ATOM      8  C   UNL     1      15.058  12.183  33.961  0.00  0.00    +0.000 A 
ATOM      9  C   UNL     1      15.038  12.158  32.561  0.00  0.00    +0.000 A 
ATOM     10  C   UNL     1      15.784  11.106  31.806  0.00  0.00    +0.000 C 
ENDBRANCH   1   7
BRANCH   1  11
ATOM     11  C   UNL     1      14.230  12.065  36.896  0.00  0.00    +0.000 C 
ATOM     12  S   UNL     1      12.827  11.248  36.904  0.00  0.00    +0.000 S 
BRANCH  11  13
ATOM     13  N   UNL     1      15.284  11.639  37.735  0.00  0.00    +0.000 NA
ATOM     14  C   UNL     1      16.309  10.751  37.278  0.00  0.00    +0.000 C 
ATOM     15  O   UNL     1      16.206  10.377  36.074  0.00  0.00    +0.000 OA
BRANCH  14  16
ATOM     16  C   UNL     1      17.392  10.311  38.139  0.00  0.00    +0.000 A 
ATOM     17  C   UNL     1      17.224   9.816  39.408  0.00  0.00    +0.000 A 
ATOM     18  C   UNL     1      18.493   9.524  39.860  0.00  0.00    +0.000 A 
ATOM     19  C   UNL     1      19.361   9.854  38.849  0.00  0.00    +0.000 A 
ATOM     20  O   UNL     1      18.656  10.326  37.823  0.00  0.00    +0.000 OA
ENDBRANCH  14  16
ENDBRANCH  11  13
ENDBRANCH   1  11
TORSDOF 4
ENDMDL
MODEL 2
REMARK VINA RESULT:      -6.1      3.001      4.364
REMARK  Name = 
REMARK  4 active torsions:
REMARK  status: ('A' for Active; 'I' for Inactive)
REMARK    1  A    between atoms: C_6  and  N_7
REMARK    2  A    between atoms: N_7  and  C_8
REMARK    3  A    between atoms: C_8  and  N_10
REMARK    4  A    between atoms: C_11  and  C_13
REMARK                            x       y       z     vdW  Elec       q    Type
REMARK                         _______ _______ _______ _____ _____    ______ ____
ROOT
ATOM      1  N   UNL     1      16.859  11.809  36.602  0.00  0.00    +0.000 NA
ENDROOT
BRANCH   1   7
ATOM      2  C   UNL     1      11.223  11.470  37.448  0.00  0.00    +0.000 C 
ATOM      3  C   UNL     1      12.677  11.576  37.195  0.00  0.00    +0.000 A 
ATOM      4  C   UNL     1      13.200  12.195  36.075  0.00  0.00    +0.000 A 
ATOM      5  C   UNL     1      14.582  12.266  35.889  0.00  0.00    +0.000 A 
ATOM      6  O   UNL     1      15.099  12.887  34.764  0.00  0.00    +0.000 OA
ATOM      7  C   UNL     1      15.463  11.733  36.799  0.00  0.00    +0.000 A 
ATOM      8  C   UNL     1      14.943  11.117  37.915  0.00  0.00    +0.000 A 
ATOM      9  C   UNL     1      13.558  11.040  38.112  0.00  0.00    +0.000 A 
ATOM     10  C   UNL     1      12.997  10.371  39.324  0.00  0.00    +0.000 C 
ENDBRANCH   1   7
BRANCH   1  11
ATOM     11  C   UNL     1      17.694  10.725  36.341  0.00  0.00    +0.000 C 
ATOM     12  S   UNL     1      17.327   9.669  35.165  0.00  0.00    +0.000 S 
BRANCH  11  13
ATOM     13  N   UNL     1      18.871  10.534  37.100  0.00  0.00    +0.000 NA
ATOM     14  C   UNL     1      18.877   9.782  38.318  0.00  0.00    +0.000 C 
ATOM     15  O   UNL     1      17.760   9.303  38.665  0.00  0.00    +0.000 OA
BRANCH  14  16
ATOM     16  C   UNL     1      20.085   9.586  39.100  0.00  0.00    +0.000 A 
ATOM     17  C   UNL     1      20.270   8.567  40.001  0.00  0.00    +0.000 A 
ATOM     18  C   UNL     1      21.536   8.752  40.510  0.00  0.00    +0.000 A 
ATOM     19  C   UNL     1      22.053   9.867  39.898  0.00  0.00    +0.000 A 
ATOM     20  O   UNL     1      21.144  10.343  39.050  0.00  0.00    +0.000 OA
ENDBRANCH  14  16
ENDBRANCH  11  13
ENDBRANCH   1  11
TORSDOF 4
ENDMDL
MODEL 3
REMARK VINA RESULT:      -6.0     17.874     19.127
REMARK  Name = 
REMARK  4 active torsions:
REMARK  status: ('A' for Active; 'I' for Inactive)
REMARK    1  A    between atoms: C_6  and  N_7
REMARK    2  A    between atoms: N_7  and  C_8
REMARK    3  A    between atoms: C_8  and  N_10
REMARK    4  A    between atoms: C_11  and  C_13
REMARK                            x       y       z     vdW  Elec       q    Type
REMARK                         _______ _______ _______ _____ _____    ______ ____
ROOT
ATOM      1  N   UNL     1      28.009  22.316  28.004  0.00  0.00    +0.000 NA
ENDROOT
BRANCH   1   7
ATOM      2  C   UNL     1      29.357  23.899  22.687  0.00  0.00    +0.000 C 
ATOM      3  C   UNL     1      28.970  23.498  24.058  0.00  0.00    +0.000 A 
ATOM      4  C   UNL     1      27.668  23.559  24.518  0.00  0.00    +0.000 A 
ATOM      5  C   UNL     1      27.362  23.166  25.822  0.00  0.00    +0.000 A 
ATOM      6  O   UNL     1      26.055  23.230  26.277  0.00  0.00    +0.000 OA
ATOM      7  C   UNL     1      28.329  22.710  26.686  0.00  0.00    +0.000 A 
ATOM      8  C   UNL     1      29.625  22.649  26.229  0.00  0.00    +0.000 A 
ATOM      9  C   UNL     1      29.944  23.040  24.922  0.00  0.00    +0.000 A 
ATOM     10  C   UNL     1      31.353  22.973  24.429  0.00  0.00    +0.000 C 
ENDBRANCH   1   7
BRANCH   1  11
ATOM     11  C   UNL     1      28.221  23.084  29.147  0.00  0.00    +0.000 C 
ATOM     12  S   UNL     1      29.455  22.747  30.146  0.00  0.00    +0.000 S 
BRANCH  11  13
ATOM     13  N   UNL     1      27.363  24.166  29.447  0.00  0.00    +0.000 NA
ATOM     14  C   UNL     1      26.199  24.008  30.266  0.00  0.00    +0.000 C 
ATOM     15  O   UNL     1      25.995  22.839  30.700  0.00  0.00    +0.000 OA
BRANCH  14  16
ATOM     16  C   UNL     1      25.316  25.118  30.576  0.00  0.00    +0.000 A 
ATOM     17  C   UNL     1      24.735  25.934  29.638  0.00  0.00    +0.000 A 
ATOM     18  C   UNL     1      23.984  26.842  30.353  0.00  0.00    +0.000 A 
ATOM     19  C   UNL     1      24.146  26.533  31.681  0.00  0.00    +0.000 A 
ATOM     20  O   UNL     1      24.959  25.483  31.775  0.00  0.00    +0.000 OA
ENDBRANCH  14  16
ENDBRANCH  11  13
ENDBRANCH   1  11
TORSDOF 4
ENDMDL
MODEL 4
REMARK VINA RESULT:      -5.9     19.394     21.373
REMARK  Name = 
REMARK  4 active torsions:
REMARK  status: ('A' for Active; 'I' for Inactive)
REMARK    1  A    between atoms: C_6  and  N_7
REMARK    2  A    between atoms: N_7  and  C_8
REMARK    3  A    between atoms: C_8  and  N_10
REMARK    4  A    between atoms: C_11  and  C_13
REMARK                            x       y       z     vdW  Elec       q    Type
REMARK                         _______ _______ _______ _____ _____    ______ ____
ROOT
ATOM      1  N   UNL     1      27.273  22.896  25.405  0.00  0.00    +0.000 NA
ENDROOT
BRANCH   1   7
ATOM      2  C   UNL     1      23.619  26.402  28.041  0.00  0.00    +0.000 C 
ATOM      3  C   UNL     1      24.578  25.480  27.392  0.00  0.00    +0.000 A 
ATOM      4  C   UNL     1      25.383  24.613  28.106  0.00  0.00    +0.000 A 
ATOM      5  C   UNL     1      26.270  23.764  27.440  0.00  0.00    +0.000 A 
ATOM      6  O   UNL     1      27.074  22.897  28.162  0.00  0.00    +0.000 OA
ATOM      7  C   UNL     1      26.374  23.758  26.069  0.00  0.00    +0.000 A 
ATOM      8  C   UNL     1      25.572  24.621  25.359  0.00  0.00    +0.000 A 
ATOM      9  C   UNL     1      24.678  25.477  26.016  0.00  0.00    +0.000 A 
ATOM     10  C   UNL     1      23.810  26.414  25.241  0.00  0.00    +0.000 C 
ENDBRANCH   1   7
BRANCH   1  11
ATOM     11  C   UNL     1      28.593  23.205  25.084  0.00  0.00    +0.000 C 
ATOM     12  S   UNL     1      29.819  22.415  25.798  0.00  0.00    +0.000 S 
BRANCH  11  13
ATOM     13  N   UNL     1      28.879  24.211  24.134  0.00  0.00    +0.000 NA
ATOM     14  C   UNL     1      28.667  24.014  22.732  0.00  0.00    +0.000 C 
ATOM     15  O   UNL     1      28.209  22.882  22.406  0.00  0.00    +0.000 OA
BRANCH  14  16
ATOM     16  C   UNL     1      28.960  25.046  21.753  0.00  0.00    +0.000 A 
ATOM     17  C   UNL     1      28.552  26.353  21.855  0.00  0.00    +0.000 A 
ATOM     18  C   UNL     1      29.039  26.980  20.729  0.00  0.00    +0.000 A 
ATOM     19  C   UNL     1      29.714  26.028  20.004  0.00  0.00    +0.000 A 
ATOM     20  O   UNL     1      29.644  24.870  20.658  0.00  0.00    +0.000 OA
ENDBRANCH  14  16
ENDBRANCH  11  13
ENDBRANCH   1  11
TORSDOF 4
ENDMDL
MODEL 5
REMARK VINA RESULT:      -5.9     21.916     23.834
REMARK  Name = 
REMARK  4 active torsions:
REMARK  status: ('A' for Active; 'I' for Inactive)
REMARK    1  A    between atoms: C_6  and  N_7
REMARK    2  A    between atoms: N_7  and  C_8
REMARK    3  A    between atoms: C_8  and  N_10
REMARK    4  A    between atoms: C_11  and  C_13
REMARK                            x       y       z     vdW  Elec       q    Type
REMARK                         _______ _______ _______ _____ _____    ______ ____
ROOT
ATOM      1  N   UNL     1      29.330  22.970  23.855  0.00  0.00    +0.000 NA
ENDROOT
BRANCH   1   7
ATOM      2  C   UNL     1      33.442  24.232  27.609  0.00  0.00    +0.000 C 
ATOM      3  C   UNL     1      32.356  23.888  26.665  0.00  0.00    +0.000 A 
ATOM      4  C   UNL     1      31.197  23.244  27.057  0.00  0.00    +0.000 A 
ATOM      5  C   UNL     1      30.205  22.945  26.121  0.00  0.00    +0.000 A 
ATOM      6  O   UNL     1      29.047  22.300  26.521  0.00  0.00    +0.000 OA
ATOM      7  C   UNL     1      30.340  23.276  24.794  0.00  0.00    +0.000 A 
ATOM      8  C   UNL     1      31.492  23.918  24.403  0.00  0.00    +0.000 A 
ATOM      9  C   UNL     1      32.495  24.223  25.333  0.00  0.00    +0.000 A 
ATOM     10  C   UNL     1      33.745  24.919  24.906  0.00  0.00    +0.000 C 
ENDBRANCH   1   7
BRANCH   1  11
ATOM     11  C   UNL     1      28.299  23.826  23.475  0.00  0.00    +0.000 C 
ATOM     12  S   UNL     1      26.759  23.473  23.844  0.00  0.00    +0.000 S 
BRANCH  11  13
ATOM     13  N   UNL     1      28.585  25.013  22.763  0.00  0.00    +0.000 NA
ATOM     14  C   UNL     1      29.153  24.994  21.450  0.00  0.00    +0.000 C 
ATOM     15  O   UNL     1      29.379  23.845  20.973  0.00  0.00    +0.000 OA
BRANCH  14  16
ATOM     16  C   UNL     1      29.449  26.212  20.717  0.00  0.00    +0.000 A 
ATOM     17  C   UNL     1      29.132  27.476  21.150  0.00  0.00    +0.000 A 
ATOM     18  C   UNL     1      29.586  28.327  20.165  0.00  0.00    +0.000 A 
ATOM     19  C   UNL     1      30.150  27.542  19.190  0.00  0.00    +0.000 A 
ATOM     20  O   UNL     1      30.048  26.267  19.561  0.00  0.00    +0.000 OA
ENDBRANCH  14  16
ENDBRANCH  11  13
ENDBRANCH   1  11
TORSDOF 4
ENDMDL
MODEL 6
REMARK VINA RESULT:      -5.9     17.937     19.248
REMARK  Name = 
REMARK  4 active torsions:
REMARK  status: ('A' for Active; 'I' for Inactive)
REMARK    1  A    between atoms: C_6  and  N_7
REMARK    2  A    between atoms: N_7  and  C_8
REMARK    3  A    between atoms: C_8  and  N_10
REMARK    4  A    between atoms: C_11  and  C_13
REMARK                            x       y       z     vdW  Elec       q    Type
REMARK                         _______ _______ _______ _____ _____    ______ ____
ROOT
ATOM      1  N   UNL     1      28.742  22.112  27.392  0.00  0.00    +0.000 NA
ENDROOT
BRANCH   1   7
ATOM      2  C   UNL     1      27.520  23.842  22.090  0.00  0.00    +0.000 C 
ATOM      3  C   UNL     1      27.874  23.392  23.455  0.00  0.00    +0.000 A 
ATOM      4  C   UNL     1      29.177  23.151  23.850  0.00  0.00    +0.000 A 
ATOM      5  C   UNL     1      29.452  22.729  25.152  0.00  0.00    +0.000 A 
ATOM      6  O   UNL     1      30.760  22.489  25.542  0.00  0.00    +0.000 OA
ATOM      7  C   UNL     1      28.453  22.540  26.078  0.00  0.00    +0.000 A 
ATOM      8  C   UNL     1      27.157  22.780  25.684  0.00  0.00    +0.000 A 
ATOM      9  C   UNL     1      26.868  23.204  24.381  0.00  0.00    +0.000 A 
ATOM     10  C   UNL     1      25.460  23.463  23.957  0.00  0.00    +0.000 C 
ENDBRANCH   1   7
BRANCH   1  11
ATOM     11  C   UNL     1      28.996  22.954  28.473  0.00  0.00    +0.000 C 
ATOM     12  S   UNL     1      30.374  22.812  29.319  0.00  0.00    +0.000 S 
BRANCH  11  13
ATOM     13  N   UNL     1      28.054  23.940  28.845  0.00  0.00    +0.000 NA
ATOM     14  C   UNL     1      26.924  23.640  29.671  0.00  0.00    +0.000 C 
ATOM     15  O   UNL     1      26.829  22.436  30.044  0.00  0.00    +0.000 OA
BRANCH  14  16
ATOM     16  C   UNL     1      25.955  24.651  30.053  0.00  0.00    +0.000 A 
ATOM     17  C   UNL     1      25.291  25.464  29.170  0.00  0.00    +0.000 A 
ATOM     18  C   UNL     1      24.479  26.264  29.944  0.00  0.00    +0.000 A 
ATOM     19  C   UNL     1      24.690  25.899  31.251  0.00  0.00    +0.000 A 
ATOM     20  O   UNL     1      25.591  24.919  31.275  0.00  0.00    +0.000 OA
ENDBRANCH  14  16
ENDBRANCH  11  13
ENDBRANCH   1  11
TORSDOF 4
ENDMDL
MODEL 7
REMARK VINA RESULT:      -5.9      3.152      4.272
REMARK  Name = 
REMARK  4 active torsions:
REMARK  status: ('A' for Active; 'I' for Inactive)
REMARK    1  A    between atoms: C_6  and  N_7
REMARK    2  A    between atoms: N_7  and  C_8
REMARK    3  A    between atoms: C_8  and  N_10
REMARK    4  A    between atoms: C_11  and  C_13
REMARK                            x       y       z     vdW  Elec       q    Type
REMARK                         _______ _______ _______ _____ _____    ______ ____
ROOT
ATOM      1  N   UNL     1      17.463  11.447  37.361  0.00  0.00    +0.000 NA
ENDROOT
BRANCH   1   7
ATOM      2  C   UNL     1      14.737  11.306  32.346  0.00  0.00    +0.000 C 
ATOM      3  C   UNL     1      15.414  11.363  33.661  0.00  0.00    +0.000 A 
ATOM      4  C   UNL     1      14.849  11.965  34.770  0.00  0.00    +0.000 A 
ATOM      5  C   UNL     1      15.534  11.988  35.986  0.00  0.00    +0.000 A 
ATOM      6  O   UNL     1      14.963  12.594  37.093  0.00  0.00    +0.000 OA
ATOM      7  C   UNL     1      16.778  11.419  36.126  0.00  0.00    +0.000 A 
ATOM      8  C   UNL     1      17.340  10.819  35.023  0.00  0.00    +0.000 A 
ATOM      9  C   UNL     1      16.662  10.790  33.798  0.00  0.00    +0.000 A 
ATOM     10  C   UNL     1      17.275  10.138  32.602  0.00  0.00    +0.000 C 
ENDBRANCH   1   7
BRANCH   1  11
ATOM     11  C   UNL     1      18.277  10.428  37.851  0.00  0.00    +0.000 C 
ATOM     12  S   UNL     1      17.762   9.476  39.061  0.00  0.00    +0.000 S 
BRANCH  11  13
ATOM     13  N   UNL     1      19.560  10.213  37.300  0.00  0.00    +0.000 NA
ATOM     14  C   UNL     1      20.722  10.890  37.792  0.00  0.00    +0.000 C 
ATOM     15  O   UNL     1      20.519  11.689  38.750  0.00  0.00    +0.000 OA
BRANCH  14  16
ATOM     16  C   UNL     1      22.041  10.671  37.227  0.00  0.00    +0.000 A 
ATOM     17  C   UNL     1      22.371   9.623  36.404  0.00  0.00    +0.000 A 
ATOM     18  C   UNL     1      23.704   9.796  36.103  0.00  0.00    +0.000 A 
ATOM     19  C   UNL     1      24.114  10.934  36.754  0.00  0.00    +0.000 A 
ATOM     20  O   UNL     1      23.078  11.435  37.423  0.00  0.00    +0.000 OA
ENDBRANCH  14  16
ENDBRANCH  11  13
ENDBRANCH   1  11
TORSDOF 4
ENDMDL
MODEL 8
REMARK VINA RESULT:      -5.8      4.285      8.163
REMARK  Name = 
REMARK  4 active torsions:
REMARK  status: ('A' for Active; 'I' for Inactive)
REMARK    1  A    between atoms: C_6  and  N_7
REMARK    2  A    between atoms: N_7  and  C_8
REMARK    3  A    between atoms: C_8  and  N_10
REMARK    4  A    between atoms: C_11  and  C_13
REMARK                            x       y       z     vdW  Elec       q    Type
REMARK                         _______ _______ _______ _____ _____    ______ ____
ROOT
ATOM      1  N   UNL     1      21.023  10.111  37.298  0.00  0.00    +0.000 NA
ENDROOT
BRANCH   1   7
ATOM      2  C   UNL     1      25.440  13.660  37.996  0.00  0.00    +0.000 C 
ATOM      3  C   UNL     1      24.317  12.718  37.792  0.00  0.00    +0.000 A 
ATOM      4  C   UNL     1      24.428  11.575  37.022  0.00  0.00    +0.000 A 
ATOM      5  C   UNL     1      23.334  10.722  36.865  0.00  0.00    +0.000 A 
ATOM      6  O   UNL     1      23.452   9.579  36.092  0.00  0.00    +0.000 OA
ATOM      7  C   UNL     1      22.123  10.981  37.462  0.00  0.00    +0.000 A 
ATOM      8  C   UNL     1      22.013  12.118  38.230  0.00  0.00    +0.000 A 
ATOM      9  C   UNL     1      23.104  12.981  38.394  0.00  0.00    +0.000 A 
ATOM     10  C   UNL     1      22.980  14.215  39.227  0.00  0.00    +0.000 C 
ENDBRANCH   1   7
BRANCH   1  11
ATOM     11  C   UNL     1      19.948  10.000  38.178  0.00  0.00    +0.000 C 
ATOM     12  S   UNL     1      20.065   9.071  39.504  0.00  0.00    +0.000 S 
BRANCH  11  13
ATOM     13  N   UNL     1      18.744  10.694  37.923  0.00  0.00    +0.000 NA
ATOM     14  C   UNL     1      17.735  10.172  37.053  0.00  0.00    +0.000 C 
ATOM     15  O   UNL     1      17.995   9.051  36.531  0.00  0.00    +0.000 OA
BRANCH  14  16
ATOM     16  C   UNL     1      16.497  10.885  36.790  0.00  0.00    +0.000 A 
ATOM     17  C   UNL     1      15.536  11.149  37.734  0.00  0.00    +0.000 A 
ATOM     18  C   UNL     1      14.544  11.835  37.068  0.00  0.00    +0.000 A 
ATOM     19  C   UNL     1      14.949  11.951  35.761  0.00  0.00    +0.000 A 
ATOM     20  O   UNL     1      16.137  11.363  35.633  0.00  0.00    +0.000 OA
ENDBRANCH  14  16
ENDBRANCH  11  13
ENDBRANCH   1  11
TORSDOF 4
ENDMDL
MODEL 9
REMARK VINA RESULT:      -5.8      9.303     11.393
REMARK  Name = 
REMARK  4 active torsions:
REMARK  status: ('A' for Active; 'I' for Inactive)
REMARK    1  A    between atoms: C_6  and  N_7
REMARK    2  A    between atoms: N_7  and  C_8
REMARK    3  A    between atoms: C_8  and  N_10
REMARK    4  A    between atoms: C_11  and  C_13
REMARK                            x       y       z     vdW  Elec       q    Type
REMARK                         _______ _______ _______ _____ _____    ______ ____
ROOT
ATOM      1  N   UNL     1      21.051  21.214  38.393  0.00  0.00    +0.000 NA
ENDROOT
BRANCH   1   7
ATOM      2  C   UNL     1      20.569  15.550  38.915  0.00  0.00    +0.000 C 
ATOM      3  C   UNL     1      20.655  17.021  38.785  0.00  0.00    +0.000 A 
ATOM      4  C   UNL     1      19.554  17.850  38.894  0.00  0.00    +0.000 A 
ATOM      5  C   UNL     1      19.696  19.232  38.763  0.00  0.00    +0.000 A 
ATOM      6  O   UNL     1      18.588  20.057  38.874  0.00  0.00    +0.000 OA
ATOM      7  C   UNL     1      20.918  19.815  38.524  0.00  0.00    +0.000 A 
ATOM      8  C   UNL     1      22.014  18.990  38.415  0.00  0.00    +0.000 A 
ATOM      9  C   UNL     1      21.884  17.602  38.545  0.00  0.00    +0.000 A 
ATOM     10  C   UNL     1      23.077  16.709  38.426  0.00  0.00    +0.000 C 
ENDBRANCH   1   7
BRANCH   1  11
ATOM     11  C   UNL     1      21.264  21.892  37.194  0.00  0.00    +0.000 C 
ATOM     12  S   UNL     1      22.268  23.167  37.138  0.00  0.00    +0.000 S 
BRANCH  11  13
ATOM     13  N   UNL     1      20.608  21.476  36.014  0.00  0.00    +0.000 NA
ATOM     14  C   UNL     1      19.235  21.790  35.757  0.00  0.00    +0.000 C 
ATOM     15  O   UNL     1      18.655  22.463  36.656  0.00  0.00    +0.000 OA
BRANCH  14  16
ATOM     16  C   UNL     1      18.558  21.363  34.546  0.00  0.00    +0.000 A 
ATOM     17  C   UNL     1      17.240  21.621  34.259  0.00  0.00    +0.000 A 
ATOM     18  C   UNL     1      17.011  21.045  33.029  0.00  0.00    +0.000 A 
ATOM     19  C   UNL     1      18.194  20.470  32.632  0.00  0.00    +0.000 A 
ATOM     20  O   UNL     1      19.106  20.685  33.578  0.00  0.00    +0.000 OA
ENDBRANCH  14  16
ENDBRANCH  11  13
ENDBRANCH   1  11
TORSDOF 4
ENDMDL
MODEL 10
REMARK VINA RESULT:      -5.8     19.303     21.174
REMARK  Name = 
REMARK  4 active torsions:
REMARK  status: ('A' for Active; 'I' for Inactive)
REMARK    1  A    between atoms: C_6  and  N_7
REMARK    2  A    between atoms: N_7  and  C_8
REMARK    3  A    between atoms: C_8  and  N_10
REMARK    4  A    between atoms: C_11  and  C_13
REMARK                            x       y       z     vdW  Elec       q    Type
REMARK                         _______ _______ _______ _____ _____    ______ ____
ROOT
ATOM      1  N   UNL     1      27.946  22.976  23.403  0.00  0.00    +0.000 NA
ENDROOT
BRANCH   1   7
ATOM      2  C   UNL     1      32.045  23.163  27.373  0.00  0.00    +0.000 C 
ATOM      3  C   UNL     1      30.958  23.102  26.371  0.00  0.00    +0.000 A 
ATOM      4  C   UNL     1      29.672  22.704  26.684  0.00  0.00    +0.000 A 
ATOM      5  C   UNL     1      28.685  22.665  25.697  0.00  0.00    +0.000 A 
ATOM      6  O   UNL     1      27.398  22.265  26.017  0.00  0.00    +0.000 OA
ATOM      7  C   UNL     1      28.951  23.018  24.395  0.00  0.00    +0.000 A 
ATOM      8  C   UNL     1      30.231  23.414  24.083  0.00  0.00    +0.000 A 
ATOM      9  C   UNL     1      31.229  23.457  25.065  0.00  0.00    +0.000 A 
ATOM     10  C   UNL     1      32.618  23.888  24.724  0.00  0.00    +0.000 C 
ENDBRANCH   1   7
BRANCH   1  11
ATOM     11  C   UNL     1      27.145  24.051  23.025  0.00  0.00    +0.000 C 
ATOM     12  S   UNL     1      27.513  24.926  21.708  0.00  0.00    +0.000 S 
BRANCH  11  13
ATOM     13  N   UNL     1      26.004  24.391  23.786  0.00  0.00    +0.000 NA
ATOM     14  C   UNL     1      26.052  25.364  24.835  0.00  0.00    +0.000 C 
ATOM     15  O   UNL     1      27.182  25.895  25.031  0.00  0.00    +0.000 OA
BRANCH  14  16
ATOM     16  C   UNL     1      24.880  25.715  25.618  0.00  0.00    +0.000 A 
ATOM     17  C   UNL     1      23.828  26.462  25.151  0.00  0.00    +0.000 A 
ATOM     18  C   UNL     1      22.945  26.555  26.204  0.00  0.00    +0.000 A 
ATOM     19  C   UNL     1      23.503  25.864  27.252  0.00  0.00    +0.000 A 
ATOM     20  O   UNL     1      24.674  25.370  26.857  0.00  0.00    +0.000 OA
ENDBRANCH  14  16
ENDBRANCH  11  13
ENDBRANCH   1  11
TORSDOF 4
ENDMDL
