MODEL 1
REMARK VINA RESULT:      -7.6      0.000      0.000
REMARK  Name = 
REMARK  8 active torsions:
REMARK  status: ('A' for Active; 'I' for Inactive)
REMARK    1  A    between atoms: C_2  and  C_3
REMARK    2  A    between atoms: C_3  and  C_4
REMARK    3  A    between atoms: C_4  and  N_5
REMARK    4  A    between atoms: C_6  and  C_8
REMARK    5  A    between atoms: C_9  and  C_10
REMARK    6  A    between atoms: C_13  and  N_14
REMARK    7  A    between atoms: C_21  and  C_22
REMARK    8  A    between atoms: C_25  and  C_26
REMARK                            x       y       z     vdW  Elec       q    Type
REMARK                         _______ _______ _______ _____ _____    ______ ____
ROOT
ATOM      1  C   UNL     1      36.874   1.888  14.543  0.00  0.00    +0.000 C 
ATOM      2  C   UNL     1      37.708   1.783  13.601  0.00  0.00    +0.000 C 
ATOM      3  N   UNL     1      37.721   3.023  12.970  0.00  0.00    +0.000 NA
ATOM      4  O   UNL     1      36.848   3.847  13.318  0.00  0.00    +0.000 OA
ATOM      5  C   UNL     1      36.208   3.329  14.565  0.00  0.00    +0.000 C 
ENDROOT
BRANCH   2   6
ATOM      6  C   UNL     1      38.555   0.628  13.189  0.00  0.00    +0.000 A 
ATOM      7  C   UNL     1      38.092  -0.462  12.517  0.00  0.00    +0.000 A 
ATOM      8  C   UNL     1      38.927  -1.505  12.159  0.00  0.00    +0.000 A 
ATOM      9  C   UNL     1      40.279  -1.449  12.488  0.00  0.00    +0.000 A 
ATOM     10  C   UNL     1      40.751  -0.358  13.163  0.00  0.00    +0.000 A 
ATOM     11  C   UNL     1      39.900   0.657  13.505  0.00  0.00    +0.000 A 
BRANCH   9  12
ATOM     12  N   UNL     1      41.185  -2.476  12.158  0.00  0.00    +0.000 N 
ATOM     13  C   UNL     1      41.094  -3.152  10.881  0.00  0.00    +0.000 C 
ATOM     14  C   UNL     1      42.235  -2.889  13.072  0.00  0.00    +0.000 C 
ENDBRANCH   9  12
ENDBRANCH   2   6
BRANCH   5  15
ATOM     15  C   UNL     1      37.149   3.971  15.655  0.00  0.00    +0.000 A 
ATOM     16  C   UNL     1      37.310   3.591  16.907  0.00  0.00    +0.000 A 
ATOM     17  C   UNL     1      38.159   4.243  17.778  0.00  0.00    +0.000 A 
ATOM     18  C   UNL     1      38.869   5.324  17.351  0.00  0.00    +0.000 A 
ATOM     19  C   UNL     1      38.725   5.747  16.054  0.00  0.00    +0.000 A 
ATOM     20  C   UNL     1      37.849   5.057  15.193  0.00  0.00    +0.000 A 
BRANCH  18  21
ATOM     21  C   UNL     1      39.780   6.033  18.284  0.00  0.00    +0.000 A 
ATOM     22  C   UNL     1      41.113   6.221  18.001  0.00  0.00    +0.000 A 
ATOM     23  C   UNL     1      41.955   6.877  18.869  0.00  0.00    +0.000 A 
ATOM     24  C   UNL     1      41.491   7.373  20.059  0.00  0.00    +0.000 A 
ATOM     25  C   UNL     1      40.155   7.189  20.347  0.00  0.00    +0.000 A 
ATOM     26  C   UNL     1      39.307   6.531  19.481  0.00  0.00    +0.000 A 
ENDBRANCH  18  21
ENDBRANCH   5  15
BRANCH   1  28
ATOM     27  N   UNL     1      37.365   0.084  16.244  0.00  0.00    +0.000 NA
ATOM     28  C   UNL     1      36.471   0.904  15.538  0.00  0.00    +0.000 C 
ATOM     29  O   UNL     1      35.263   0.748  15.812  0.00  0.00    +0.000 OA
BRANCH  27  30
ATOM     30  C   UNL     1      37.135  -0.898  17.219  0.00  0.00    +0.000 C 
BRANCH  30  31
ATOM     31  C   UNL     1      37.884  -2.178  17.074  0.00  0.00    +0.000 C 
BRANCH  31  33
ATOM     32  C   UNL     1      39.806  -3.205  15.874  0.00  0.00    +0.000 C 
ATOM     33  C   UNL     1      39.055  -1.902  16.117  0.00  0.00    +0.000 C 
ENDBRANCH  31  33
ENDBRANCH  30  31
ENDBRANCH  27  30
ENDBRANCH   1  28
TORSDOF 8
ENDMDL
MODEL 2
REMARK VINA RESULT:      -7.6      2.238      7.743
REMARK  Name = 
REMARK  8 active torsions:
REMARK  status: ('A' for Active; 'I' for Inactive)
REMARK    1  A    between atoms: C_2  and  C_3
REMARK    2  A    between atoms: C_3  and  C_4
REMARK    3  A    between atoms: C_4  and  N_5
REMARK    4  A    between atoms: C_6  and  C_8
REMARK    5  A    between atoms: C_9  and  C_10
REMARK    6  A    between atoms: C_13  and  N_14
REMARK    7  A    between atoms: C_21  and  C_22
REMARK    8  A    between atoms: C_25  and  C_26
REMARK                            x       y       z     vdW  Elec       q    Type
REMARK                         _______ _______ _______ _____ _____    ______ ____
ROOT
ATOM      1  C   UNL     1      37.403   2.834  14.500  0.00  0.00    +0.000 C 
ATOM      2  C   UNL     1      37.255   3.525  15.546  0.00  0.00    +0.000 C 
ATOM      3  N   UNL     1      35.912   3.405  15.888  0.00  0.00    +0.000 NA
ATOM      4  O   UNL     1      35.162   2.845  15.061  0.00  0.00    +0.000 OA
ATOM      5  C   UNL     1      36.029   2.188  14.036  0.00  0.00    +0.000 C 
ENDROOT
BRANCH   2   6
ATOM      6  C   UNL     1      38.249   4.315  16.326  0.00  0.00    +0.000 A 
ATOM      7  C   UNL     1      39.242   5.063  15.770  0.00  0.00    +0.000 A 
ATOM      8  C   UNL     1      40.136   5.779  16.546  0.00  0.00    +0.000 A 
ATOM      9  C   UNL     1      40.026   5.742  17.934  0.00  0.00    +0.000 A 
ATOM     10  C   UNL     1      39.032   4.993  18.499  0.00  0.00    +0.000 A 
ATOM     11  C   UNL     1      38.163   4.295  17.705  0.00  0.00    +0.000 A 
BRANCH   9  12
ATOM     12  N   UNL     1      40.904   6.443  18.785  0.00  0.00    +0.000 N 
ATOM     13  C   UNL     1      40.455   6.905  20.082  0.00  0.00    +0.000 C 
ATOM     14  C   UNL     1      42.275   6.723  18.400  0.00  0.00    +0.000 C 
ENDBRANCH   9  12
ENDBRANCH   2   6
BRANCH   5  15
ATOM     15  C   UNL     1      36.234   0.774  14.703  0.00  0.00    +0.000 A 
ATOM     16  C   UNL     1      35.968   0.424  15.946  0.00  0.00    +0.000 A 
ATOM     17  C   UNL     1      36.204  -0.849  16.425  0.00  0.00    +0.000 A 
ATOM     18  C   UNL     1      36.731  -1.797  15.601  0.00  0.00    +0.000 A 
ATOM     19  C   UNL     1      37.019  -1.466  14.302  0.00  0.00    +0.000 A 
ATOM     20  C   UNL     1      36.766  -0.157  13.848  0.00  0.00    +0.000 A 
BRANCH  18  21
ATOM     21  C   UNL     1      36.991  -3.167  16.111  0.00  0.00    +0.000 A 
ATOM     22  C   UNL     1      38.125  -3.478  16.823  0.00  0.00    +0.000 A 
ATOM     23  C   UNL     1      38.364  -4.749  17.293  0.00  0.00    +0.000 A 
ATOM     24  C   UNL     1      37.470  -5.762  17.064  0.00  0.00    +0.000 A 
ATOM     25  C   UNL     1      36.330  -5.455  16.351  0.00  0.00    +0.000 A 
ATOM     26  C   UNL     1      36.086  -4.183  15.878  0.00  0.00    +0.000 A 
ENDBRANCH  18  21
ENDBRANCH   5  15
BRANCH   1  28
ATOM     27  N   UNL     1      39.692   1.818  14.159  0.00  0.00    +0.000 NA
ATOM     28  C   UNL     1      38.605   2.586  13.715  0.00  0.00    +0.000 C 
ATOM     29  O   UNL     1      38.716   3.068  12.569  0.00  0.00    +0.000 OA
BRANCH  27  30
ATOM     30  C   UNL     1      40.903   1.492  13.530  0.00  0.00    +0.000 C 
BRANCH  30  31
ATOM     31  C   UNL     1      41.389   0.093  13.689  0.00  0.00    +0.000 C 
BRANCH  31  33
ATOM     32  C   UNL     1      40.759  -2.091  14.702  0.00  0.00    +0.000 C 
ATOM     33  C   UNL     1      40.426  -0.605  14.663  0.00  0.00    +0.000 C 
ENDBRANCH  31  33
ENDBRANCH  30  31
ENDBRANCH  27  30
ENDBRANCH   1  28
TORSDOF 8
ENDMDL
MODEL 3
REMARK VINA RESULT:      -7.5      1.413      2.096
REMARK  Name = 
REMARK  8 active torsions:
REMARK  status: ('A' for Active; 'I' for Inactive)
REMARK    1  A    between atoms: C_2  and  C_3
REMARK    2  A    between atoms: C_3  and  C_4
REMARK    3  A    between atoms: C_4  and  N_5
REMARK    4  A    between atoms: C_6  and  C_8
REMARK    5  A    between atoms: C_9  and  C_10
REMARK    6  A    between atoms: C_13  and  N_14
REMARK    7  A    between atoms: C_21  and  C_22
REMARK    8  A    between atoms: C_25  and  C_26
REMARK                            x       y       z     vdW  Elec       q    Type
REMARK                         _______ _______ _______ _____ _____    ______ ____
ROOT
ATOM      1  C   UNL     1      37.509   1.397  14.054  0.00  0.00    +0.000 C 
ATOM      2  C   UNL     1      38.295   1.275  13.074  0.00  0.00    +0.000 C 
ATOM      3  N   UNL     1      38.149   2.440  12.327  0.00  0.00    +0.000 NA
ATOM      4  O   UNL     1      37.218   3.208  12.649  0.00  0.00    +0.000 OA
ATOM      5  C   UNL     1      36.702   2.763  13.979  0.00  0.00    +0.000 C 
ENDROOT
BRANCH   2   6
ATOM      6  C   UNL     1      39.231   0.169  12.723  0.00  0.00    +0.000 A 
ATOM      7  C   UNL     1      38.864  -0.968  12.070  0.00  0.00    +0.000 A 
ATOM      8  C   UNL     1      39.777  -1.961  11.768  0.00  0.00    +0.000 A 
ATOM      9  C   UNL     1      41.112  -1.804  12.136  0.00  0.00    +0.000 A 
ATOM     10  C   UNL     1      41.488  -0.666  12.792  0.00  0.00    +0.000 A 
ATOM     11  C   UNL     1      40.560   0.299  13.077  0.00  0.00    +0.000 A 
BRANCH   9  12
ATOM     12  N   UNL     1      42.095  -2.777  11.863  0.00  0.00    +0.000 N 
ATOM     13  C   UNL     1      43.240  -2.927  12.737  0.00  0.00    +0.000 C 
ATOM     14  C   UNL     1      41.997  -3.657  10.713  0.00  0.00    +0.000 C 
ENDBRANCH   9  12
ENDBRANCH   2   6
BRANCH   5  15
ATOM     15  C   UNL     1      37.633   3.600  14.938  0.00  0.00    +0.000 A 
ATOM     16  C   UNL     1      38.726   4.267  14.621  0.00  0.00    +0.000 A 
ATOM     17  C   UNL     1      39.472   4.957  15.555  0.00  0.00    +0.000 A 
ATOM     18  C   UNL     1      39.084   4.965  16.860  0.00  0.00    +0.000 A 
ATOM     19  C   UNL     1      37.952   4.282  17.225  0.00  0.00    +0.000 A 
ATOM     20  C   UNL     1      37.216   3.588  16.245  0.00  0.00    +0.000 A 
BRANCH  18  21
ATOM     21  C   UNL     1      39.884   5.702  17.871  0.00  0.00    +0.000 A 
ATOM     22  C   UNL     1      39.419   5.933  19.144  0.00  0.00    +0.000 A 
ATOM     23  C   UNL     1      40.162   6.617  20.078  0.00  0.00    +0.000 A 
ATOM     24  C   UNL     1      41.407   7.098  19.768  0.00  0.00    +0.000 A 
ATOM     25  C   UNL     1      41.879   6.869  18.493  0.00  0.00    +0.000 A 
ATOM     26  C   UNL     1      41.138   6.184  17.554  0.00  0.00    +0.000 A 
ENDBRANCH  18  21
ENDBRANCH   5  15
BRANCH   1  28
ATOM     27  N   UNL     1      36.006  -0.053  15.476  0.00  0.00    +0.000 NA
ATOM     28  C   UNL     1      37.262   0.487  15.164  0.00  0.00    +0.000 C 
ATOM     29  O   UNL     1      38.201   0.142  15.911  0.00  0.00    +0.000 OA
BRANCH  27  30
ATOM     30  C   UNL     1      35.612  -0.929  16.499  0.00  0.00    +0.000 C 
BRANCH  30  31
ATOM     31  C   UNL     1      34.759  -0.361  17.580  0.00  0.00    +0.000 C 
BRANCH  31  33
ATOM     32  C   UNL     1      36.716  -1.250  18.834  0.00  0.00    +0.000 C 
ATOM     33  C   UNL     1      35.671  -0.142  18.798  0.00  0.00    +0.000 C 
ENDBRANCH  31  33
ENDBRANCH  30  31
ENDBRANCH  27  30
ENDBRANCH   1  28
TORSDOF 8
ENDMDL
MODEL 4
REMARK VINA RESULT:      -7.3      1.656      2.676
REMARK  Name = 
REMARK  8 active torsions:
REMARK  status: ('A' for Active; 'I' for Inactive)
REMARK    1  A    between atoms: C_2  and  C_3
REMARK    2  A    between atoms: C_3  and  C_4
REMARK    3  A    between atoms: C_4  and  N_5
REMARK    4  A    between atoms: C_6  and  C_8
REMARK    5  A    between atoms: C_9  and  C_10
REMARK    6  A    between atoms: C_13  and  N_14
REMARK    7  A    between atoms: C_21  and  C_22
REMARK    8  A    between atoms: C_25  and  C_26
REMARK                            x       y       z     vdW  Elec       q    Type
REMARK                         _______ _______ _______ _____ _____    ______ ____
ROOT
ATOM      1  C   UNL     1      37.592   3.909  15.340  0.00  0.00    +0.000 C 
ATOM      2  C   UNL     1      38.312   3.529  14.375  0.00  0.00    +0.000 C 
ATOM      3  N   UNL     1      38.770   4.693  13.766  0.00  0.00    +0.000 NA
ATOM      4  O   UNL     1      38.268   5.771  14.151  0.00  0.00    +0.000 OA
ATOM      5  C   UNL     1      37.504   5.493  15.405  0.00  0.00    +0.000 C 
ENDROOT
BRANCH   2   6
ATOM      6  C   UNL     1      38.666   2.154  13.922  0.00  0.00    +0.000 A 
ATOM      7  C   UNL     1      39.728   1.442  14.390  0.00  0.00    +0.000 A 
ATOM      8  C   UNL     1      40.008   0.167  13.933  0.00  0.00    +0.000 A 
ATOM      9  C   UNL     1      39.187  -0.415  12.969  0.00  0.00    +0.000 A 
ATOM     10  C   UNL     1      38.120   0.294  12.494  0.00  0.00    +0.000 A 
ATOM     11  C   UNL     1      37.870   1.555  12.965  0.00  0.00    +0.000 A 
BRANCH   9  12
ATOM     12  N   UNL     1      39.415  -1.707  12.457  0.00  0.00    +0.000 N 
ATOM     13  C   UNL     1      38.835  -2.866  13.105  0.00  0.00    +0.000 C 
ATOM     14  C   UNL     1      40.225  -1.925  11.272  0.00  0.00    +0.000 C 
ENDBRANCH   9  12
ENDBRANCH   2   6
BRANCH   5  15
ATOM     15  C   UNL     1      38.635   5.715  16.481  0.00  0.00    +0.000 A 
ATOM     16  C   UNL     1      38.519   5.673  17.793  0.00  0.00    +0.000 A 
ATOM     17  C   UNL     1      39.586   5.899  18.640  0.00  0.00    +0.000 A 
ATOM     18  C   UNL     1      40.814   6.178  18.124  0.00  0.00    +0.000 A 
ATOM     19  C   UNL     1      40.970   6.231  16.762  0.00  0.00    +0.000 A 
ATOM     20  C   UNL     1      39.860   5.995  15.929  0.00  0.00    +0.000 A 
BRANCH  18  21
ATOM     21  C   UNL     1      41.964   6.427  19.029  0.00  0.00    +0.000 A 
ATOM     22  C   UNL     1      43.186   6.848  18.560  0.00  0.00    +0.000 A 
ATOM     23  C   UNL     1      44.250   7.076  19.401  0.00  0.00    +0.000 A 
ATOM     24  C   UNL     1      44.129   6.889  20.753  0.00  0.00    +0.000 A 
ATOM     25  C   UNL     1      42.906   6.467  21.230  0.00  0.00    +0.000 A 
ATOM     26  C   UNL     1      41.837   6.237  20.391  0.00  0.00    +0.000 A 
ENDBRANCH  18  21
ENDBRANCH   5  15
BRANCH   1  28
ATOM     27  N   UNL     1      35.659   2.459  16.080  0.00  0.00    +0.000 NA
ATOM     28  C   UNL     1      36.873   3.117  16.329  0.00  0.00    +0.000 C 
ATOM     29  O   UNL     1      37.331   2.991  17.484  0.00  0.00    +0.000 OA
BRANCH  27  30
ATOM     30  C   UNL     1      34.855   1.670  16.917  0.00  0.00    +0.000 C 
BRANCH  30  31
ATOM     31  C   UNL     1      35.132   0.206  16.931  0.00  0.00    +0.000 C 
BRANCH  31  33
ATOM     32  C   UNL     1      37.132  -0.939  15.992  0.00  0.00    +0.000 C 
ATOM     33  C   UNL     1      35.901  -0.114  15.639  0.00  0.00    +0.000 C 
ENDBRANCH  31  33
ENDBRANCH  30  31
ENDBRANCH  27  30
ENDBRANCH   1  28
TORSDOF 8
ENDMDL
MODEL 5
REMARK VINA RESULT:      -7.3      4.341      9.355
REMARK  Name = 
REMARK  8 active torsions:
REMARK  status: ('A' for Active; 'I' for Inactive)
REMARK    1  A    between atoms: C_2  and  C_3
REMARK    2  A    between atoms: C_3  and  C_4
REMARK    3  A    between atoms: C_4  and  N_5
REMARK    4  A    between atoms: C_6  and  C_8
REMARK    5  A    between atoms: C_9  and  C_10
REMARK    6  A    between atoms: C_13  and  N_14
REMARK    7  A    between atoms: C_21  and  C_22
REMARK    8  A    between atoms: C_25  and  C_26
REMARK                            x       y       z     vdW  Elec       q    Type
REMARK                         _______ _______ _______ _____ _____    ______ ____
ROOT
ATOM      1  C   UNL     1      38.281  -1.990  16.686  0.00  0.00    +0.000 C 
ATOM      2  C   UNL     1      38.805  -1.817  15.551  0.00  0.00    +0.000 C 
ATOM      3  N   UNL     1      39.674  -2.888  15.369  0.00  0.00    +0.000 NA
ATOM      4  O   UNL     1      39.876  -3.629  16.355  0.00  0.00    +0.000 OA
ATOM      5  C   UNL     1      38.855  -3.292  17.393  0.00  0.00    +0.000 C 
ENDROOT
BRANCH   2   6
ATOM      6  C   UNL     1      38.588  -0.738  14.545  0.00  0.00    +0.000 A 
ATOM      7  C   UNL     1      39.213   0.471  14.570  0.00  0.00    +0.000 A 
ATOM      8  C   UNL     1      38.974   1.435  13.607  0.00  0.00    +0.000 A 
ATOM      9  C   UNL     1      38.070   1.171  12.580  0.00  0.00    +0.000 A 
ATOM     10  C   UNL     1      37.438  -0.040  12.549  0.00  0.00    +0.000 A 
ATOM     11  C   UNL     1      37.696  -0.973  13.517  0.00  0.00    +0.000 A 
BRANCH   9  12
ATOM     12  N   UNL     1      37.775   2.107  11.568  0.00  0.00    +0.000 N 
ATOM     13  C   UNL     1      37.471   1.663  10.224  0.00  0.00    +0.000 C 
ATOM     14  C   UNL     1      37.761   3.535  11.832  0.00  0.00    +0.000 C 
ENDBRANCH   9  12
ENDBRANCH   2   6
BRANCH   5  15
ATOM     15  C   UNL     1      37.695  -4.275  16.978  0.00  0.00    +0.000 A 
ATOM     16  C   UNL     1      36.563  -3.977  16.370  0.00  0.00    +0.000 A 
ATOM     17  C   UNL     1      35.610  -4.929  16.068  0.00  0.00    +0.000 A 
ATOM     18  C   UNL     1      35.823  -6.232  16.401  0.00  0.00    +0.000 A 
ATOM     19  C   UNL     1      36.989  -6.577  17.034  0.00  0.00    +0.000 A 
ATOM     20  C   UNL     1      37.940  -5.579  17.327  0.00  0.00    +0.000 A 
BRANCH  18  21
ATOM     21  C   UNL     1      34.800  -7.259  16.083  0.00  0.00    +0.000 A 
ATOM     22  C   UNL     1      34.220  -7.353  14.839  0.00  0.00    +0.000 A 
ATOM     23  C   UNL     1      33.271  -8.305  14.548  0.00  0.00    +0.000 A 
ATOM     24  C   UNL     1      32.864  -9.205  15.499  0.00  0.00    +0.000 A 
ATOM     25  C   UNL     1      33.442  -9.116  16.747  0.00  0.00    +0.000 A 
ATOM     26  C   UNL     1      34.394  -8.163  17.044  0.00  0.00    +0.000 A 
ENDBRANCH  18  21
ENDBRANCH   5  15
BRANCH   1  28
ATOM     27  N   UNL     1      36.080  -0.755  16.809  0.00  0.00    +0.000 NA
ATOM     28  C   UNL     1      37.286  -1.185  17.382  0.00  0.00    +0.000 C 
ATOM     29  O   UNL     1      37.481  -0.833  18.564  0.00  0.00    +0.000 OA
BRANCH  27  30
ATOM     30  C   UNL     1      35.035   0.015  17.341  0.00  0.00    +0.000 C 
BRANCH  30  31
ATOM     31  C   UNL     1      34.913   1.415  16.848  0.00  0.00    +0.000 C 
BRANCH  31  33
ATOM     32  C   UNL     1      35.077   2.689  14.716  0.00  0.00    +0.000 C 
ATOM     33  C   UNL     1      35.577   1.458  15.462  0.00  0.00    +0.000 C 
ENDBRANCH  31  33
ENDBRANCH  30  31
ENDBRANCH  27  30
ENDBRANCH   1  28
TORSDOF 8
ENDMDL
MODEL 6
REMARK VINA RESULT:      -6.9     26.469     29.828
REMARK  Name = 
REMARK  8 active torsions:
REMARK  status: ('A' for Active; 'I' for Inactive)
REMARK    1  A    between atoms: C_2  and  C_3
REMARK    2  A    between atoms: C_3  and  C_4
REMARK    3  A    between atoms: C_4  and  N_5
REMARK    4  A    between atoms: C_6  and  C_8
REMARK    5  A    between atoms: C_9  and  C_10
REMARK    6  A    between atoms: C_13  and  N_14
REMARK    7  A    between atoms: C_21  and  C_22
REMARK    8  A    between atoms: C_25  and  C_26
REMARK                            x       y       z     vdW  Elec       q    Type
REMARK                         _______ _______ _______ _____ _____    ______ ____
ROOT
ATOM      1  C   UNL     1      27.028  14.598  41.063  0.00  0.00    +0.000 C 
ATOM      2  C   UNL     1      26.210  13.690  41.378  0.00  0.00    +0.000 C 
ATOM      3  N   UNL     1      24.952  14.283  41.326  0.00  0.00    +0.000 NA
ATOM      4  O   UNL     1      24.914  15.523  41.176  0.00  0.00    +0.000 OA
ATOM      5  C   UNL     1      26.286  15.975  40.792  0.00  0.00    +0.000 C 
ENDROOT
BRANCH   2   6
ATOM      6  C   UNL     1      26.446  12.260  41.727  0.00  0.00    +0.000 A 
ATOM      7  C   UNL     1      26.819  11.304  40.832  0.00  0.00    +0.000 A 
ATOM      8  C   UNL     1      27.027   9.991  41.214  0.00  0.00    +0.000 A 
ATOM      9  C   UNL     1      26.852   9.626  42.547  0.00  0.00    +0.000 A 
ATOM     10  C   UNL     1      26.476  10.580  43.450  0.00  0.00    +0.000 A 
ATOM     11  C   UNL     1      26.278  11.871  43.042  0.00  0.00    +0.000 A 
BRANCH   9  12
ATOM     12  N   UNL     1      27.042   8.307  43.005  0.00  0.00    +0.000 N 
ATOM     13  C   UNL     1      26.205   7.767  44.056  0.00  0.00    +0.000 C 
ATOM     14  C   UNL     1      28.070   7.447  42.446  0.00  0.00    +0.000 C 
ENDBRANCH   9  12
ENDBRANCH   2   6
BRANCH   5  15
ATOM     15  C   UNL     1      26.196  15.852  39.223  0.00  0.00    +0.000 A 
ATOM     16  C   UNL     1      27.152  15.502  38.385  0.00  0.00    +0.000 A 
ATOM     17  C   UNL     1      26.957  15.442  37.020  0.00  0.00    +0.000 A 
ATOM     18  C   UNL     1      25.740  15.751  36.494  0.00  0.00    +0.000 A 
ATOM     19  C   UNL     1      24.722  16.119  37.337  0.00  0.00    +0.000 A 
ATOM     20  C   UNL     1      24.958  16.170  38.725  0.00  0.00    +0.000 A 
BRANCH  18  21
ATOM     21  C   UNL     1      25.525  15.693  35.027  0.00  0.00    +0.000 A 
ATOM     22  C   UNL     1      25.770  14.553  34.297  0.00  0.00    +0.000 A 
ATOM     23  C   UNL     1      25.572  14.503  32.937  0.00  0.00    +0.000 A 
ATOM     24  C   UNL     1      25.117  15.599  32.252  0.00  0.00    +0.000 A 
ATOM     25  C   UNL     1      24.869  16.745  32.978  0.00  0.00    +0.000 A 
ATOM     26  C   UNL     1      25.066  16.800  34.342  0.00  0.00    +0.000 A 
ENDBRANCH  18  21
ENDBRANCH   5  15
BRANCH   1  28
ATOM     27  N   UNL     1      29.168  13.534  40.239  0.00  0.00    +0.000 NA
ATOM     28  C   UNL     1      28.479  14.537  40.937  0.00  0.00    +0.000 C 
ATOM     29  O   UNL     1      29.191  15.413  41.470  0.00  0.00    +0.000 OA
BRANCH  27  30
ATOM     30  C   UNL     1      30.541  13.339  40.031  0.00  0.00    +0.000 C 
BRANCH  30  31
ATOM     31  C   UNL     1      31.166  12.171  40.714  0.00  0.00    +0.000 C 
BRANCH  31  33
ATOM     32  C   UNL     1      30.740   9.748  41.092  0.00  0.00    +0.000 C 
ATOM     33  C   UNL     1      30.504  10.910  40.135  0.00  0.00    +0.000 C 
ENDBRANCH  31  33
ENDBRANCH  30  31
ENDBRANCH  27  30
ENDBRANCH   1  28
TORSDOF 8
ENDMDL
MODEL 7
REMARK VINA RESULT:      -6.9      7.194     11.947
REMARK  Name = 
REMARK  8 active torsions:
REMARK  status: ('A' for Active; 'I' for Inactive)
REMARK    1  A    between atoms: C_2  and  C_3
REMARK    2  A    between atoms: C_3  and  C_4
REMARK    3  A    between atoms: C_4  and  N_5
REMARK    4  A    between atoms: C_6  and  C_8
REMARK    5  A    between atoms: C_9  and  C_10
REMARK    6  A    between atoms: C_13  and  N_14
REMARK    7  A    between atoms: C_21  and  C_22
REMARK    8  A    between atoms: C_25  and  C_26
REMARK                            x       y       z     vdW  Elec       q    Type
REMARK                         _______ _______ _______ _____ _____    ______ ____
ROOT
ATOM      1  C   UNL     1      45.100   6.826  22.968  0.00  0.00    +0.000 C 
ATOM      2  C   UNL     1      44.574   6.025  22.146  0.00  0.00    +0.000 C 
ATOM      3  N   UNL     1      44.918   4.752  22.590  0.00  0.00    +0.000 NA
ATOM      4  O   UNL     1      45.754   4.679  23.515  0.00  0.00    +0.000 OA
ATOM      5  C   UNL     1      45.922   6.051  24.084  0.00  0.00    +0.000 C 
ENDROOT
BRANCH   2   6
ATOM      6  C   UNL     1      43.735   6.292  20.944  0.00  0.00    +0.000 A 
ATOM      7  C   UNL     1      44.223   6.724  19.748  0.00  0.00    +0.000 A 
ATOM      8  C   UNL     1      43.395   6.953  18.664  0.00  0.00    +0.000 A 
ATOM      9  C   UNL     1      42.024   6.740  18.787  0.00  0.00    +0.000 A 
ATOM     10  C   UNL     1      41.527   6.308  19.985  0.00  0.00    +0.000 A 
ATOM     11  C   UNL     1      42.372   6.090  21.039  0.00  0.00    +0.000 A 
BRANCH   9  12
ATOM     12  N   UNL     1      41.123   6.957  17.726  0.00  0.00    +0.000 N 
ATOM     13  C   UNL     1      41.215   8.155  16.918  0.00  0.00    +0.000 C 
ATOM     14  C   UNL     1      40.082   5.997  17.403  0.00  0.00    +0.000 C 
ENDBRANCH   9  12
ENDBRANCH   2   6
BRANCH   5  15
ATOM     15  C   UNL     1      44.799   6.038  25.190  0.00  0.00    +0.000 A 
ATOM     16  C   UNL     1      44.243   7.074  25.787  0.00  0.00    +0.000 A 
ATOM     17  C   UNL     1      43.272   6.938  26.758  0.00  0.00    +0.000 A 
ATOM     18  C   UNL     1      42.855   5.696  27.131  0.00  0.00    +0.000 A 
ATOM     19  C   UNL     1      43.413   4.596  26.531  0.00  0.00    +0.000 A 
ATOM     20  C   UNL     1      44.402   4.773  25.544  0.00  0.00    +0.000 A 
BRANCH  18  21
ATOM     21  C   UNL     1      41.814   5.542  28.178  0.00  0.00    +0.000 A 
ATOM     22  C   UNL     1      41.694   4.394  28.926  0.00  0.00    +0.000 A 
ATOM     23  C   UNL     1      40.727   4.255  29.894  0.00  0.00    +0.000 A 
ATOM     24  C   UNL     1      39.839   5.266  30.151  0.00  0.00    +0.000 A 
ATOM     25  C   UNL     1      39.955   6.420  29.405  0.00  0.00    +0.000 A 
ATOM     26  C   UNL     1      40.922   6.565  28.433  0.00  0.00    +0.000 A 
ENDBRANCH  18  21
ENDBRANCH   5  15
BRANCH   1  28
ATOM     27  N   UNL     1      43.874   9.035  22.895  0.00  0.00    +0.000 NA
ATOM     28  C   UNL     1      45.053   8.282  23.004  0.00  0.00    +0.000 C 
ATOM     29  O   UNL     1      46.105   8.939  23.139  0.00  0.00    +0.000 OA
BRANCH  27  30
ATOM     30  C   UNL     1      43.668  10.423  22.910  0.00  0.00    +0.000 C 
BRANCH  30  31
ATOM     31  C   UNL     1      42.736  10.975  21.887  0.00  0.00    +0.000 C 
BRANCH  31  33
ATOM     32  C   UNL     1      40.929   9.912  20.547  0.00  0.00    +0.000 C 
ATOM     33  C   UNL     1      42.403   9.826  20.921  0.00  0.00    +0.000 C 
ENDBRANCH  31  33
ENDBRANCH  30  31
ENDBRANCH  27  30
ENDBRANCH   1  28
TORSDOF 8
ENDMDL
MODEL 8
REMARK VINA RESULT:      -6.9      2.278      2.916
REMARK  Name = 
REMARK  8 active torsions:
REMARK  status: ('A' for Active; 'I' for Inactive)
REMARK    1  A    between atoms: C_2  and  C_3
REMARK    2  A    between atoms: C_3  and  C_4
REMARK    3  A    between atoms: C_4  and  N_5
REMARK    4  A    between atoms: C_6  and  C_8
REMARK    5  A    between atoms: C_9  and  C_10
REMARK    6  A    between atoms: C_13  and  N_14
REMARK    7  A    between atoms: C_21  and  C_22
REMARK    8  A    between atoms: C_25  and  C_26
REMARK                            x       y       z     vdW  Elec       q    Type
REMARK                         _______ _______ _______ _____ _____    ______ ____
ROOT
ATOM      1  C   UNL     1      36.925   2.766  13.986  0.00  0.00    +0.000 C 
ATOM      2  C   UNL     1      37.279   3.124  12.829  0.00  0.00    +0.000 C 
ATOM      3  N   UNL     1      36.794   4.418  12.670  0.00  0.00    +0.000 NA
ATOM      4  O   UNL     1      36.021   4.847  13.552  0.00  0.00    +0.000 OA
ATOM      5  C   UNL     1      36.082   3.902  14.708  0.00  0.00    +0.000 C 
ENDROOT
BRANCH   2   6
ATOM      6  C   UNL     1      38.064   2.393  11.793  0.00  0.00    +0.000 A 
ATOM      7  C   UNL     1      39.409   2.188  11.853  0.00  0.00    +0.000 A 
ATOM      8  C   UNL     1      40.085   1.499  10.862  0.00  0.00    +0.000 A 
ATOM      9  C   UNL     1      39.380   0.996   9.770  0.00  0.00    +0.000 A 
ATOM     10  C   UNL     1      38.031   1.199   9.703  0.00  0.00    +0.000 A 
ATOM     11  C   UNL     1      37.390   1.885  10.699  0.00  0.00    +0.000 A 
BRANCH   9  12
ATOM     12  N   UNL     1      40.005   0.289   8.723  0.00  0.00    +0.000 N 
ATOM     13  C   UNL     1      41.061  -0.660   9.007  0.00  0.00    +0.000 C 
ATOM     14  C   UNL     1      39.615   0.478   7.338  0.00  0.00    +0.000 C 
ENDBRANCH   9  12
ENDBRANCH   2   6
BRANCH   5  15
ATOM     15  C   UNL     1      37.265   4.540  15.533  0.00  0.00    +0.000 A 
ATOM     16  C   UNL     1      38.127   5.453  15.131  0.00  0.00    +0.000 A 
ATOM     17  C   UNL     1      39.136   5.929  15.943  0.00  0.00    +0.000 A 
ATOM     18  C   UNL     1      39.267   5.454  17.212  0.00  0.00    +0.000 A 
ATOM     19  C   UNL     1      38.387   4.503  17.663  0.00  0.00    +0.000 A 
ATOM     20  C   UNL     1      37.369   4.040  16.806  0.00  0.00    +0.000 A 
BRANCH  18  21
ATOM     21  C   UNL     1      40.352   5.959  18.090  0.00  0.00    +0.000 A 
ATOM     22  C   UNL     1      41.589   6.305  17.597  0.00  0.00    +0.000 A 
ATOM     23  C   UNL     1      42.593   6.771  18.413  0.00  0.00    +0.000 A 
ATOM     24  C   UNL     1      42.395   6.908  19.762  0.00  0.00    +0.000 A 
ATOM     25  C   UNL     1      41.158   6.563  20.262  0.00  0.00    +0.000 A 
ATOM     26  C   UNL     1      40.148   6.095  19.448  0.00  0.00    +0.000 A 
ENDBRANCH  18  21
ENDBRANCH   5  15
BRANCH   1  28
ATOM     27  N   UNL     1      36.194   0.543  14.939  0.00  0.00    +0.000 NA
ATOM     28  C   UNL     1      37.175   1.514  14.687  0.00  0.00    +0.000 C 
ATOM     29  O   UNL     1      38.320   1.248  15.107  0.00  0.00    +0.000 OA
BRANCH  27  30
ATOM     30  C   UNL     1      36.276  -0.696  15.593  0.00  0.00    +0.000 C 
BRANCH  30  31
ATOM     31  C   UNL     1      35.256  -0.971  16.643  0.00  0.00    +0.000 C 
BRANCH  31  33
ATOM     32  C   UNL     1      36.001   0.325  18.634  0.00  0.00    +0.000 C 
ATOM     33  C   UNL     1      35.065   0.336  17.431  0.00  0.00    +0.000 C 
ENDBRANCH  31  33
ENDBRANCH  30  31
ENDBRANCH  27  30
ENDBRANCH   1  28
TORSDOF 8
ENDMDL
MODEL 9
REMARK VINA RESULT:      -6.8      4.020      8.141
REMARK  Name = 
REMARK  8 active torsions:
REMARK  status: ('A' for Active; 'I' for Inactive)
REMARK    1  A    between atoms: C_2  and  C_3
REMARK    2  A    between atoms: C_3  and  C_4
REMARK    3  A    between atoms: C_4  and  N_5
REMARK    4  A    between atoms: C_6  and  C_8
REMARK    5  A    between atoms: C_9  and  C_10
REMARK    6  A    between atoms: C_13  and  N_14
REMARK    7  A    between atoms: C_21  and  C_22
REMARK    8  A    between atoms: C_25  and  C_26
REMARK                            x       y       z     vdW  Elec       q    Type
REMARK                         _______ _______ _______ _____ _____    ______ ____
ROOT
ATOM      1  C   UNL     1      39.205   0.235  14.042  0.00  0.00    +0.000 C 
ATOM      2  C   UNL     1      39.392   0.242  12.794  0.00  0.00    +0.000 C 
ATOM      3  N   UNL     1      40.283  -0.796  12.541  0.00  0.00    +0.000 NA
ATOM      4  O   UNL     1      40.810  -1.346  13.531  0.00  0.00    +0.000 OA
ATOM      5  C   UNL     1      40.070  -0.893  14.749  0.00  0.00    +0.000 C 
ENDROOT
BRANCH   2   6
ATOM      6  C   UNL     1      38.811   1.120  11.738  0.00  0.00    +0.000 A 
ATOM      7  C   UNL     1      37.681   0.831  11.036  0.00  0.00    +0.000 A 
ATOM      8  C   UNL     1      37.186   1.687  10.068  0.00  0.00    +0.000 A 
ATOM      9  C   UNL     1      37.855   2.879   9.797  0.00  0.00    +0.000 A 
ATOM     10  C   UNL     1      38.990   3.175  10.497  0.00  0.00    +0.000 A 
ATOM     11  C   UNL     1      39.455   2.308  11.449  0.00  0.00    +0.000 A 
BRANCH   9  12
ATOM     12  N   UNL     1      37.410   3.794   8.823  0.00  0.00    +0.000 N 
ATOM     13  C   UNL     1      36.001   3.901   8.505  0.00  0.00    +0.000 C 
ATOM     14  C   UNL     1      38.334   4.659   8.112  0.00  0.00    +0.000 C 
ENDBRANCH   9  12
ENDBRANCH   2   6
BRANCH   5  15
ATOM     15  C   UNL     1      38.945  -1.995  14.822  0.00  0.00    +0.000 A 
ATOM     16  C   UNL     1      38.154  -2.406  13.850  0.00  0.00    +0.000 A 
ATOM     17  C   UNL     1      37.189  -3.375  14.038  0.00  0.00    +0.000 A 
ATOM     18  C   UNL     1      37.029  -3.944  15.264  0.00  0.00    +0.000 A 
ATOM     19  C   UNL     1      37.835  -3.540  16.298  0.00  0.00    +0.000 A 
ATOM     20  C   UNL     1      38.809  -2.548  16.070  0.00  0.00    +0.000 A 
BRANCH  18  21
ATOM     21  C   UNL     1      35.990  -4.983  15.474  0.00  0.00    +0.000 A 
ATOM     22  C   UNL     1      34.800  -4.977  14.785  0.00  0.00    +0.000 A 
ATOM     23  C   UNL     1      33.840  -5.941  14.982  0.00  0.00    +0.000 A 
ATOM     24  C   UNL     1      34.036  -6.954  15.884  0.00  0.00    +0.000 A 
ATOM     25  C   UNL     1      35.227  -6.966  16.578  0.00  0.00    +0.000 A 
ATOM     26  C   UNL     1      36.194  -6.002  16.383  0.00  0.00    +0.000 A 
ENDBRANCH  18  21
ENDBRANCH   5  15
BRANCH   1  28
ATOM     27  N   UNL     1      37.057   0.752  15.269  0.00  0.00    +0.000 NA
ATOM     28  C   UNL     1      38.355   1.092  14.858  0.00  0.00    +0.000 C 
ATOM     29  O   UNL     1      38.768   2.207  15.236  0.00  0.00    +0.000 OA
BRANCH  27  30
ATOM     30  C   UNL     1      36.126   1.459  16.044  0.00  0.00    +0.000 C 
BRANCH  30  31
ATOM     31  C   UNL     1      35.102   0.653  16.767  0.00  0.00    +0.000 C 
BRANCH  31  33
ATOM     32  C   UNL     1      34.636  -1.728  17.321  0.00  0.00    +0.000 C 
ATOM     33  C   UNL     1      35.257  -0.798  16.285  0.00  0.00    +0.000 C 
ENDBRANCH  31  33
ENDBRANCH  30  31
ENDBRANCH  27  30
ENDBRANCH   1  28
TORSDOF 8
ENDMDL
MODEL 10
REMARK VINA RESULT:      -6.6      3.830      9.146
REMARK  Name = 
REMARK  8 active torsions:
REMARK  status: ('A' for Active; 'I' for Inactive)
REMARK    1  A    between atoms: C_2  and  C_3
REMARK    2  A    between atoms: C_3  and  C_4
REMARK    3  A    between atoms: C_4  and  N_5
REMARK    4  A    between atoms: C_6  and  C_8
REMARK    5  A    between atoms: C_9  and  C_10
REMARK    6  A    between atoms: C_13  and  N_14
REMARK    7  A    between atoms: C_21  and  C_22
REMARK    8  A    between atoms: C_25  and  C_26
REMARK                            x       y       z     vdW  Elec       q    Type
REMARK                         _______ _______ _______ _____ _____    ______ ____
ROOT
ATOM      1  C   UNL     1      37.165   6.018  13.909  0.00  0.00    +0.000 C 
ATOM      2  C   UNL     1      36.090   6.609  13.615  0.00  0.00    +0.000 C 
ATOM      3  N   UNL     1      35.626   5.993  12.458  0.00  0.00    +0.000 NA
ATOM      4  O   UNL     1      36.395   5.184  11.897  0.00  0.00    +0.000 OA
ATOM      5  C   UNL     1      37.517   4.896  12.843  0.00  0.00    +0.000 C 
ENDROOT
BRANCH   2   6
ATOM      6  C   UNL     1      35.383   7.724  14.310  0.00  0.00    +0.000 A 
ATOM      7  C   UNL     1      34.092   7.664  14.738  0.00  0.00    +0.000 A 
ATOM      8  C   UNL     1      33.488   8.730  15.380  0.00  0.00    +0.000 A 
ATOM      9  C   UNL     1      34.211   9.901  15.599  0.00  0.00    +0.000 A 
ATOM     10  C   UNL     1      35.507   9.968  15.171  0.00  0.00    +0.000 A 
ATOM     11  C   UNL     1      36.077   8.896  14.539  0.00  0.00    +0.000 A 
BRANCH   9  12
ATOM     12  N   UNL     1      33.658  11.026  16.243  0.00  0.00    +0.000 N 
ATOM     13  C   UNL     1      33.210  10.939  17.617  0.00  0.00    +0.000 C 
ATOM     14  C   UNL     1      33.522  12.301  15.563  0.00  0.00    +0.000 C 
ENDBRANCH   9  12
ENDBRANCH   2   6
BRANCH   5  15
ATOM     15  C   UNL     1      36.915   3.671  13.631  0.00  0.00    +0.000 A 
ATOM     16  C   UNL     1      35.741   3.594  14.227  0.00  0.00    +0.000 A 
ATOM     17  C   UNL     1      35.324   2.465  14.903  0.00  0.00    +0.000 A 
ATOM     18  C   UNL     1      36.139   1.376  14.971  0.00  0.00    +0.000 A 
ATOM     19  C   UNL     1      37.367   1.422  14.363  0.00  0.00    +0.000 A 
ATOM     20  C   UNL     1      37.759   2.591  13.681  0.00  0.00    +0.000 A 
BRANCH  18  21
ATOM     21  C   UNL     1      35.699   0.160  15.701  0.00  0.00    +0.000 A 
ATOM     22  C   UNL     1      36.075  -1.103  15.310  0.00  0.00    +0.000 A 
ATOM     23  C   UNL     1      35.665  -2.228  15.987  0.00  0.00    +0.000 A 
ATOM     24  C   UNL     1      34.856  -2.128  17.089  0.00  0.00    +0.000 A 
ATOM     25  C   UNL     1      34.475  -0.864  17.486  0.00  0.00    +0.000 A 
ATOM     26  C   UNL     1      34.884   0.267  16.811  0.00  0.00    +0.000 A 
ENDBRANCH  18  21
ENDBRANCH   5  15
BRANCH   1  28
ATOM     27  N   UNL     1      37.794   5.845  16.351  0.00  0.00    +0.000 NA
ATOM     28  C   UNL     1      38.068   6.237  15.032  0.00  0.00    +0.000 C 
ATOM     29  O   UNL     1      39.164   6.806  14.853  0.00  0.00    +0.000 OA
BRANCH  27  30
ATOM     30  C   UNL     1      38.550   5.984  17.525  0.00  0.00    +0.000 C 
BRANCH  30  31
ATOM     31  C   UNL     1      38.180   7.104  18.435  0.00  0.00    +0.000 C 
BRANCH  31  33
ATOM     32  C   UNL     1      40.195   5.969  19.353  0.00  0.00    +0.000 C 
ATOM     33  C   UNL     1      39.190   7.089  19.593  0.00  0.00    +0.000 C 
ENDBRANCH  31  33
ENDBRANCH  30  31
ENDBRANCH  27  30
ENDBRANCH   1  28
TORSDOF 8
ENDMDL
