MODEL 1
REMARK VINA RESULT:      -7.3      0.000      0.000
REMARK  Name = 
REMARK  3 active torsions:
REMARK  status: ('A' for Active; 'I' for Inactive)
REMARK    1  A    between atoms: C_5  and  N_6
REMARK    2  A    between atoms: C_7  and  C_9
REMARK    3  A    between atoms: C_12  and  N_13
REMARK                            x       y       z     vdW  Elec       q    Type
REMARK                         _______ _______ _______ _____ _____    ______ ____
ROOT
ATOM      1  N   UNL     1      15.224  11.286  35.942  0.00  0.00    +0.000 NA
ATOM      2  C   UNL     1      16.421  11.546  36.657  0.00  0.00    +0.000 C 
ATOM      3  O   UNL     1      17.111  12.532  36.299  0.00  0.00    +0.000 OA
ENDROOT
BRANCH   1   8
ATOM      4  C   UNL     1      13.639  14.650  31.653  0.00  0.00    +0.000 C 
ATOM      5  C   UNL     1      14.073  13.744  32.751  0.00  0.00    +0.000 A 
ATOM      6  C   UNL     1      13.705  14.077  34.042  0.00  0.00    +0.000 A 
ATOM      7  C   UNL     1      14.095  13.251  35.082  0.00  0.00    +0.000 A 
ATOM      8  C   UNL     1      14.836  12.114  34.869  0.00  0.00    +0.000 A 
ATOM      9  C   UNL     1      15.207  11.775  33.590  0.00  0.00    +0.000 A 
ATOM     10  C   UNL     1      16.005  10.565  33.281  0.00  0.00    +0.000 C 
ATOM     11  C   UNL     1      14.808  12.614  32.547  0.00  0.00    +0.000 A 
ENDBRANCH   1   8
BRANCH   2  12
ATOM     12  C   UNL     1      16.882  10.738  37.771  0.00  0.00    +0.000 A 
ATOM     13  C   UNL     1      18.153  10.215  37.731  0.00  0.00    +0.000 A 
ATOM     14  C   UNL     1      18.661   9.432  38.760  0.00  0.00    +0.000 A 
ATOM     15  C   UNL     1      17.865   9.174  39.856  0.00  0.00    +0.000 A 
ATOM     16  C   UNL     1      16.592   9.684  39.923  0.00  0.00    +0.000 A 
ATOM     17  C   UNL     1      15.738   9.407  41.095  0.00  0.00    +0.000 C 
ATOM     18  C   UNL     1      16.122  10.454  38.884  0.00  0.00    +0.000 A 
BRANCH  15  19
ATOM     19  N   UNL     1      18.355   8.384  40.915  0.00  0.00    +0.000 N 
ATOM     20  O   UNL     1      18.974   8.901  41.847  0.00  0.00    +0.000 OA
ATOM     21  O   UNL     1      18.144   7.042  40.909  0.00  0.00    +0.000 OA
ENDBRANCH  15  19
ENDBRANCH   2  12
TORSDOF 3
ENDMDL
MODEL 2
REMARK VINA RESULT:      -7.0      2.701      7.906
REMARK  Name = 
REMARK  3 active torsions:
REMARK  status: ('A' for Active; 'I' for Inactive)
REMARK    1  A    between atoms: C_5  and  N_6
REMARK    2  A    between atoms: C_7  and  C_9
REMARK    3  A    between atoms: C_12  and  N_13
REMARK                            x       y       z     vdW  Elec       q    Type
REMARK                         _______ _______ _______ _____ _____    ______ ____
ROOT
ATOM      1  N   UNL     1      17.173  10.998  37.319  0.00  0.00    +0.000 NA
ATOM      2  C   UNL     1      17.217  10.223  36.132  0.00  0.00    +0.000 C 
ATOM      3  O   UNL     1      17.715   9.073  36.205  0.00  0.00    +0.000 OA
ENDROOT
BRANCH   1   8
ATOM      4  C   UNL     1      19.153   8.897  42.207  0.00  0.00    +0.000 C 
ATOM      5  C   UNL     1      18.670   9.465  40.918  0.00  0.00    +0.000 A 
ATOM      6  C   UNL     1      17.357   9.217  40.560  0.00  0.00    +0.000 A 
ATOM      7  C   UNL     1      16.883   9.734  39.366  0.00  0.00    +0.000 A 
ATOM      8  C   UNL     1      17.675  10.481  38.531  0.00  0.00    +0.000 A 
ATOM      9  C   UNL     1      18.982  10.732  38.877  0.00  0.00    +0.000 A 
ATOM     10  C   UNL     1      19.898  11.529  38.029  0.00  0.00    +0.000 C 
ATOM     11  C   UNL     1      19.452  10.208  40.084  0.00  0.00    +0.000 A 
ENDBRANCH   1   8
BRANCH   2  12
ATOM     12  C   UNL     1      16.718  10.689  34.851  0.00  0.00    +0.000 A 
ATOM     13  C   UNL     1      17.229  10.138  33.699  0.00  0.00    +0.000 A 
ATOM     14  C   UNL     1      16.800  10.534  32.438  0.00  0.00    +0.000 A 
ATOM     15  C   UNL     1      15.831  11.511  32.341  0.00  0.00    +0.000 A 
ATOM     16  C   UNL     1      15.302  12.077  33.475  0.00  0.00    +0.000 A 
ATOM     17  C   UNL     1      14.265  13.123  33.371  0.00  0.00    +0.000 C 
ATOM     18  C   UNL     1      15.752  11.660  34.706  0.00  0.00    +0.000 A 
BRANCH  15  19
ATOM     19  N   UNL     1      15.377  11.932  31.075  0.00  0.00    +0.000 N 
ATOM     20  O   UNL     1      14.480  11.316  30.496  0.00  0.00    +0.000 OA
ATOM     21  O   UNL     1      15.932  13.024  30.488  0.00  0.00    +0.000 OA
ENDBRANCH  15  19
ENDBRANCH   2  12
TORSDOF 3
ENDMDL
MODEL 3
REMARK VINA RESULT:      -6.7     21.885     23.959
REMARK  Name = 
REMARK  3 active torsions:
REMARK  status: ('A' for Active; 'I' for Inactive)
REMARK    1  A    between atoms: C_5  and  N_6
REMARK    2  A    between atoms: C_7  and  C_9
REMARK    3  A    between atoms: C_12  and  N_13
REMARK                            x       y       z     vdW  Elec       q    Type
REMARK                         _______ _______ _______ _____ _____    ______ ____
ROOT
ATOM      1  N   UNL     1      22.903  -7.485  23.393  0.00  0.00    +0.000 NA
ATOM      2  C   UNL     1      22.384  -7.967  24.622  0.00  0.00    +0.000 C 
ATOM      3  O   UNL     1      23.134  -8.684  25.330  0.00  0.00    +0.000 OA
ENDROOT
BRANCH   1   8
ATOM      4  C   UNL     1      28.207  -8.747  21.811  0.00  0.00    +0.000 C 
ATOM      5  C   UNL     1      26.803  -8.448  22.205  0.00  0.00    +0.000 A 
ATOM      6  C   UNL     1      26.583  -7.343  23.008  0.00  0.00    +0.000 A 
ATOM      7  C   UNL     1      25.286  -7.043  23.389  0.00  0.00    +0.000 A 
ATOM      8  C   UNL     1      24.216  -7.808  22.994  0.00  0.00    +0.000 A 
ATOM      9  C   UNL     1      24.424  -8.908  22.197  0.00  0.00    +0.000 A 
ATOM     10  C   UNL     1      23.323  -9.781  21.730  0.00  0.00    +0.000 C 
ATOM     11  C   UNL     1      25.736  -9.203  21.817  0.00  0.00    +0.000 A 
ENDBRANCH   1   8
BRANCH   2  12
ATOM     12  C   UNL     1      21.044  -7.675  25.097  0.00  0.00    +0.000 A 
ATOM     13  C   UNL     1      20.117  -8.689  25.135  0.00  0.00    +0.000 A 
ATOM     14  C   UNL     1      18.816  -8.484  25.577  0.00  0.00    +0.000 A 
ATOM     15  C   UNL     1      18.444  -7.221  25.990  0.00  0.00    +0.000 A 
ATOM     16  C   UNL     1      19.350  -6.189  25.963  0.00  0.00    +0.000 A 
ATOM     17  C   UNL     1      18.953  -4.837  26.404  0.00  0.00    +0.000 C 
ATOM     18  C   UNL     1      20.630  -6.431  25.518  0.00  0.00    +0.000 A 
BRANCH  15  19
ATOM     19  N   UNL     1      17.132  -6.984  26.443  0.00  0.00    +0.000 N 
ATOM     20  O   UNL     1      16.935  -6.406  27.514  0.00  0.00    +0.000 OA
ATOM     21  O   UNL     1      16.075  -7.395  25.695  0.00  0.00    +0.000 OA
ENDBRANCH  15  19
ENDBRANCH   2  12
TORSDOF 3
ENDMDL
MODEL 4
REMARK VINA RESULT:      -6.6     19.005     21.570
REMARK  Name = 
REMARK  3 active torsions:
REMARK  status: ('A' for Active; 'I' for Inactive)
REMARK    1  A    between atoms: C_5  and  N_6
REMARK    2  A    between atoms: C_7  and  C_9
REMARK    3  A    between atoms: C_12  and  N_13
REMARK                            x       y       z     vdW  Elec       q    Type
REMARK                         _______ _______ _______ _____ _____    ______ ____
ROOT
ATOM      1  N   UNL     1      33.892   0.082  34.297  0.00  0.00    +0.000 NA
ATOM      2  C   UNL     1      32.757  -0.736  34.528  0.00  0.00    +0.000 C 
ATOM      3  O   UNL     1      31.686  -0.169  34.858  0.00  0.00    +0.000 OA
ENDROOT
BRANCH   1   8
ATOM      4  C   UNL     1      33.536   5.724  34.817  0.00  0.00    +0.000 C 
ATOM      5  C   UNL     1      33.638   4.241  34.720  0.00  0.00    +0.000 A 
ATOM      6  C   UNL     1      33.420   3.662  33.482  0.00  0.00    +0.000 A 
ATOM      7  C   UNL     1      33.509   2.286  33.365  0.00  0.00    +0.000 A 
ATOM      8  C   UNL     1      33.806   1.482  34.438  0.00  0.00    +0.000 A 
ATOM      9  C   UNL     1      34.024   2.047  35.671  0.00  0.00    +0.000 A 
ATOM     10  C   UNL     1      34.349   1.247  36.875  0.00  0.00    +0.000 C 
ATOM     11  C   UNL     1      33.932   3.437  35.781  0.00  0.00    +0.000 A 
ENDBRANCH   1   8
BRANCH   2  12
ATOM     12  C   UNL     1      32.771  -2.182  34.401  0.00  0.00    +0.000 A 
ATOM     13  C   UNL     1      32.088  -2.937  35.326  0.00  0.00    +0.000 A 
ATOM     14  C   UNL     1      32.058  -4.325  35.268  0.00  0.00    +0.000 A 
ATOM     15  C   UNL     1      32.734  -4.965  34.250  0.00  0.00    +0.000 A 
ATOM     16  C   UNL     1      33.423  -4.235  33.312  0.00  0.00    +0.000 A 
ATOM     17  C   UNL     1      34.147  -4.919  32.222  0.00  0.00    +0.000 C 
ATOM     18  C   UNL     1      33.431  -2.863  33.402  0.00  0.00    +0.000 A 
BRANCH  15  19
ATOM     19  N   UNL     1      32.720  -6.371  34.166  0.00  0.00    +0.000 N 
ATOM     20  O   UNL     1      33.544  -7.042  34.790  0.00  0.00    +0.000 OA
ATOM     21  O   UNL     1      31.791  -6.992  33.394  0.00  0.00    +0.000 OA
ENDBRANCH  15  19
ENDBRANCH   2  12
TORSDOF 3
ENDMDL
MODEL 5
REMARK VINA RESULT:      -6.6      1.562      2.414
REMARK  Name = 
REMARK  3 active torsions:
REMARK  status: ('A' for Active; 'I' for Inactive)
REMARK    1  A    between atoms: C_5  and  N_6
REMARK    2  A    between atoms: C_7  and  C_9
REMARK    3  A    between atoms: C_12  and  N_13
REMARK                            x       y       z     vdW  Elec       q    Type
REMARK                         _______ _______ _______ _____ _____    ______ ____
ROOT
ATOM      1  N   UNL     1      16.535  10.171  36.428  0.00  0.00    +0.000 NA
ATOM      2  C   UNL     1      17.458  10.792  37.308  0.00  0.00    +0.000 C 
ATOM      3  O   UNL     1      18.089  11.790  36.881  0.00  0.00    +0.000 OA
ENDROOT
BRANCH   1   8
ATOM      4  C   UNL     1      15.801  12.143  31.156  0.00  0.00    +0.000 C 
ATOM      5  C   UNL     1      15.964  11.650  32.551  0.00  0.00    +0.000 A 
ATOM      6  C   UNL     1      16.942  10.700  32.786  0.00  0.00    +0.000 A 
ATOM      7  C   UNL     1      17.114  10.225  34.075  0.00  0.00    +0.000 A 
ATOM      8  C   UNL     1      16.344  10.668  35.123  0.00  0.00    +0.000 A 
ATOM      9  C   UNL     1      15.370  11.611  34.899  0.00  0.00    +0.000 A 
ATOM     10  C   UNL     1      14.500  12.137  35.977  0.00  0.00    +0.000 C 
ATOM     11  C   UNL     1      15.203  12.085  33.596  0.00  0.00    +0.000 A 
ENDBRANCH   1   8
BRANCH   2  12
ATOM     12  C   UNL     1      17.706  10.337  38.663  0.00  0.00    +0.000 A 
ATOM     13  C   UNL     1      18.989  10.383  39.156  0.00  0.00    +0.000 A 
ATOM     14  C   UNL     1      19.301   9.964  40.443  0.00  0.00    +0.000 A 
ATOM     15  C   UNL     1      18.290   9.488  41.252  0.00  0.00    +0.000 A 
ATOM     16  C   UNL     1      16.999   9.431  40.786  0.00  0.00    +0.000 A 
ATOM     17  C   UNL     1      15.917   8.921  41.651  0.00  0.00    +0.000 C 
ATOM     18  C   UNL     1      16.728   9.854  39.505  0.00  0.00    +0.000 A 
BRANCH  15  19
ATOM     19  N   UNL     1      18.577   9.056  42.562  0.00  0.00    +0.000 N 
ATOM     20  O   UNL     1      18.910   7.889  42.777  0.00  0.00    +0.000 OA
ATOM     21  O   UNL     1      18.488   9.932  43.596  0.00  0.00    +0.000 OA
ENDBRANCH  15  19
ENDBRANCH   2  12
TORSDOF 3
ENDMDL
MODEL 6
REMARK VINA RESULT:      -6.5      1.763      3.029
REMARK  Name = 
REMARK  3 active torsions:
REMARK  status: ('A' for Active; 'I' for Inactive)
REMARK    1  A    between atoms: C_5  and  N_6
REMARK    2  A    between atoms: C_7  and  C_9
REMARK    3  A    between atoms: C_12  and  N_13
REMARK                            x       y       z     vdW  Elec       q    Type
REMARK                         _______ _______ _______ _____ _____    ______ ____
ROOT
ATOM      1  N   UNL     1      17.120  11.333  35.505  0.00  0.00    +0.000 NA
ATOM      2  C   UNL     1      17.431  10.082  36.099  0.00  0.00    +0.000 C 
ATOM      3  O   UNL     1      17.096   9.043  35.479  0.00  0.00    +0.000 OA
ENDROOT
BRANCH   1   8
ATOM      4  C   UNL     1      14.485  11.538  30.481  0.00  0.00    +0.000 C 
ATOM      5  C   UNL     1      15.146  11.507  31.815  0.00  0.00    +0.000 A 
ATOM      6  C   UNL     1      16.329  10.799  31.928  0.00  0.00    +0.000 A 
ATOM      7  C   UNL     1      16.965  10.755  33.157  0.00  0.00    +0.000 A 
ATOM      8  C   UNL     1      16.457  11.390  34.263  0.00  0.00    +0.000 A 
ATOM      9  C   UNL     1      15.281  12.096  34.161  0.00  0.00    +0.000 A 
ATOM     10  C   UNL     1      14.671  12.807  35.307  0.00  0.00    +0.000 C 
ATOM     11  C   UNL     1      14.647  12.136  32.917  0.00  0.00    +0.000 A 
ENDBRANCH   1   8
BRANCH   2  12
ATOM     12  C   UNL     1      18.112   9.947  37.373  0.00  0.00    +0.000 A 
ATOM     13  C   UNL     1      17.365   9.942  38.528  0.00  0.00    +0.000 A 
ATOM     14  C   UNL     1      17.948   9.817  39.783  0.00  0.00    +0.000 A 
ATOM     15  C   UNL     1      19.319   9.692  39.872  0.00  0.00    +0.000 A 
ATOM     16  C   UNL     1      20.089   9.693  38.734  0.00  0.00    +0.000 A 
ATOM     17  C   UNL     1      21.556   9.561  38.828  0.00  0.00    +0.000 C 
ATOM     18  C   UNL     1      19.477   9.820  37.509  0.00  0.00    +0.000 A 
BRANCH  15  19
ATOM     19  N   UNL     1      19.937   9.563  41.131  0.00  0.00    +0.000 N 
ATOM     20  O   UNL     1      20.081   8.453  41.646  0.00  0.00    +0.000 OA
ATOM     21  O   UNL     1      20.377  10.670  41.784  0.00  0.00    +0.000 OA
ENDBRANCH  15  19
ENDBRANCH   2  12
TORSDOF 3
ENDMDL
MODEL 7
REMARK VINA RESULT:      -6.3     19.422     21.864
REMARK  Name = 
REMARK  3 active torsions:
REMARK  status: ('A' for Active; 'I' for Inactive)
REMARK    1  A    between atoms: C_5  and  N_6
REMARK    2  A    between atoms: C_7  and  C_9
REMARK    3  A    between atoms: C_12  and  N_13
REMARK                            x       y       z     vdW  Elec       q    Type
REMARK                         _______ _______ _______ _____ _____    ______ ____
ROOT
ATOM      1  N   UNL     1      34.329  -1.145  34.411  0.00  0.00    +0.000 NA
ATOM      2  C   UNL     1      33.303  -0.192  34.636  0.00  0.00    +0.000 C 
ATOM      3  O   UNL     1      32.133  -0.620  34.794  0.00  0.00    +0.000 OA
ENDROOT
BRANCH   1   8
ATOM      4  C   UNL     1      33.114  -6.686  34.198  0.00  0.00    +0.000 C 
ATOM      5  C   UNL     1      33.442  -5.237  34.293  0.00  0.00    +0.000 A 
ATOM      6  C   UNL     1      33.286  -4.468  33.154  0.00  0.00    +0.000 A 
ATOM      7  C   UNL     1      33.585  -3.117  33.215  0.00  0.00    +0.000 A 
ATOM      8  C   UNL     1      34.030  -2.522  34.370  0.00  0.00    +0.000 A 
ATOM      9  C   UNL     1      34.189  -3.278  35.506  0.00  0.00    +0.000 A 
ATOM     10  C   UNL     1      34.664  -2.709  36.789  0.00  0.00    +0.000 C 
ATOM     11  C   UNL     1      33.885  -4.640  35.436  0.00  0.00    +0.000 A 
ENDBRANCH   1   8
BRANCH   2  12
ATOM     12  C   UNL     1      33.536   1.240  34.692  0.00  0.00    +0.000 A 
ATOM     13  C   UNL     1      33.438   1.975  33.534  0.00  0.00    +0.000 A 
ATOM     14  C   UNL     1      33.649   3.348  33.512  0.00  0.00    +0.000 A 
ATOM     15  C   UNL     1      33.965   3.993  34.690  0.00  0.00    +0.000 A 
ATOM     16  C   UNL     1      34.069   3.283  35.861  0.00  0.00    +0.000 A 
ATOM     17  C   UNL     1      34.408   3.972  37.122  0.00  0.00    +0.000 C 
ATOM     18  C   UNL     1      33.854   1.925  35.844  0.00  0.00    +0.000 A 
BRANCH  15  19
ATOM     19  N   UNL     1      34.184   5.385  34.697  0.00  0.00    +0.000 N 
ATOM     20  O   UNL     1      33.232   6.167  34.739  0.00  0.00    +0.000 OA
ATOM     21  O   UNL     1      35.452   5.869  34.657  0.00  0.00    +0.000 OA
ENDBRANCH  15  19
ENDBRANCH   2  12
TORSDOF 3
ENDMDL
MODEL 8
REMARK VINA RESULT:      -6.3      3.048      7.989
REMARK  Name = 
REMARK  3 active torsions:
REMARK  status: ('A' for Active; 'I' for Inactive)
REMARK    1  A    between atoms: C_5  and  N_6
REMARK    2  A    between atoms: C_7  and  C_9
REMARK    3  A    between atoms: C_12  and  N_13
REMARK                            x       y       z     vdW  Elec       q    Type
REMARK                         _______ _______ _______ _____ _____    ______ ____
ROOT
ATOM      1  N   UNL     1      19.264  10.918  37.234  0.00  0.00    +0.000 NA
ATOM      2  C   UNL     1      18.266  10.104  36.640  0.00  0.00    +0.000 C 
ATOM      3  O   UNL     1      18.087   8.958  37.119  0.00  0.00    +0.000 OA
ENDROOT
BRANCH   1   8
ATOM      4  C   UNL     1      22.277   9.015  41.653  0.00  0.00    +0.000 C 
ATOM      5  C   UNL     1      21.516   9.503  40.470  0.00  0.00    +0.000 A 
ATOM      6  C   UNL     1      20.269  10.058  40.692  0.00  0.00    +0.000 A 
ATOM      7  C   UNL     1      19.541  10.519  39.609  0.00  0.00    +0.000 A 
ATOM      8  C   UNL     1      20.021  10.442  38.324  0.00  0.00    +0.000 A 
ATOM      9  C   UNL     1      21.259   9.892  38.093  0.00  0.00    +0.000 A 
ATOM     10  C   UNL     1      21.844   9.775  36.737  0.00  0.00    +0.000 C 
ATOM     11  C   UNL     1      21.987   9.430  39.192  0.00  0.00    +0.000 A 
ENDBRANCH   1   8
BRANCH   2  12
ATOM     12  C   UNL     1      17.449  10.528  35.518  0.00  0.00    +0.000 A 
ATOM     13  C   UNL     1      17.736  10.039  34.265  0.00  0.00    +0.000 A 
ATOM     14  C   UNL     1      16.998  10.400  33.145  0.00  0.00    +0.000 A 
ATOM     15  C   UNL     1      15.943  11.277  33.296  0.00  0.00    +0.000 A 
ATOM     16  C   UNL     1      15.634  11.780  34.535  0.00  0.00    +0.000 A 
ATOM     17  C   UNL     1      14.507  12.720  34.698  0.00  0.00    +0.000 C 
ATOM     18  C   UNL     1      16.388  11.400  35.622  0.00  0.00    +0.000 A 
BRANCH  15  19
ATOM     19  N   UNL     1      15.178  11.660  32.177  0.00  0.00    +0.000 N 
ATOM     20  O   UNL     1      15.392  12.734  31.611  0.00  0.00    +0.000 OA
ATOM     21  O   UNL     1      14.196  10.841  31.717  0.00  0.00    +0.000 OA
ENDBRANCH  15  19
ENDBRANCH   2  12
TORSDOF 3
ENDMDL
MODEL 9
REMARK VINA RESULT:      -6.2     19.693     22.244
REMARK  Name = 
REMARK  3 active torsions:
REMARK  status: ('A' for Active; 'I' for Inactive)
REMARK    1  A    between atoms: C_5  and  N_6
REMARK    2  A    between atoms: C_7  and  C_9
REMARK    3  A    between atoms: C_12  and  N_13
REMARK                            x       y       z     vdW  Elec       q    Type
REMARK                         _______ _______ _______ _____ _____    ______ ____
ROOT
ATOM      1  N   UNL     1      30.430  23.420  28.087  0.00  0.00    +0.000 NA
ATOM      2  C   UNL     1      29.528  22.885  27.131  0.00  0.00    +0.000 C 
ATOM      3  O   UNL     1      28.782  21.944  27.496  0.00  0.00    +0.000 OA
ENDROOT
BRANCH   1   8
ATOM      4  C   UNL     1      30.571  21.353  33.373  0.00  0.00    +0.000 C 
ATOM      5  C   UNL     1      30.568  21.875  31.978  0.00  0.00    +0.000 A 
ATOM      6  C   UNL     1      29.528  22.709  31.607  0.00  0.00    +0.000 A 
ATOM      7  C   UNL     1      29.502  23.208  30.316  0.00  0.00    +0.000 A 
ATOM      8  C   UNL     1      30.475  22.901  29.397  0.00  0.00    +0.000 A 
ATOM      9  C   UNL     1      31.512  22.073  29.756  0.00  0.00    +0.000 A 
ATOM     10  C   UNL     1      32.597  21.696  28.822  0.00  0.00    +0.000 C 
ATOM     11  C   UNL     1      31.531  21.574  31.061  0.00  0.00    +0.000 A 
ENDBRANCH   1   8
BRANCH   2  12
ATOM     12  C   UNL     1      29.426  23.370  25.767  0.00  0.00    +0.000 A 
ATOM     13  C   UNL     1      30.529  23.945  25.182  0.00  0.00    +0.000 A 
ATOM     14  C   UNL     1      30.506  24.431  23.880  0.00  0.00    +0.000 A 
ATOM     15  C   UNL     1      29.338  24.332  23.153  0.00  0.00    +0.000 A 
ATOM     16  C   UNL     1      28.221  23.761  23.712  0.00  0.00    +0.000 A 
ATOM     17  C   UNL     1      26.970  23.656  22.935  0.00  0.00    +0.000 C 
ATOM     18  C   UNL     1      28.281  23.292  25.004  0.00  0.00    +0.000 A 
BRANCH  15  19
ATOM     19  N   UNL     1      29.285  24.817  21.831  0.00  0.00    +0.000 N 
ATOM     20  O   UNL     1      29.714  24.135  20.898  0.00  0.00    +0.000 OA
ATOM     21  O   UNL     1      28.757  26.044  21.582  0.00  0.00    +0.000 OA
ENDBRANCH  15  19
ENDBRANCH   2  12
TORSDOF 3
ENDMDL
MODEL 10
REMARK VINA RESULT:      -6.2     19.365     20.516
REMARK  Name = 
REMARK  3 active torsions:
REMARK  status: ('A' for Active; 'I' for Inactive)
REMARK    1  A    between atoms: C_5  and  N_6
REMARK    2  A    between atoms: C_7  and  C_9
REMARK    3  A    between atoms: C_12  and  N_13
REMARK                            x       y       z     vdW  Elec       q    Type
REMARK                         _______ _______ _______ _____ _____    ______ ____
ROOT
ATOM      1  N   UNL     1      30.175  21.933  27.164  0.00  0.00    +0.000 NA
ATOM      2  C   UNL     1      30.580  22.806  28.206  0.00  0.00    +0.000 C 
ATOM      3  O   UNL     1      30.097  23.965  28.217  0.00  0.00    +0.000 OA
ENDROOT
BRANCH   1   8
ATOM      4  C   UNL     1      26.461  23.668  23.237  0.00  0.00    +0.000 C 
ATOM      5  C   UNL     1      27.465  23.220  24.241  0.00  0.00    +0.000 A 
ATOM      6  C   UNL     1      26.997  22.797  25.472  0.00  0.00    +0.000 A 
ATOM      7  C   UNL     1      27.910  22.375  26.423  0.00  0.00    +0.000 A 
ATOM      8  C   UNL     1      29.262  22.366  26.181  0.00  0.00    +0.000 A 
ATOM      9  C   UNL     1      29.737  22.786  24.962  0.00  0.00    +0.000 A 
ATOM     10  C   UNL     1      31.179  22.804  24.626  0.00  0.00    +0.000 C 
ATOM     11  C   UNL     1      28.808  23.209  24.007  0.00  0.00    +0.000 A 
ENDBRANCH   1   8
BRANCH   2  12
ATOM     12  C   UNL     1      31.514  22.429  29.251  0.00  0.00    +0.000 A 
ATOM     13  C   UNL     1      32.853  22.350  28.948  0.00  0.00    +0.000 A 
ATOM     14  C   UNL     1      33.804  21.995  29.896  0.00  0.00    +0.000 A 
ATOM     15  C   UNL     1      33.391  21.714  31.182  0.00  0.00    +0.000 A 
ATOM     16  C   UNL     1      32.060  21.785  31.512  0.00  0.00    +0.000 A 
ATOM     17  C   UNL     1      31.617  21.483  32.888  0.00  0.00    +0.000 C 
ATOM     18  C   UNL     1      31.146  22.139  30.547  0.00  0.00    +0.000 A 
BRANCH  15  19
ATOM     19  N   UNL     1      34.334  21.351  32.164  0.00  0.00    +0.000 N 
ATOM     20  O   UNL     1      34.699  20.180  32.278  0.00  0.00    +0.000 OA
ATOM     21  O   UNL     1      34.846  22.300  32.991  0.00  0.00    +0.000 OA
ENDBRANCH  15  19
ENDBRANCH   2  12
TORSDOF 3
ENDMDL
