MODEL 1
REMARK VINA RESULT:      -6.8      0.000      0.000
REMARK  Name = 
REMARK  4 active torsions:
REMARK  status: ('A' for Active; 'I' for Inactive)
REMARK    1  A    between atoms: N_2  and  C_4
REMARK    2  A    between atoms: C_8  and  N_9
REMARK    3  A    between atoms: N_9  and  N_10
REMARK    4  A    between atoms: N_10  and  C_11
REMARK                            x       y       z     vdW  Elec       q    Type
REMARK                         _______ _______ _______ _____ _____    ______ ____
ROOT
ATOM      1  C   UNL     1      14.662  12.557  32.386  0.00  0.00    +0.000 A 
ATOM      2  C   UNL     1      13.895  13.698  32.159  0.00  0.00    +0.000 A 
ATOM      3  C   UNL     1      13.430  14.455  33.214  0.00  0.00    +0.000 A 
ATOM      4  C   UNL     1      13.728  14.076  34.486  0.00  0.00    +0.000 A 
ATOM      5  C   UNL     1      14.477  12.961  34.724  0.00  0.00    +0.000 A 
ATOM      6  C   UNL     1      14.937  12.211  33.681  0.00  0.00    +0.000 A 
ENDROOT
BRANCH   1   8
ATOM      7  O   UNL     1      16.230  11.241  31.274  0.00  0.00    +0.000 OA
ATOM      8  N   UNL     1      15.127  11.797  31.278  0.00  0.00    +0.000 N 
ATOM      9  O   UNL     1      14.338  11.662  30.160  0.00  0.00    +0.000 OA
ENDBRANCH   1   8
BRANCH   5  10
ATOM     10  N   UNL     1      14.756  12.595  36.069  0.00  0.00    +0.000 NA
BRANCH  10  11
ATOM     11  N   UNL     1      16.009  12.944  36.577  0.00  0.00    +0.000 NA
BRANCH  11  12
ATOM     12  C   UNL     1      16.985  12.090  37.081  0.00  0.00    +0.000 C 
ATOM     13  C   UNL     1      18.173  12.556  37.451  0.00  0.00    +0.000 C 
ATOM     14  C   UNL     1      19.362  11.891  38.002  0.00  0.00    +0.000 C 
ATOM     15  C   UNL     1      19.441  10.428  37.688  0.00  0.00    +0.000 C 
ATOM     16  C   UNL     1      18.468   9.589  38.450  0.00  0.00    +0.000 C 
ATOM     17  C   UNL     1      17.084  10.121  38.562  0.00  0.00    +0.000 C 
ATOM     18  C   UNL     1      16.638  10.624  37.195  0.00  0.00    +0.000 C 
ENDBRANCH  11  12
ENDBRANCH  10  11
ENDBRANCH   5  10
TORSDOF 4
ENDMDL
MODEL 2
REMARK VINA RESULT:      -6.0     17.699     18.650
REMARK  Name = 
REMARK  4 active torsions:
REMARK  status: ('A' for Active; 'I' for Inactive)
REMARK    1  A    between atoms: N_2  and  C_4
REMARK    2  A    between atoms: C_8  and  N_9
REMARK    3  A    between atoms: N_9  and  N_10
REMARK    4  A    between atoms: N_10  and  C_11
REMARK                            x       y       z     vdW  Elec       q    Type
REMARK                         _______ _______ _______ _____ _____    ______ ____
ROOT
ATOM      1  C   UNL     1      25.658  24.431  29.308  0.00  0.00    +0.000 A 
ATOM      2  C   UNL     1      24.945  25.623  29.184  0.00  0.00    +0.000 A 
ATOM      3  C   UNL     1      24.599  26.110  27.941  0.00  0.00    +0.000 A 
ATOM      4  C   UNL     1      24.960  25.414  26.830  0.00  0.00    +0.000 A 
ATOM      5  C   UNL     1      25.659  24.247  26.935  0.00  0.00    +0.000 A 
ATOM      6  C   UNL     1      26.003  23.764  28.165  0.00  0.00    +0.000 A 
ENDROOT
BRANCH   1   8
ATOM      7  O   UNL     1      26.213  24.716  31.552  0.00  0.00    +0.000 OA
ATOM      8  N   UNL     1      26.000  23.955  30.602  0.00  0.00    +0.000 N 
ATOM      9  O   UNL     1      26.105  22.603  30.830  0.00  0.00    +0.000 OA
ENDBRANCH   1   8
BRANCH   5  10
ATOM     10  N   UNL     1      26.027  23.557  25.747  0.00  0.00    +0.000 NA
BRANCH  10  11
ATOM     11  N   UNL     1      26.993  22.555  25.866  0.00  0.00    +0.000 NA
BRANCH  11  12
ATOM     12  C   UNL     1      28.375  22.708  25.852  0.00  0.00    +0.000 C 
ATOM     13  C   UNL     1      29.125  22.213  26.832  0.00  0.00    +0.000 C 
ATOM     14  C   UNL     1      30.576  22.232  27.065  0.00  0.00    +0.000 C 
ATOM     15  C   UNL     1      31.291  23.343  26.359  0.00  0.00    +0.000 C 
ATOM     16  C   UNL     1      31.407  23.151  24.882  0.00  0.00    +0.000 C 
ATOM     17  C   UNL     1      30.189  22.660  24.183  0.00  0.00    +0.000 C 
ATOM     18  C   UNL     1      28.984  23.446  24.683  0.00  0.00    +0.000 C 
ENDBRANCH  11  12
ENDBRANCH  10  11
ENDBRANCH   5  10
TORSDOF 4
ENDMDL
MODEL 3
REMARK VINA RESULT:      -6.0     18.536     19.452
REMARK  Name = 
REMARK  4 active torsions:
REMARK  status: ('A' for Active; 'I' for Inactive)
REMARK    1  A    between atoms: N_2  and  C_4
REMARK    2  A    between atoms: C_8  and  N_9
REMARK    3  A    between atoms: N_9  and  N_10
REMARK    4  A    between atoms: N_10  and  C_11
REMARK                            x       y       z     vdW  Elec       q    Type
REMARK                         _______ _______ _______ _____ _____    ______ ____
ROOT
ATOM      1  C   UNL     1      29.506  24.012  23.371  0.00  0.00    +0.000 A 
ATOM      2  C   UNL     1      30.724  23.690  23.969  0.00  0.00    +0.000 A 
ATOM      3  C   UNL     1      30.762  22.952  25.133  0.00  0.00    +0.000 A 
ATOM      4  C   UNL     1      29.596  22.537  25.697  0.00  0.00    +0.000 A 
ATOM      5  C   UNL     1      28.397  22.845  25.124  0.00  0.00    +0.000 A 
ATOM      6  C   UNL     1      28.357  23.576  23.972  0.00  0.00    +0.000 A 
ENDROOT
BRANCH   1   8
ATOM      7  O   UNL     1      29.717  24.269  21.066  0.00  0.00    +0.000 OA
ATOM      8  N   UNL     1      29.498  24.775  22.172  0.00  0.00    +0.000 N 
ATOM      9  O   UNL     1      29.239  26.124  22.219  0.00  0.00    +0.000 OA
ENDBRANCH   1   8
BRANCH   5  10
ATOM     10  N   UNL     1      27.201  22.401  25.752  0.00  0.00    +0.000 NA
BRANCH  10  11
ATOM     11  N   UNL     1      26.351  23.381  26.269  0.00  0.00    +0.000 NA
BRANCH  11  12
ATOM     12  C   UNL     1      26.265  23.816  27.587  0.00  0.00    +0.000 C 
ATOM     13  C   UNL     1      25.439  24.800  27.927  0.00  0.00    +0.000 C 
ATOM     14  C   UNL     1      25.156  25.445  29.217  0.00  0.00    +0.000 C 
ATOM     15  C   UNL     1      26.260  25.310  30.220  0.00  0.00    +0.000 C 
ATOM     16  C   UNL     1      26.394  23.938  30.796  0.00  0.00    +0.000 C 
ATOM     17  C   UNL     1      26.292  22.806  29.836  0.00  0.00    +0.000 C 
ATOM     18  C   UNL     1      27.137  23.124  28.609  0.00  0.00    +0.000 C 
ENDBRANCH  11  12
ENDBRANCH  10  11
ENDBRANCH   5  10
TORSDOF 4
ENDMDL
MODEL 4
REMARK VINA RESULT:      -5.9     21.025     22.364
REMARK  Name = 
REMARK  4 active torsions:
REMARK  status: ('A' for Active; 'I' for Inactive)
REMARK    1  A    between atoms: N_2  and  C_4
REMARK    2  A    between atoms: C_8  and  N_9
REMARK    3  A    between atoms: N_9  and  N_10
REMARK    4  A    between atoms: N_10  and  C_11
REMARK                            x       y       z     vdW  Elec       q    Type
REMARK                         _______ _______ _______ _____ _____    ______ ____
ROOT
ATOM      1  C   UNL     1      19.312  -6.531  26.276  0.00  0.00    +0.000 A 
ATOM      2  C   UNL     1      20.393  -5.996  25.578  0.00  0.00    +0.000 A 
ATOM      3  C   UNL     1      21.445  -6.799  25.188  0.00  0.00    +0.000 A 
ATOM      4  C   UNL     1      21.419  -8.124  25.492  0.00  0.00    +0.000 A 
ATOM      5  C   UNL     1      20.367  -8.661  26.176  0.00  0.00    +0.000 A 
ATOM      6  C   UNL     1      19.326  -7.868  26.564  0.00  0.00    +0.000 A 
ENDROOT
BRANCH   1   8
ATOM      7  O   UNL     1      18.296  -4.451  26.537  0.00  0.00    +0.000 OA
ATOM      8  N   UNL     1      18.243  -5.678  26.665  0.00  0.00    +0.000 N 
ATOM      9  O   UNL     1      17.098  -6.216  27.205  0.00  0.00    +0.000 OA
ENDBRANCH   1   8
BRANCH   5  10
ATOM     10  N   UNL     1      20.385 -10.049  26.483  0.00  0.00    +0.000 NA
BRANCH  10  11
ATOM     11  N   UNL     1      20.649 -10.405  27.808  0.00  0.00    +0.000 NA
BRANCH  11  12
ATOM     12  C   UNL     1      19.770 -10.366  28.885  0.00  0.00    +0.000 C 
ATOM     13  C   UNL     1      20.163  -9.906  30.068  0.00  0.00    +0.000 C 
ATOM     14  C   UNL     1      19.457  -9.757  31.349  0.00  0.00    +0.000 C 
ATOM     15  C   UNL     1      18.271 -10.660  31.498  0.00  0.00    +0.000 C 
ATOM     16  C   UNL     1      17.096 -10.263  30.665  0.00  0.00    +0.000 C 
ATOM     17  C   UNL     1      17.388  -9.856  29.265  0.00  0.00    +0.000 C 
ATOM     18  C   UNL     1      18.360 -10.857  28.654  0.00  0.00    +0.000 C 
ENDBRANCH  11  12
ENDBRANCH  10  11
ENDBRANCH   5  10
TORSDOF 4
ENDMDL
MODEL 5
REMARK VINA RESULT:      -5.9     17.638     18.972
REMARK  Name = 
REMARK  4 active torsions:
REMARK  status: ('A' for Active; 'I' for Inactive)
REMARK    1  A    between atoms: N_2  and  C_4
REMARK    2  A    between atoms: C_8  and  N_9
REMARK    3  A    between atoms: N_9  and  N_10
REMARK    4  A    between atoms: N_10  and  C_11
REMARK                            x       y       z     vdW  Elec       q    Type
REMARK                         _______ _______ _______ _____ _____    ______ ____
ROOT
ATOM      1  C   UNL     1      26.117  23.505  29.634  0.00  0.00    +0.000 A 
ATOM      2  C   UNL     1      25.716  24.644  30.330  0.00  0.00    +0.000 A 
ATOM      3  C   UNL     1      25.234  25.747  29.656  0.00  0.00    +0.000 A 
ATOM      4  C   UNL     1      25.153  25.714  28.299  0.00  0.00    +0.000 A 
ATOM      5  C   UNL     1      25.544  24.607  27.604  0.00  0.00    +0.000 A 
ATOM      6  C   UNL     1      26.021  23.515  28.269  0.00  0.00    +0.000 A 
ENDROOT
BRANCH   1   8
ATOM      7  O   UNL     1      25.860  21.571  30.907  0.00  0.00    +0.000 OA
ATOM      8  N   UNL     1      26.610  22.384  30.356  0.00  0.00    +0.000 N 
ATOM      9  O   UNL     1      27.965  22.177  30.459  0.00  0.00    +0.000 OA
ENDBRANCH   1   8
BRANCH   5  10
ATOM     10  N   UNL     1      25.453  24.619  26.185  0.00  0.00    +0.000 NA
BRANCH  10  11
ATOM     11  N   UNL     1      26.098  23.589  25.497  0.00  0.00    +0.000 NA
BRANCH  11  12
ATOM     12  C   UNL     1      27.154  23.704  24.599  0.00  0.00    +0.000 C 
ATOM     13  C   UNL     1      28.279  23.020  24.780  0.00  0.00    +0.000 C 
ATOM     14  C   UNL     1      29.527  22.957  24.005  0.00  0.00    +0.000 C 
ATOM     15  C   UNL     1      29.768  24.158  23.142  0.00  0.00    +0.000 C 
ATOM     16  C   UNL     1      28.882  24.232  21.942  0.00  0.00    +0.000 C 
ATOM     17  C   UNL     1      27.447  23.910  22.160  0.00  0.00    +0.000 C 
ATOM     18  C   UNL     1      26.967  24.625  23.416  0.00  0.00    +0.000 C 
ENDBRANCH  11  12
ENDBRANCH  10  11
ENDBRANCH   5  10
TORSDOF 4
ENDMDL
MODEL 6
REMARK VINA RESULT:      -5.7     21.532     22.514
REMARK  Name = 
REMARK  4 active torsions:
REMARK  status: ('A' for Active; 'I' for Inactive)
REMARK    1  A    between atoms: N_2  and  C_4
REMARK    2  A    between atoms: C_8  and  N_9
REMARK    3  A    between atoms: N_9  and  N_10
REMARK    4  A    between atoms: N_10  and  C_11
REMARK                            x       y       z     vdW  Elec       q    Type
REMARK                         _______ _______ _______ _____ _____    ______ ____
ROOT
ATOM      1  C   UNL     1      29.487  27.042  20.040  0.00  0.00    +0.000 A 
ATOM      2  C   UNL     1      28.368  27.711  20.533  0.00  0.00    +0.000 A 
ATOM      3  C   UNL     1      27.469  27.066  21.357  0.00  0.00    +0.000 A 
ATOM      4  C   UNL     1      27.685  25.764  21.686  0.00  0.00    +0.000 A 
ATOM      5  C   UNL     1      28.775  25.096  21.210  0.00  0.00    +0.000 A 
ATOM      6  C   UNL     1      29.666  25.733  20.394  0.00  0.00    +0.000 A 
ENDROOT
BRANCH   1   8
ATOM      7  O   UNL     1      31.206  27.144  18.471  0.00  0.00    +0.000 OA
ATOM      8  N   UNL     1      30.395  27.734  19.193  0.00  0.00    +0.000 N 
ATOM      9  O   UNL     1      30.389  29.108  19.157  0.00  0.00    +0.000 OA
ENDBRANCH   1   8
BRANCH   5  10
ATOM     10  N   UNL     1      28.957  23.733  21.570  0.00  0.00    +0.000 NA
BRANCH  10  11
ATOM     11  N   UNL     1      28.271  23.275  22.697  0.00  0.00    +0.000 NA
BRANCH  11  12
ATOM     12  C   UNL     1      28.783  23.073  23.974  0.00  0.00    +0.000 C 
ATOM     13  C   UNL     1      30.090  22.938  24.170  0.00  0.00    +0.000 C 
ATOM     14  C   UNL     1      30.884  22.717  25.388  0.00  0.00    +0.000 C 
ATOM     15  C   UNL     1      30.113  22.101  26.514  0.00  0.00    +0.000 C 
ATOM     16  C   UNL     1      29.143  23.030  27.168  0.00  0.00    +0.000 C 
ATOM     17  C   UNL     1      28.331  23.882  26.259  0.00  0.00    +0.000 C 
ATOM     18  C   UNL     1      27.800  23.021  25.120  0.00  0.00    +0.000 C 
ENDBRANCH  11  12
ENDBRANCH  10  11
ENDBRANCH   5  10
TORSDOF 4
ENDMDL
MODEL 7
REMARK VINA RESULT:      -5.7     28.301     30.510
REMARK  Name = 
REMARK  4 active torsions:
REMARK  status: ('A' for Active; 'I' for Inactive)
REMARK    1  A    between atoms: N_2  and  C_4
REMARK    2  A    between atoms: C_8  and  N_9
REMARK    3  A    between atoms: N_9  and  N_10
REMARK    4  A    between atoms: N_10  and  C_11
REMARK                            x       y       z     vdW  Elec       q    Type
REMARK                         _______ _______ _______ _____ _____    ______ ____
ROOT
ATOM      1  C   UNL     1      34.335  20.296  10.554  0.00  0.00    +0.000 A 
ATOM      2  C   UNL     1      34.225  19.697   9.300  0.00  0.00    +0.000 A 
ATOM      3  C   UNL     1      33.153  19.977   8.479  0.00  0.00    +0.000 A 
ATOM      4  C   UNL     1      32.198  20.846   8.904  0.00  0.00    +0.000 A 
ATOM      5  C   UNL     1      32.292  21.439  10.130  0.00  0.00    +0.000 A 
ATOM      6  C   UNL     1      33.352  21.163  10.945  0.00  0.00    +0.000 A 
ENDROOT
BRANCH   1   8
ATOM      7  O   UNL     1      35.738  18.828  11.696  0.00  0.00    +0.000 OA
ATOM      8  N   UNL     1      35.451  19.988  11.379  0.00  0.00    +0.000 N 
ATOM      9  O   UNL     1      36.254  20.998  11.852  0.00  0.00    +0.000 OA
ENDBRANCH   1   8
BRANCH   5  10
ATOM     10  N   UNL     1      31.265  22.334  10.540  0.00  0.00    +0.000 NA
BRANCH  10  11
ATOM     11  N   UNL     1      29.993  21.795  10.740  0.00  0.00    +0.000 NA
BRANCH  11  12
ATOM     12  C   UNL     1      28.906  22.400  11.363  0.00  0.00    +0.000 C 
ATOM     13  C   UNL     1      27.669  21.969  11.143  0.00  0.00    +0.000 C 
ATOM     14  C   UNL     1      26.366  22.418  11.656  0.00  0.00    +0.000 C 
ATOM     15  C   UNL     1      26.357  23.836  12.136  0.00  0.00    +0.000 C 
ATOM     16  C   UNL     1      27.076  24.046  13.429  0.00  0.00    +0.000 C 
ATOM     17  C   UNL     1      28.385  23.355  13.575  0.00  0.00    +0.000 C 
ATOM     18  C   UNL     1      29.191  23.552  12.298  0.00  0.00    +0.000 C 
ENDBRANCH  11  12
ENDBRANCH  10  11
ENDBRANCH   5  10
TORSDOF 4
ENDMDL
MODEL 8
REMARK VINA RESULT:      -5.6     18.536     20.066
REMARK  Name = 
REMARK  4 active torsions:
REMARK  status: ('A' for Active; 'I' for Inactive)
REMARK    1  A    between atoms: N_2  and  C_4
REMARK    2  A    between atoms: C_8  and  N_9
REMARK    3  A    between atoms: N_9  and  N_10
REMARK    4  A    between atoms: N_10  and  C_11
REMARK                            x       y       z     vdW  Elec       q    Type
REMARK                         _______ _______ _______ _____ _____    ______ ____
ROOT
ATOM      1  C   UNL     1      26.896  23.393  28.530  0.00  0.00    +0.000 A 
ATOM      2  C   UNL     1      28.079  22.673  28.370  0.00  0.00    +0.000 A 
ATOM      3  C   UNL     1      28.465  22.223  27.125  0.00  0.00    +0.000 A 
ATOM      4  C   UNL     1      27.678  22.488  26.048  0.00  0.00    +0.000 A 
ATOM      5  C   UNL     1      26.517  23.190  26.189  0.00  0.00    +0.000 A 
ATOM      6  C   UNL     1      26.133  23.637  27.421  0.00  0.00    +0.000 A 
ENDROOT
BRANCH   1   8
ATOM      7  O   UNL     1      25.886  23.138  30.614  0.00  0.00    +0.000 OA
ATOM      8  N   UNL     1      26.524  23.844  29.826  0.00  0.00    +0.000 N 
ATOM      9  O   UNL     1      26.875  25.107  30.239  0.00  0.00    +0.000 OA
ENDBRANCH   1   8
BRANCH   5  10
ATOM     10  N   UNL     1      25.718  23.436  25.039  0.00  0.00    +0.000 NA
BRANCH  10  11
ATOM     11  N   UNL     1      25.894  24.662  24.392  0.00  0.00    +0.000 NA
BRANCH  11  12
ATOM     12  C   UNL     1      26.873  24.993  23.461  0.00  0.00    +0.000 C 
ATOM     13  C   UNL     1      27.372  26.223  23.407  0.00  0.00    +0.000 C 
ATOM     14  C   UNL     1      28.390  26.834  22.540  0.00  0.00    +0.000 C 
ATOM     15  C   UNL     1      28.581  26.126  21.234  0.00  0.00    +0.000 C 
ATOM     16  C   UNL     1      29.289  24.816  21.349  0.00  0.00    +0.000 C 
ATOM     17  C   UNL     1      28.867  23.935  22.471  0.00  0.00    +0.000 C 
ATOM     18  C   UNL     1      27.346  23.904  22.527  0.00  0.00    +0.000 C 
ENDBRANCH  11  12
ENDBRANCH  10  11
ENDBRANCH   5  10
TORSDOF 4
ENDMDL
MODEL 9
REMARK VINA RESULT:      -5.6     18.647     19.539
REMARK  Name = 
REMARK  4 active torsions:
REMARK  status: ('A' for Active; 'I' for Inactive)
REMARK    1  A    between atoms: N_2  and  C_4
REMARK    2  A    between atoms: C_8  and  N_9
REMARK    3  A    between atoms: N_9  and  N_10
REMARK    4  A    between atoms: N_10  and  C_11
REMARK                            x       y       z     vdW  Elec       q    Type
REMARK                         _______ _______ _______ _____ _____    ______ ____
ROOT
ATOM      1  C   UNL     1      29.690  23.469  23.734  0.00  0.00    +0.000 A 
ATOM      2  C   UNL     1      30.932  24.086  23.875  0.00  0.00    +0.000 A 
ATOM      3  C   UNL     1      31.649  23.964  25.047  0.00  0.00    +0.000 A 
ATOM      4  C   UNL     1      31.132  23.232  26.069  0.00  0.00    +0.000 A 
ATOM      5  C   UNL     1      29.918  22.622  25.946  0.00  0.00    +0.000 A 
ATOM      6  C   UNL     1      29.206  22.743  24.787  0.00  0.00    +0.000 A 
ENDROOT
BRANCH   1   8
ATOM      7  O   UNL     1      27.796  23.262  22.393  0.00  0.00    +0.000 OA
ATOM      8  N   UNL     1      28.974  23.614  22.514  0.00  0.00    +0.000 N 
ATOM      9  O   UNL     1      29.594  24.162  21.416  0.00  0.00    +0.000 OA
ENDBRANCH   1   8
BRANCH   5  10
ATOM     10  N   UNL     1      29.409  21.875  27.044  0.00  0.00    +0.000 NA
BRANCH  10  11
ATOM     11  N   UNL     1      29.136  22.578  28.220  0.00  0.00    +0.000 NA
BRANCH  11  12
ATOM     12  C   UNL     1      27.984  23.294  28.528  0.00  0.00    +0.000 C 
ATOM     13  C   UNL     1      26.984  23.382  27.657  0.00  0.00    +0.000 C 
ATOM     14  C   UNL     1      25.682  24.062  27.721  0.00  0.00    +0.000 C 
ATOM     15  C   UNL     1      25.634  25.193  28.701  0.00  0.00    +0.000 C 
ATOM     16  C   UNL     1      25.615  24.760  30.131  0.00  0.00    +0.000 C 
ATOM     17  C   UNL     1      26.551  23.665  30.499  0.00  0.00    +0.000 C 
ATOM     18  C   UNL     1      27.914  23.954  29.885  0.00  0.00    +0.000 C 
ENDBRANCH  11  12
ENDBRANCH  10  11
ENDBRANCH   5  10
TORSDOF 4
ENDMDL
MODEL 10
REMARK VINA RESULT:      -5.6     21.034     22.029
REMARK  Name = 
REMARK  4 active torsions:
REMARK  status: ('A' for Active; 'I' for Inactive)
REMARK    1  A    between atoms: N_2  and  C_4
REMARK    2  A    between atoms: C_8  and  N_9
REMARK    3  A    between atoms: N_9  and  N_10
REMARK    4  A    between atoms: N_10  and  C_11
REMARK                            x       y       z     vdW  Elec       q    Type
REMARK                         _______ _______ _______ _____ _____    ______ ____
ROOT
ATOM      1  C   UNL     1      24.313   0.560  17.345  0.00  0.00    +0.000 A 
ATOM      2  C   UNL     1      23.002   0.089  17.402  0.00  0.00    +0.000 A 
ATOM      3  C   UNL     1      21.966   0.932  17.747  0.00  0.00    +0.000 A 
ATOM      4  C   UNL     1      22.235   2.234  18.034  0.00  0.00    +0.000 A 
ATOM      5  C   UNL     1      23.514   2.709  17.984  0.00  0.00    +0.000 A 
ATOM      6  C   UNL     1      24.540   1.876  17.643  0.00  0.00    +0.000 A 
ENDROOT
BRANCH   1   8
ATOM      7  O   UNL     1      25.167  -1.327  16.279  0.00  0.00    +0.000 OA
ATOM      8  N   UNL     1      25.360  -0.332  16.986  0.00  0.00    +0.000 N 
ATOM      9  O   UNL     1      26.640  -0.101  17.429  0.00  0.00    +0.000 OA
ENDBRANCH   1   8
BRANCH   5  10
ATOM     10  N   UNL     1      23.752   4.074  18.302  0.00  0.00    +0.000 NA
BRANCH  10  11
ATOM     11  N   UNL     1      24.546   4.805  17.416  0.00  0.00    +0.000 NA
BRANCH  11  12
ATOM     12  C   UNL     1      25.709   5.510  17.707  0.00  0.00    +0.000 C 
ATOM     13  C   UNL     1      26.481   5.158  18.730  0.00  0.00    +0.000 C 
ATOM     14  C   UNL     1      27.736   5.717  19.253  0.00  0.00    +0.000 C 
ATOM     15  C   UNL     1      27.960   7.153  18.890  0.00  0.00    +0.000 C 
ATOM     16  C   UNL     1      28.319   7.368  17.455  0.00  0.00    +0.000 C 
ATOM     17  C   UNL     1      27.535   6.595  16.456  0.00  0.00    +0.000 C 
ATOM     18  C   UNL     1      26.058   6.680  16.817  0.00  0.00    +0.000 C 
ENDBRANCH  11  12
ENDBRANCH  10  11
ENDBRANCH   5  10
TORSDOF 4
ENDMDL
