MODEL 1
REMARK VINA RESULT:      -7.4      0.000      0.000
REMARK  Name = 
REMARK  8 active torsions:
REMARK  status: ('A' for Active; 'I' for Inactive)
REMARK    1  A    between atoms: C_2  and  N_3
REMARK    2  A    between atoms: N_3  and  C_4
REMARK    3  A    between atoms: N_3  and  C_6
REMARK    4  A    between atoms: C_6  and  C_7
REMARK    5  A    between atoms: C_7  and  C_9
REMARK    6  A    between atoms: C_9  and  N_10
REMARK    7  A    between atoms: C_11  and  C_12
REMARK    8  A    between atoms: C_18  and  C_19
REMARK                            x       y       z     vdW  Elec       q    Type
REMARK                         _______ _______ _______ _____ _____    ______ ____
ROOT
ATOM      1  N   UNL     1      38.370   0.672  14.130  0.00  0.00    +0.000 N 
ATOM      2  C   UNL     1      38.811  -0.598  14.487  0.00  0.00    +0.000 A 
ATOM      3  C   UNL     1      37.938  -1.065  15.430  0.00  0.00    +0.000 A 
ATOM      4  C   UNL     1      36.953  -0.130  15.673  0.00  0.00    +0.000 A 
ATOM      5  C   UNL     1      35.864  -0.170  16.501  0.00  0.00    +0.000 A 
ATOM      6  C   UNL     1      34.975   0.883  16.550  0.00  0.00    +0.000 A 
ATOM      7  C   UNL     1      35.248   1.949  15.728  0.00  0.00    +0.000 A 
ATOM      8  C   UNL     1      34.373   3.033  15.690  0.00  0.00    +0.000 A 
ATOM      9  C   UNL     1      34.569   4.110  14.868  0.00  0.00    +0.000 A 
ATOM     10  C   UNL     1      35.691   4.096  14.052  0.00  0.00    +0.000 A 
ATOM     11  C   UNL     1      36.572   3.044  14.065  0.00  0.00    +0.000 A 
ATOM     12  C   UNL     1      36.358   1.978  14.894  0.00  0.00    +0.000 A 
ATOM     13  C   UNL     1      37.271   0.938  14.830  0.00  0.00    +0.000 A 
ENDROOT
BRANCH   2  14
ATOM     14  C   UNL     1      39.915  -1.397  13.994  0.00  0.00    +0.000 A 
ATOM     15  C   UNL     1      39.708  -2.303  12.935  0.00  0.00    +0.000 A 
ATOM     16  C   UNL     1      40.690  -3.112  12.433  0.00  0.00    +0.000 A 
ATOM     17  C   UNL     1      41.948  -3.064  12.961  0.00  0.00    +0.000 A 
ATOM     18  C   UNL     1      42.204  -2.197  13.997  0.00  0.00    +0.000 A 
ATOM     19  C   UNL     1      41.195  -1.387  14.491  0.00  0.00    +0.000 A 
ENDBRANCH   2  14
BRANCH   3  20
ATOM     20  C   UNL     1      37.995  -2.358  16.114  0.00  0.00    +0.000 A 
ATOM     21  C   UNL     1      38.716  -2.512  17.270  0.00  0.00    +0.000 A 
ATOM     22  C   UNL     1      38.792  -3.735  17.938  0.00  0.00    +0.000 A 
ATOM     23  C   UNL     1      38.134  -4.831  17.439  0.00  0.00    +0.000 A 
ATOM     24  C   UNL     1      37.405  -4.698  16.280  0.00  0.00    +0.000 A 
ATOM     25  C   UNL     1      37.343  -3.474  15.635  0.00  0.00    +0.000 A 
ENDBRANCH   3  20
BRANCH   1  26
ATOM     26  C   UNL     1      39.084   1.364  13.157  0.00  0.00    +0.000 C 
BRANCH  26  27
ATOM     27  C   UNL     1      38.545   1.032  11.598  0.00  0.00    +0.000 C 
ATOM     28  O   UNL     1      40.011   0.700  11.130  0.00  0.00    +0.000 OA
BRANCH  27  29
ATOM     29  C   UNL     1      38.704   2.559  11.056  0.00  0.00    +0.000 C 
BRANCH  29  30
ATOM     30  N   UNL     1      37.439   2.905  10.513  0.00  0.00    +0.000 NA
BRANCH  30  32
ATOM     31  C   UNL     1      36.284   2.790   8.364  0.00  0.00    +0.000 C 
ATOM     32  C   UNL     1      36.930   2.053   9.531  0.00  0.00    +0.000 C 
ENDBRANCH  30  32
BRANCH  30  33
ATOM     33  C   UNL     1      37.053   4.262  10.526  0.00  0.00    +0.000 C 
ATOM     34  C   UNL     1      38.094   5.073  11.282  0.00  0.00    +0.000 C 
ENDBRANCH  30  33
ENDBRANCH  29  30
ENDBRANCH  27  29
ENDBRANCH  26  27
ENDBRANCH   1  26
TORSDOF 8
ENDMDL
MODEL 2
REMARK VINA RESULT:      -7.3      1.856      2.986
REMARK  Name = 
REMARK  8 active torsions:
REMARK  status: ('A' for Active; 'I' for Inactive)
REMARK    1  A    between atoms: C_2  and  N_3
REMARK    2  A    between atoms: N_3  and  C_4
REMARK    3  A    between atoms: N_3  and  C_6
REMARK    4  A    between atoms: C_6  and  C_7
REMARK    5  A    between atoms: C_7  and  C_9
REMARK    6  A    between atoms: C_9  and  N_10
REMARK    7  A    between atoms: C_11  and  C_12
REMARK    8  A    between atoms: C_18  and  C_19
REMARK                            x       y       z     vdW  Elec       q    Type
REMARK                         _______ _______ _______ _____ _____    ______ ____
ROOT
ATOM      1  N   UNL     1      38.264   0.577  14.085  0.00  0.00    +0.000 N 
ATOM      2  C   UNL     1      38.723  -0.683  14.456  0.00  0.00    +0.000 A 
ATOM      3  C   UNL     1      37.899  -1.121  15.456  0.00  0.00    +0.000 A 
ATOM      4  C   UNL     1      36.929  -0.178  15.722  0.00  0.00    +0.000 A 
ATOM      5  C   UNL     1      35.884  -0.191  16.606  0.00  0.00    +0.000 A 
ATOM      6  C   UNL     1      34.999   0.864  16.670  0.00  0.00    +0.000 A 
ATOM      7  C   UNL     1      35.229   1.905  15.805  0.00  0.00    +0.000 A 
ATOM      8  C   UNL     1      34.354   2.989  15.780  0.00  0.00    +0.000 A 
ATOM      9  C   UNL     1      34.508   4.041  14.918  0.00  0.00    +0.000 A 
ATOM     10  C   UNL     1      35.585   4.001  14.045  0.00  0.00    +0.000 A 
ATOM     11  C   UNL     1      36.466   2.949  14.044  0.00  0.00    +0.000 A 
ATOM     12  C   UNL     1      36.295   1.908  14.914  0.00  0.00    +0.000 A 
ATOM     13  C   UNL     1      37.203   0.865  14.833  0.00  0.00    +0.000 A 
ENDROOT
BRANCH   2  14
ATOM     14  C   UNL     1      39.800  -1.498  13.930  0.00  0.00    +0.000 A 
ATOM     15  C   UNL     1      39.588  -2.286  12.782  0.00  0.00    +0.000 A 
ATOM     16  C   UNL     1      40.543  -3.102  12.241  0.00  0.00    +0.000 A 
ATOM     17  C   UNL     1      41.777  -3.182  12.819  0.00  0.00    +0.000 A 
ATOM     18  C   UNL     1      42.037  -2.433  13.943  0.00  0.00    +0.000 A 
ATOM     19  C   UNL     1      41.055  -1.613  14.474  0.00  0.00    +0.000 A 
ENDBRANCH   2  14
BRANCH   3  20
ATOM     20  C   UNL     1      37.992  -2.393  16.174  0.00  0.00    +0.000 A 
ATOM     21  C   UNL     1      37.378  -3.521  15.693  0.00  0.00    +0.000 A 
ATOM     22  C   UNL     1      37.445  -4.744  16.363  0.00  0.00    +0.000 A 
ATOM     23  C   UNL     1      38.142  -4.843  17.541  0.00  0.00    +0.000 A 
ATOM     24  C   UNL     1      38.765  -3.723  18.040  0.00  0.00    +0.000 A 
ATOM     25  C   UNL     1      38.685  -2.521  17.359  0.00  0.00    +0.000 A 
ENDBRANCH   3  20
BRANCH   1  26
ATOM     26  C   UNL     1      38.927   1.239  13.057  0.00  0.00    +0.000 C 
BRANCH  26  27
ATOM     27  C   UNL     1      40.366   1.948  13.563  0.00  0.00    +0.000 C 
ATOM     28  O   UNL     1      39.797   3.385  13.266  0.00  0.00    +0.000 OA
BRANCH  27  29
ATOM     29  C   UNL     1      41.075   1.911  12.098  0.00  0.00    +0.000 C 
BRANCH  29  30
ATOM     30  N   UNL     1      42.100   0.935  12.194  0.00  0.00    +0.000 NA
BRANCH  30  32
ATOM     31  C   UNL     1      44.332   0.273  12.933  0.00  0.00    +0.000 C 
ATOM     32  C   UNL     1      43.139   1.209  13.085  0.00  0.00    +0.000 C 
ENDBRANCH  30  32
BRANCH  30  33
ATOM     33  C   UNL     1      42.340   0.103  11.079  0.00  0.00    +0.000 C 
ATOM     34  C   UNL     1      41.081   0.028  10.228  0.00  0.00    +0.000 C 
ENDBRANCH  30  33
ENDBRANCH  29  30
ENDBRANCH  27  29
ENDBRANCH  26  27
ENDBRANCH   1  26
TORSDOF 8
ENDMDL
MODEL 3
REMARK VINA RESULT:      -6.9      1.755      5.380
REMARK  Name = 
REMARK  8 active torsions:
REMARK  status: ('A' for Active; 'I' for Inactive)
REMARK    1  A    between atoms: C_2  and  N_3
REMARK    2  A    between atoms: N_3  and  C_4
REMARK    3  A    between atoms: N_3  and  C_6
REMARK    4  A    between atoms: C_6  and  C_7
REMARK    5  A    between atoms: C_7  and  C_9
REMARK    6  A    between atoms: C_9  and  N_10
REMARK    7  A    between atoms: C_11  and  C_12
REMARK    8  A    between atoms: C_18  and  C_19
REMARK                            x       y       z     vdW  Elec       q    Type
REMARK                         _______ _______ _______ _____ _____    ______ ____
ROOT
ATOM      1  N   UNL     1      39.468   0.984  14.434  0.00  0.00    +0.000 N 
ATOM      2  C   UNL     1      38.184   0.637  14.843  0.00  0.00    +0.000 A 
ATOM      3  C   UNL     1      38.206  -0.706  15.103  0.00  0.00    +0.000 A 
ATOM      4  C   UNL     1      39.468  -1.215  14.875  0.00  0.00    +0.000 A 
ATOM      5  C   UNL     1      39.964  -2.482  15.028  0.00  0.00    +0.000 A 
ATOM      6  C   UNL     1      41.291  -2.755  14.777  0.00  0.00    +0.000 A 
ATOM      7  C   UNL     1      42.067  -1.695  14.375  0.00  0.00    +0.000 A 
ATOM      8  C   UNL     1      43.428  -1.883  14.144  0.00  0.00    +0.000 A 
ATOM      9  C   UNL     1      44.260  -0.861  13.776  0.00  0.00    +0.000 A 
ATOM     10  C   UNL     1      43.702   0.401  13.635  0.00  0.00    +0.000 A 
ATOM     11  C   UNL     1      42.365   0.620  13.855  0.00  0.00    +0.000 A 
ATOM     12  C   UNL     1      41.550  -0.415  14.222  0.00  0.00    +0.000 A 
ATOM     13  C   UNL     1      40.219  -0.113  14.460  0.00  0.00    +0.000 A 
ENDROOT
BRANCH   2  14
ATOM     14  C   UNL     1      37.000   1.445  15.054  0.00  0.00    +0.000 A 
ATOM     15  C   UNL     1      36.791   2.076  16.296  0.00  0.00    +0.000 A 
ATOM     16  C   UNL     1      35.687   2.831  16.582  0.00  0.00    +0.000 A 
ATOM     17  C   UNL     1      34.716   3.003  15.637  0.00  0.00    +0.000 A 
ATOM     18  C   UNL     1      34.870   2.407  14.408  0.00  0.00    +0.000 A 
ATOM     19  C   UNL     1      35.996   1.647  14.138  0.00  0.00    +0.000 A 
ENDBRANCH   2  14
BRANCH   3  20
ATOM     20  C   UNL     1      37.083  -1.530  15.553  0.00  0.00    +0.000 A 
ATOM     21  C   UNL     1      36.373  -2.300  14.668  0.00  0.00    +0.000 A 
ATOM     22  C   UNL     1      35.295  -3.088  15.071  0.00  0.00    +0.000 A 
ATOM     23  C   UNL     1      34.915  -3.109  16.389  0.00  0.00    +0.000 A 
ATOM     24  C   UNL     1      35.614  -2.343  17.294  0.00  0.00    +0.000 A 
ATOM     25  C   UNL     1      36.681  -1.569  16.871  0.00  0.00    +0.000 A 
ENDBRANCH   3  20
BRANCH   1  26
ATOM     26  C   UNL     1      39.719   2.317  14.127  0.00  0.00    +0.000 C 
BRANCH  26  27
ATOM     27  C   UNL     1      39.645   2.629  12.476  0.00  0.00    +0.000 C 
ATOM     28  O   UNL     1      40.820   3.669  12.589  0.00  0.00    +0.000 OA
BRANCH  27  29
ATOM     29  C   UNL     1      38.552   3.830  12.599  0.00  0.00    +0.000 C 
BRANCH  29  30
ATOM     30  N   UNL     1      37.641   3.628  11.531  0.00  0.00    +0.000 NA
BRANCH  30  32
ATOM     31  C   UNL     1      36.900   2.394   9.558  0.00  0.00    +0.000 C 
ATOM     32  C   UNL     1      37.986   2.651  10.595  0.00  0.00    +0.000 C 
ENDBRANCH  30  32
BRANCH  30  33
ATOM     33  C   UNL     1      36.816   4.705  11.141  0.00  0.00    +0.000 C 
ATOM     34  C   UNL     1      36.161   5.309  12.375  0.00  0.00    +0.000 C 
ENDBRANCH  30  33
ENDBRANCH  29  30
ENDBRANCH  27  29
ENDBRANCH  26  27
ENDBRANCH   1  26
TORSDOF 8
ENDMDL
MODEL 4
REMARK VINA RESULT:      -6.8      2.171      5.259
REMARK  Name = 
REMARK  8 active torsions:
REMARK  status: ('A' for Active; 'I' for Inactive)
REMARK    1  A    between atoms: C_2  and  N_3
REMARK    2  A    between atoms: N_3  and  C_4
REMARK    3  A    between atoms: N_3  and  C_6
REMARK    4  A    between atoms: C_6  and  C_7
REMARK    5  A    between atoms: C_7  and  C_9
REMARK    6  A    between atoms: C_9  and  N_10
REMARK    7  A    between atoms: C_11  and  C_12
REMARK    8  A    between atoms: C_18  and  C_19
REMARK                            x       y       z     vdW  Elec       q    Type
REMARK                         _______ _______ _______ _____ _____    ______ ____
ROOT
ATOM      1  N   UNL     1      37.214   0.272  15.079  0.00  0.00    +0.000 N 
ATOM      2  C   UNL     1      37.925   0.109  13.894  0.00  0.00    +0.000 A 
ATOM      3  C   UNL     1      38.814  -0.907  14.107  0.00  0.00    +0.000 A 
ATOM      4  C   UNL     1      38.682  -1.396  15.390  0.00  0.00    +0.000 A 
ATOM      5  C   UNL     1      39.329  -2.417  16.031  0.00  0.00    +0.000 A 
ATOM      6  C   UNL     1      38.996  -2.764  17.323  0.00  0.00    +0.000 A 
ATOM      7  C   UNL     1      37.992  -2.033  17.911  0.00  0.00    +0.000 A 
ATOM      8  C   UNL     1      37.570  -2.350  19.200  0.00  0.00    +0.000 A 
ATOM      9  C   UNL     1      36.552  -1.684  19.827  0.00  0.00    +0.000 A 
ATOM     10  C   UNL     1      35.934  -0.657  19.129  0.00  0.00    +0.000 A 
ATOM     11  C   UNL     1      36.325  -0.318  17.858  0.00  0.00    +0.000 A 
ATOM     12  C   UNL     1      37.345  -0.996  17.249  0.00  0.00    +0.000 A 
ATOM     13  C   UNL     1      37.663  -0.623  15.954  0.00  0.00    +0.000 A 
ENDROOT
BRANCH   2  14
ATOM     14  C   UNL     1      37.802   0.771  12.610  0.00  0.00    +0.000 A 
ATOM     15  C   UNL     1      38.726   1.767  12.242  0.00  0.00    +0.000 A 
ATOM     16  C   UNL     1      38.662   2.457  11.062  0.00  0.00    +0.000 A 
ATOM     17  C   UNL     1      37.662   2.190  10.171  0.00  0.00    +0.000 A 
ATOM     18  C   UNL     1      36.732   1.226  10.482  0.00  0.00    +0.000 A 
ATOM     19  C   UNL     1      36.815   0.540  11.682  0.00  0.00    +0.000 A 
ENDBRANCH   2  14
BRANCH   3  20
ATOM     20  C   UNL     1      39.789  -1.434  13.150  0.00  0.00    +0.000 A 
ATOM     21  C   UNL     1      41.100  -1.034  13.185  0.00  0.00    +0.000 A 
ATOM     22  C   UNL     1      42.046  -1.517  12.280  0.00  0.00    +0.000 A 
ATOM     23  C   UNL     1      41.675  -2.420  11.316  0.00  0.00    +0.000 A 
ATOM     24  C   UNL     1      40.364  -2.834  11.263  0.00  0.00    +0.000 A 
ATOM     25  C   UNL     1      39.443  -2.343  12.172  0.00  0.00    +0.000 A 
ENDBRANCH   3  20
BRANCH   1  26
ATOM     26  C   UNL     1      36.219   1.242  15.118  0.00  0.00    +0.000 C 
BRANCH  26  27
ATOM     27  C   UNL     1      36.674   2.604  15.994  0.00  0.00    +0.000 C 
ATOM     28  O   UNL     1      35.217   2.757  16.571  0.00  0.00    +0.000 OA
BRANCH  27  29
ATOM     29  C   UNL     1      36.330   3.667  14.809  0.00  0.00    +0.000 C 
BRANCH  29  30
ATOM     30  N   UNL     1      37.584   4.151  14.355  0.00  0.00    +0.000 NA
BRANCH  30  32
ATOM     31  C   UNL     1      39.743   5.039  15.073  0.00  0.00    +0.000 C 
ATOM     32  C   UNL     1      38.670   3.966  15.213  0.00  0.00    +0.000 C 
ENDBRANCH  30  32
BRANCH  30  33
ATOM     33  C   UNL     1      37.596   5.224  13.438  0.00  0.00    +0.000 C 
ATOM     34  C   UNL     1      36.478   5.030  12.424  0.00  0.00    +0.000 C 
ENDBRANCH  30  33
ENDBRANCH  29  30
ENDBRANCH  27  29
ENDBRANCH  26  27
ENDBRANCH   1  26
TORSDOF 8
ENDMDL
MODEL 5
REMARK VINA RESULT:      -6.7     27.590     31.238
REMARK  Name = 
REMARK  8 active torsions:
REMARK  status: ('A' for Active; 'I' for Inactive)
REMARK    1  A    between atoms: C_2  and  N_3
REMARK    2  A    between atoms: N_3  and  C_4
REMARK    3  A    between atoms: N_3  and  C_6
REMARK    4  A    between atoms: C_6  and  C_7
REMARK    5  A    between atoms: C_7  and  C_9
REMARK    6  A    between atoms: C_9  and  N_10
REMARK    7  A    between atoms: C_11  and  C_12
REMARK    8  A    between atoms: C_18  and  C_19
REMARK                            x       y       z     vdW  Elec       q    Type
REMARK                         _______ _______ _______ _____ _____    ______ ____
ROOT
ATOM      1  N   UNL     1      25.113  17.202  35.362  0.00  0.00    +0.000 N 
ATOM      2  C   UNL     1      25.238  17.222  36.748  0.00  0.00    +0.000 A 
ATOM      3  C   UNL     1      24.856  18.469  37.158  0.00  0.00    +0.000 A 
ATOM      4  C   UNL     1      24.485  19.236  36.072  0.00  0.00    +0.000 A 
ATOM      5  C   UNL     1      24.011  20.517  36.000  0.00  0.00    +0.000 A 
ATOM      6  C   UNL     1      23.658  21.073  34.789  0.00  0.00    +0.000 A 
ATOM      7  C   UNL     1      23.810  20.272  33.684  0.00  0.00    +0.000 A 
ATOM      8  C   UNL     1      23.436  20.747  32.429  0.00  0.00    +0.000 A 
ATOM      9  C   UNL     1      23.529  19.987  31.295  0.00  0.00    +0.000 A 
ATOM     10  C   UNL     1      24.019  18.696  31.428  0.00  0.00    +0.000 A 
ATOM     11  C   UNL     1      24.397  18.197  32.649  0.00  0.00    +0.000 A 
ATOM     12  C   UNL     1      24.296  18.973  33.771  0.00  0.00    +0.000 A 
ATOM     13  C   UNL     1      24.664  18.392  34.973  0.00  0.00    +0.000 A 
ENDROOT
BRANCH   2  14
ATOM     14  C   UNL     1      25.622  16.185  37.685  0.00  0.00    +0.000 A 
ATOM     15  C   UNL     1      24.644  15.327  38.223  0.00  0.00    +0.000 A 
ATOM     16  C   UNL     1      24.921  14.344  39.133  0.00  0.00    +0.000 A 
ATOM     17  C   UNL     1      26.204  14.156  39.563  0.00  0.00    +0.000 A 
ATOM     18  C   UNL     1      27.198  14.968  39.068  0.00  0.00    +0.000 A 
ATOM     19  C   UNL     1      26.895  15.957  38.148  0.00  0.00    +0.000 A 
ENDBRANCH   2  14
BRANCH   3  20
ATOM     20  C   UNL     1      24.828  18.969  38.533  0.00  0.00    +0.000 A 
ATOM     21  C   UNL     1      23.710  18.827  39.314  0.00  0.00    +0.000 A 
ATOM     22  C   UNL     1      23.656  19.301  40.625  0.00  0.00    +0.000 A 
ATOM     23  C   UNL     1      24.745  19.934  41.170  0.00  0.00    +0.000 A 
ATOM     24  C   UNL     1      25.877  20.088  40.404  0.00  0.00    +0.000 A 
ATOM     25  C   UNL     1      25.908  19.608  39.106  0.00  0.00    +0.000 A 
ENDBRANCH   3  20
BRANCH   1  26
ATOM     26  C   UNL     1      25.423  16.023  34.693  0.00  0.00    +0.000 C 
BRANCH  26  27
ATOM     27  C   UNL     1      26.825  16.151  33.771  0.00  0.00    +0.000 C 
ATOM     28  O   UNL     1      26.392  14.921  32.889  0.00  0.00    +0.000 OA
BRANCH  27  29
ATOM     29  C   UNL     1      27.718  15.173  34.719  0.00  0.00    +0.000 C 
BRANCH  29  30
ATOM     30  N   UNL     1      28.839  15.947  35.116  0.00  0.00    +0.000 NA
BRANCH  30  32
ATOM     31  C   UNL     1      28.732  18.242  35.943  0.00  0.00    +0.000 C 
ATOM     32  C   UNL     1      28.825  17.295  34.753  0.00  0.00    +0.000 C 
ENDBRANCH  30  32
BRANCH  30  33
ATOM     33  C   UNL     1      30.074  15.289  35.302  0.00  0.00    +0.000 C 
ATOM     34  C   UNL     1      30.256  14.972  36.779  0.00  0.00    +0.000 C 
ENDBRANCH  30  33
ENDBRANCH  29  30
ENDBRANCH  27  29
ENDBRANCH  26  27
ENDBRANCH   1  26
TORSDOF 8
ENDMDL
MODEL 6
REMARK VINA RESULT:      -6.6      5.688      8.940
REMARK  Name = 
REMARK  8 active torsions:
REMARK  status: ('A' for Active; 'I' for Inactive)
REMARK    1  A    between atoms: C_2  and  N_3
REMARK    2  A    between atoms: N_3  and  C_4
REMARK    3  A    between atoms: N_3  and  C_6
REMARK    4  A    between atoms: C_6  and  C_7
REMARK    5  A    between atoms: C_7  and  C_9
REMARK    6  A    between atoms: C_9  and  N_10
REMARK    7  A    between atoms: C_11  and  C_12
REMARK    8  A    between atoms: C_18  and  C_19
REMARK                            x       y       z     vdW  Elec       q    Type
REMARK                         _______ _______ _______ _____ _____    ______ ____
ROOT
ATOM      1  N   UNL     1      37.247   7.587  15.709  0.00  0.00    +0.000 N 
ATOM      2  C   UNL     1      36.828   6.651  14.770  0.00  0.00    +0.000 A 
ATOM      3  C   UNL     1      37.242   5.428  15.222  0.00  0.00    +0.000 A 
ATOM      4  C   UNL     1      37.905   5.565  16.424  0.00  0.00    +0.000 A 
ATOM      5  C   UNL     1      38.461   4.627  17.252  0.00  0.00    +0.000 A 
ATOM      6  C   UNL     1      39.044   4.996  18.446  0.00  0.00    +0.000 A 
ATOM      7  C   UNL     1      39.029   6.337  18.743  0.00  0.00    +0.000 A 
ATOM      8  C   UNL     1      39.561   6.784  19.950  0.00  0.00    +0.000 A 
ATOM      9  C   UNL     1      39.545   8.101  20.321  0.00  0.00    +0.000 A 
ATOM     10  C   UNL     1      38.970   9.006  19.441  0.00  0.00    +0.000 A 
ATOM     11  C   UNL     1      38.437   8.600  18.243  0.00  0.00    +0.000 A 
ATOM     12  C   UNL     1      38.464   7.279  17.892  0.00  0.00    +0.000 A 
ATOM     13  C   UNL     1      37.878   6.937  16.684  0.00  0.00    +0.000 A 
ENDROOT
BRANCH   2  14
ATOM     14  C   UNL     1      36.052   6.801  13.555  0.00  0.00    +0.000 A 
ATOM     15  C   UNL     1      34.646   6.739  13.606  0.00  0.00    +0.000 A 
ATOM     16  C   UNL     1      33.845   6.844  12.502  0.00  0.00    +0.000 A 
ATOM     17  C   UNL     1      34.406   7.020  11.270  0.00  0.00    +0.000 A 
ATOM     18  C   UNL     1      35.775   7.087  11.163  0.00  0.00    +0.000 A 
ATOM     19  C   UNL     1      36.567   6.978  12.294  0.00  0.00    +0.000 A 
ENDBRANCH   2  14
BRANCH   3  20
ATOM     20  C   UNL     1      37.042   4.136  14.565  0.00  0.00    +0.000 A 
ATOM     21  C   UNL     1      35.947   3.362  14.850  0.00  0.00    +0.000 A 
ATOM     22  C   UNL     1      35.737   2.123  14.243  0.00  0.00    +0.000 A 
ATOM     23  C   UNL     1      36.642   1.645  13.328  0.00  0.00    +0.000 A 
ATOM     24  C   UNL     1      37.747   2.407  13.027  0.00  0.00    +0.000 A 
ATOM     25  C   UNL     1      37.935   3.633  13.642  0.00  0.00    +0.000 A 
ENDBRANCH   3  20
BRANCH   1  26
ATOM     26  C   UNL     1      36.927   8.922  15.492  0.00  0.00    +0.000 C 
BRANCH  26  27
ATOM     27  C   UNL     1      35.300   9.252  15.769  0.00  0.00    +0.000 C 
ATOM     28  O   UNL     1      35.345  10.465  14.766  0.00  0.00    +0.000 OA
BRANCH  27  29
ATOM     29  C   UNL     1      35.562  10.261  17.020  0.00  0.00    +0.000 C 
BRANCH  29  30
ATOM     30  N   UNL     1      34.285  10.502  17.590  0.00  0.00    +0.000 NA
BRANCH  30  32
ATOM     31  C   UNL     1      32.603   9.192  18.782  0.00  0.00    +0.000 C 
ATOM     32  C   UNL     1      33.352   9.468  17.484  0.00  0.00    +0.000 C 
ENDBRANCH  30  32
BRANCH  30  33
ATOM     33  C   UNL     1      33.838  11.836  17.691  0.00  0.00    +0.000 C 
ATOM     34  C   UNL     1      35.041  12.766  17.746  0.00  0.00    +0.000 C 
ENDBRANCH  30  33
ENDBRANCH  29  30
ENDBRANCH  27  29
ENDBRANCH  26  27
ENDBRANCH   1  26
TORSDOF 8
ENDMDL
MODEL 7
REMARK VINA RESULT:      -6.6     26.854     30.185
REMARK  Name = 
REMARK  8 active torsions:
REMARK  status: ('A' for Active; 'I' for Inactive)
REMARK    1  A    between atoms: C_2  and  N_3
REMARK    2  A    between atoms: N_3  and  C_4
REMARK    3  A    between atoms: N_3  and  C_6
REMARK    4  A    between atoms: C_6  and  C_7
REMARK    5  A    between atoms: C_7  and  C_9
REMARK    6  A    between atoms: C_9  and  N_10
REMARK    7  A    between atoms: C_11  and  C_12
REMARK    8  A    between atoms: C_18  and  C_19
REMARK                            x       y       z     vdW  Elec       q    Type
REMARK                         _______ _______ _______ _____ _____    ______ ____
ROOT
ATOM      1  N   UNL     1      28.010  15.648  38.442  0.00  0.00    +0.000 N 
ATOM      2  C   UNL     1      27.950  15.788  37.060  0.00  0.00    +0.000 A 
ATOM      3  C   UNL     1      26.638  15.633  36.707  0.00  0.00    +0.000 A 
ATOM      4  C   UNL     1      25.866  15.407  37.829  0.00  0.00    +0.000 A 
ATOM      5  C   UNL     1      24.517  15.227  37.966  0.00  0.00    +0.000 A 
ATOM      6  C   UNL     1      23.950  15.057  39.211  0.00  0.00    +0.000 A 
ATOM      7  C   UNL     1      24.811  15.081  40.281  0.00  0.00    +0.000 A 
ATOM      8  C   UNL     1      24.310  14.958  41.575  0.00  0.00    +0.000 A 
ATOM      9  C   UNL     1      25.110  15.010  42.684  0.00  0.00    +0.000 A 
ATOM     10  C   UNL     1      26.471  15.193  42.483  0.00  0.00    +0.000 A 
ATOM     11  C   UNL     1      26.998  15.317  41.222  0.00  0.00    +0.000 A 
ATOM     12  C   UNL     1      26.180  15.262  40.127  0.00  0.00    +0.000 A 
ATOM     13  C   UNL     1      26.777  15.428  38.888  0.00  0.00    +0.000 A 
ENDROOT
BRANCH   2  14
ATOM     14  C   UNL     1      28.979  16.097  36.087  0.00  0.00    +0.000 A 
ATOM     15  C   UNL     1      29.211  17.434  35.709  0.00  0.00    +0.000 A 
ATOM     16  C   UNL     1      30.142  17.804  34.779  0.00  0.00    +0.000 A 
ATOM     17  C   UNL     1      30.906  16.854  34.165  0.00  0.00    +0.000 A 
ATOM     18  C   UNL     1      30.720  15.532  34.497  0.00  0.00    +0.000 A 
ATOM     19  C   UNL     1      29.771  15.179  35.442  0.00  0.00    +0.000 A 
ENDBRANCH   2  14
BRANCH   3  20
ATOM     20  C   UNL     1      26.081  15.686  35.355  0.00  0.00    +0.000 A 
ATOM     21  C   UNL     1      26.103  14.584  34.539  0.00  0.00    +0.000 A 
ATOM     22  C   UNL     1      25.585  14.611  33.243  0.00  0.00    +0.000 A 
ATOM     23  C   UNL     1      25.032  15.766  32.749  0.00  0.00    +0.000 A 
ATOM     24  C   UNL     1      25.000  16.883  33.552  0.00  0.00    +0.000 A 
ATOM     25  C   UNL     1      25.519  16.833  34.834  0.00  0.00    +0.000 A 
ENDBRANCH   3  20
BRANCH   1  26
ATOM     26  C   UNL     1      29.248  15.787  39.061  0.00  0.00    +0.000 C 
BRANCH  26  27
ATOM     27  C   UNL     1      30.098  14.337  39.144  0.00  0.00    +0.000 C 
ATOM     28  O   UNL     1      30.350  14.538  40.684  0.00  0.00    +0.000 OA
BRANCH  27  29
ATOM     29  C   UNL     1      31.549  14.994  38.807  0.00  0.00    +0.000 C 
BRANCH  29  30
ATOM     30  N   UNL     1      32.132  14.151  37.826  0.00  0.00    +0.000 NA
BRANCH  30  32
ATOM     31  C   UNL     1      32.833  11.921  37.118  0.00  0.00    +0.000 C 
ATOM     32  C   UNL     1      31.908  12.780  37.972  0.00  0.00    +0.000 C 
ENDBRANCH  30  32
BRANCH  30  33
ATOM     33  C   UNL     1      33.292  14.600  37.159  0.00  0.00    +0.000 C 
ATOM     34  C   UNL     1      33.278  16.121  37.097  0.00  0.00    +0.000 C 
ENDBRANCH  30  33
ENDBRANCH  29  30
ENDBRANCH  27  29
ENDBRANCH  26  27
ENDBRANCH   1  26
TORSDOF 8
ENDMDL
MODEL 8
REMARK VINA RESULT:      -6.3      6.005      9.350
REMARK  Name = 
REMARK  8 active torsions:
REMARK  status: ('A' for Active; 'I' for Inactive)
REMARK    1  A    between atoms: C_2  and  N_3
REMARK    2  A    between atoms: N_3  and  C_4
REMARK    3  A    between atoms: N_3  and  C_6
REMARK    4  A    between atoms: C_6  and  C_7
REMARK    5  A    between atoms: C_7  and  C_9
REMARK    6  A    between atoms: C_9  and  N_10
REMARK    7  A    between atoms: C_11  and  C_12
REMARK    8  A    between atoms: C_18  and  C_19
REMARK                            x       y       z     vdW  Elec       q    Type
REMARK                         _______ _______ _______ _____ _____    ______ ____
ROOT
ATOM      1  N   UNL     1      38.128   6.828  16.140  0.00  0.00    +0.000 N 
ATOM      2  C   UNL     1      38.782   7.526  17.149  0.00  0.00    +0.000 A 
ATOM      3  C   UNL     1      38.144   8.729  17.271  0.00  0.00    +0.000 A 
ATOM      4  C   UNL     1      37.100   8.808  16.373  0.00  0.00    +0.000 A 
ATOM      5  C   UNL     1      36.178   9.796  16.156  0.00  0.00    +0.000 A 
ATOM      6  C   UNL     1      35.180   9.637  15.218  0.00  0.00    +0.000 A 
ATOM      7  C   UNL     1      35.173   8.447  14.531  0.00  0.00    +0.000 A 
ATOM      8  C   UNL     1      34.172   8.194  13.596  0.00  0.00    +0.000 A 
ATOM      9  C   UNL     1      34.088   7.016  12.906  0.00  0.00    +0.000 A 
ATOM     10  C   UNL     1      35.052   6.052  13.166  0.00  0.00    +0.000 A 
ATOM     11  C   UNL     1      36.052   6.269  14.080  0.00  0.00    +0.000 A 
ATOM     12  C   UNL     1      36.118   7.454  14.759  0.00  0.00    +0.000 A 
ATOM     13  C   UNL     1      37.134   7.589  15.690  0.00  0.00    +0.000 A 
ENDROOT
BRANCH   2  14
ATOM     14  C   UNL     1      39.883   7.145  18.012  0.00  0.00    +0.000 A 
ATOM     15  C   UNL     1      39.630   6.727  19.332  0.00  0.00    +0.000 A 
ATOM     16  C   UNL     1      40.615   6.379  20.216  0.00  0.00    +0.000 A 
ATOM     17  C   UNL     1      41.923   6.428  19.829  0.00  0.00    +0.000 A 
ATOM     18  C   UNL     1      42.226   6.830  18.550  0.00  0.00    +0.000 A 
ATOM     19  C   UNL     1      41.214   7.178  17.671  0.00  0.00    +0.000 A 
ENDBRANCH   2  14
BRANCH   3  20
ATOM     20  C   UNL     1      38.481   9.810  18.199  0.00  0.00    +0.000 A 
ATOM     21  C   UNL     1      39.424  10.751  17.874  0.00  0.00    +0.000 A 
ATOM     22  C   UNL     1      39.767  11.786  18.744  0.00  0.00    +0.000 A 
ATOM     23  C   UNL     1      39.155  11.886  19.968  0.00  0.00    +0.000 A 
ATOM     24  C   UNL     1      38.206  10.952  20.314  0.00  0.00    +0.000 A 
ATOM     25  C   UNL     1      37.881   9.933  19.435  0.00  0.00    +0.000 A 
ENDBRANCH   3  20
BRANCH   1  26
ATOM     26  C   UNL     1      38.575   5.548  15.831  0.00  0.00    +0.000 C 
BRANCH  26  27
ATOM     27  C   UNL     1      37.602   4.344  16.491  0.00  0.00    +0.000 C 
ATOM     28  O   UNL     1      38.704   3.999  17.561  0.00  0.00    +0.000 OA
BRANCH  27  29
ATOM     29  C   UNL     1      38.154   3.157  15.522  0.00  0.00    +0.000 C 
BRANCH  29  30
ATOM     30  N   UNL     1      37.226   2.092  15.657  0.00  0.00    +0.000 NA
BRANCH  30  32
ATOM     31  C   UNL     1      37.409  -0.342  15.740  0.00  0.00    +0.000 C 
ATOM     32  C   UNL     1      37.492   0.938  14.917  0.00  0.00    +0.000 C 
ENDBRANCH  30  32
BRANCH  30  33
ATOM     33  C   UNL     1      35.894   2.404  16.006  0.00  0.00    +0.000 C 
ATOM     34  C   UNL     1      35.049   2.482  14.742  0.00  0.00    +0.000 C 
ENDBRANCH  30  33
ENDBRANCH  29  30
ENDBRANCH  27  29
ENDBRANCH  26  27
ENDBRANCH   1  26
TORSDOF 8
ENDMDL
MODEL 9
REMARK VINA RESULT:      -6.3      2.471      4.947
REMARK  Name = 
REMARK  8 active torsions:
REMARK  status: ('A' for Active; 'I' for Inactive)
REMARK    1  A    between atoms: C_2  and  N_3
REMARK    2  A    between atoms: N_3  and  C_4
REMARK    3  A    between atoms: N_3  and  C_6
REMARK    4  A    between atoms: C_6  and  C_7
REMARK    5  A    between atoms: C_7  and  C_9
REMARK    6  A    between atoms: C_9  and  N_10
REMARK    7  A    between atoms: C_11  and  C_12
REMARK    8  A    between atoms: C_18  and  C_19
REMARK                            x       y       z     vdW  Elec       q    Type
REMARK                         _______ _______ _______ _____ _____    ______ ____
ROOT
ATOM      1  N   UNL     1      39.262  -0.011  14.176  0.00  0.00    +0.000 N 
ATOM      2  C   UNL     1      40.190  -0.364  13.202  0.00  0.00    +0.000 A 
ATOM      3  C   UNL     1      39.853  -1.620  12.777  0.00  0.00    +0.000 A 
ATOM      4  C   UNL     1      38.734  -2.066  13.449  0.00  0.00    +0.000 A 
ATOM      5  C   UNL     1      38.027  -3.233  13.336  0.00  0.00    +0.000 A 
ATOM      6  C   UNL     1      36.895  -3.449  14.093  0.00  0.00    +0.000 A 
ATOM      7  C   UNL     1      36.532  -2.437  14.948  0.00  0.00    +0.000 A 
ATOM      8  C   UNL     1      35.376  -2.563  15.715  0.00  0.00    +0.000 A 
ATOM      9  C   UNL     1      34.940  -1.577  16.559  0.00  0.00    +0.000 A 
ATOM     10  C   UNL     1      35.698  -0.418  16.633  0.00  0.00    +0.000 A 
ATOM     11  C   UNL     1      36.842  -0.261  15.891  0.00  0.00    +0.000 A 
ATOM     12  C   UNL     1      37.260  -1.259  15.055  0.00  0.00    +0.000 A 
ATOM     13  C   UNL     1      38.404  -1.018  14.312  0.00  0.00    +0.000 A 
ENDROOT
BRANCH   2  14
ATOM     14  C   UNL     1      41.294   0.376  12.624  0.00  0.00    +0.000 A 
ATOM     15  C   UNL     1      41.108   1.095  11.427  0.00  0.00    +0.000 A 
ATOM     16  C   UNL     1      42.105   1.795  10.805  0.00  0.00    +0.000 A 
ATOM     17  C   UNL     1      43.359   1.819  11.344  0.00  0.00    +0.000 A 
ATOM     18  C   UNL     1      43.595   1.132  12.512  0.00  0.00    +0.000 A 
ATOM     19  C   UNL     1      42.571   0.430  13.127  0.00  0.00    +0.000 A 
ENDBRANCH   2  14
BRANCH   3  20
ATOM     20  C   UNL     1      40.546  -2.418  11.764  0.00  0.00    +0.000 A 
ATOM     21  C   UNL     1      40.135  -2.409  10.456  0.00  0.00    +0.000 A 
ATOM     22  C   UNL     1      40.774  -3.166   9.474  0.00  0.00    +0.000 A 
ATOM     23  C   UNL     1      41.849  -3.952   9.804  0.00  0.00    +0.000 A 
ATOM     24  C   UNL     1      42.278  -3.976  11.112  0.00  0.00    +0.000 A 
ATOM     25  C   UNL     1      41.629  -3.215  12.069  0.00  0.00    +0.000 A 
ENDBRANCH   3  20
BRANCH   1  26
ATOM     26  C   UNL     1      39.371   1.247  14.760  0.00  0.00    +0.000 C 
BRANCH  26  27
ATOM     27  C   UNL     1      38.570   2.440  13.886  0.00  0.00    +0.000 C 
ATOM     28  O   UNL     1      39.853   3.352  13.898  0.00  0.00    +0.000 OA
BRANCH  27  29
ATOM     29  C   UNL     1      37.989   3.219  15.193  0.00  0.00    +0.000 C 
BRANCH  29  30
ATOM     30  N   UNL     1      36.600   3.384  14.952  0.00  0.00    +0.000 NA
BRANCH  30  32
ATOM     31  C   UNL     1      36.551   5.654  14.052  0.00  0.00    +0.000 C 
ATOM     32  C   UNL     1      36.249   4.174  13.855  0.00  0.00    +0.000 C 
ENDBRANCH  30  32
BRANCH  30  33
ATOM     33  C   UNL     1      35.713   3.275  16.044  0.00  0.00    +0.000 C 
ATOM     34  C   UNL     1      34.309   3.000  15.525  0.00  0.00    +0.000 C 
ENDBRANCH  30  33
ENDBRANCH  29  30
ENDBRANCH  27  29
ENDBRANCH  26  27
ENDBRANCH   1  26
TORSDOF 8
ENDMDL
MODEL 10
REMARK VINA RESULT:      -6.2     27.766     31.261
REMARK  Name = 
REMARK  8 active torsions:
REMARK  status: ('A' for Active; 'I' for Inactive)
REMARK    1  A    between atoms: C_2  and  N_3
REMARK    2  A    between atoms: N_3  and  C_4
REMARK    3  A    between atoms: N_3  and  C_6
REMARK    4  A    between atoms: C_6  and  C_7
REMARK    5  A    between atoms: C_7  and  C_9
REMARK    6  A    between atoms: C_9  and  N_10
REMARK    7  A    between atoms: C_11  and  C_12
REMARK    8  A    between atoms: C_18  and  C_19
REMARK                            x       y       z     vdW  Elec       q    Type
REMARK                         _______ _______ _______ _____ _____    ______ ____
ROOT
ATOM      1  N   UNL     1       8.335   4.077  10.682  0.00  0.00    +0.000 N 
ATOM      2  C   UNL     1       7.118   4.089  11.357  0.00  0.00    +0.000 A 
ATOM      3  C   UNL     1       6.445   5.200  10.933  0.00  0.00    +0.000 A 
ATOM      4  C   UNL     1       7.198   5.888  10.003  0.00  0.00    +0.000 A 
ATOM      5  C   UNL     1       6.924   7.024   9.291  0.00  0.00    +0.000 A 
ATOM      6  C   UNL     1       7.823   7.514   8.368  0.00  0.00    +0.000 A 
ATOM      7  C   UNL     1       8.986   6.800   8.213  0.00  0.00    +0.000 A 
ATOM      8  C   UNL     1       9.927   7.208   7.270  0.00  0.00    +0.000 A 
ATOM      9  C   UNL     1      11.088   6.521   7.042  0.00  0.00    +0.000 A 
ATOM     10  C   UNL     1      11.313   5.378   7.794  0.00  0.00    +0.000 A 
ATOM     11  C   UNL     1      10.408   4.948   8.732  0.00  0.00    +0.000 A 
ATOM     12  C   UNL     1       9.253   5.649   8.944  0.00  0.00    +0.000 A 
ATOM     13  C   UNL     1       8.371   5.139   9.882  0.00  0.00    +0.000 A 
ENDROOT
BRANCH   2  14
ATOM     14  C   UNL     1       6.539   3.146  12.294  0.00  0.00    +0.000 A 
ATOM     15  C   UNL     1       5.680   2.131  11.829  0.00  0.00    +0.000 A 
ATOM     16  C   UNL     1       5.073   1.222  12.650  0.00  0.00    +0.000 A 
ATOM     17  C   UNL     1       5.288   1.272  13.997  0.00  0.00    +0.000 A 
ATOM     18  C   UNL     1       6.119   2.243  14.504  0.00  0.00    +0.000 A 
ATOM     19  C   UNL     1       6.724   3.155  13.655  0.00  0.00    +0.000 A 
ENDBRANCH   2  14
BRANCH   3  20
ATOM     20  C   UNL     1       5.121   5.644  11.370  0.00  0.00    +0.000 A 
ATOM     21  C   UNL     1       4.976   6.470  12.455  0.00  0.00    +0.000 A 
ATOM     22  C   UNL     1       3.724   6.901  12.896  0.00  0.00    +0.000 A 
ATOM     23  C   UNL     1       2.589   6.497  12.240  0.00  0.00    +0.000 A 
ATOM     24  C   UNL     1       2.712   5.668  11.149  0.00  0.00    +0.000 A 
ATOM     25  C   UNL     1       3.964   5.254  10.729  0.00  0.00    +0.000 A 
ENDBRANCH   3  20
BRANCH   1  26
ATOM     26  C   UNL     1       9.208   3.022  10.923  0.00  0.00    +0.000 C 
BRANCH  26  27
ATOM     27  C   UNL     1       8.894   1.685   9.951  0.00  0.00    +0.000 C 
ATOM     28  O   UNL     1       8.851   0.742  11.211  0.00  0.00    +0.000 OA
BRANCH  27  29
ATOM     29  C   UNL     1      10.459   1.307   9.706  0.00  0.00    +0.000 C 
BRANCH  29  30
ATOM     30  N   UNL     1      10.596   1.137   8.304  0.00  0.00    +0.000 NA
BRANCH  30  32
ATOM     31  C   UNL     1       9.890   2.252   6.249  0.00  0.00    +0.000 C 
ATOM     32  C   UNL     1       9.501   1.512   7.523  0.00  0.00    +0.000 C 
ENDBRANCH  30  32
BRANCH  30  33
ATOM     33  C   UNL     1      11.480   0.143   7.833  0.00  0.00    +0.000 C 
ATOM     34  C   UNL     1      12.049  -0.625   9.017  0.00  0.00    +0.000 C 
ENDBRANCH  30  33
ENDBRANCH  29  30
ENDBRANCH  27  29
ENDBRANCH  26  27
ENDBRANCH   1  26
TORSDOF 8
ENDMDL
