MODEL 1
REMARK VINA RESULT:      -8.3      0.000      0.000
REMARK  Name = 
REMARK  8 active torsions:
REMARK  status: ('A' for Active; 'I' for Inactive)
REMARK    1  A    between atoms: C_6  and  C_7
REMARK    2  A    between atoms: C_10  and  S_11
REMARK    3  A    between atoms: S_11  and  C_12
REMARK    4  A    between atoms: C_12  and  C_13
REMARK    5  A    between atoms: N_15  and  C_16
REMARK    6  A    between atoms: C_21  and  C_22
REMARK    7  A    between atoms: N_25  and  C_26
REMARK    8  A    between atoms: C_26  and  C_27
REMARK                            x       y       z     vdW  Elec       q    Type
REMARK                         _______ _______ _______ _____ _____    ______ ____
ROOT
ATOM      1  C   UNL     1      38.789   4.951  17.757  0.00  0.00    +0.000 A 
ATOM      2  N   UNL     1      38.205   3.860  18.342  0.00  0.00    +0.000 NA
ATOM      3  N   UNL     1      37.424   3.269  17.456  0.00  0.00    +0.000 NA
ATOM      4  C   UNL     1      37.470   3.935  16.291  0.00  0.00    +0.000 A 
ATOM      5  N   UNL     1      38.327   4.975  16.511  0.00  0.00    +0.000 N 
ENDROOT
BRANCH   1  11
ATOM      6  C   UNL     1      43.232   7.022  18.321  0.00  0.00    +0.000 C 
ATOM      7  C   UNL     1      41.825   6.860  18.764  0.00  0.00    +0.000 A 
ATOM      8  C   UNL     1      41.363   7.560  19.859  0.00  0.00    +0.000 A 
ATOM      9  C   UNL     1      40.066   7.396  20.250  0.00  0.00    +0.000 A 
ATOM     10  C   UNL     1      39.256   6.540  19.545  0.00  0.00    +0.000 A 
ATOM     11  C   UNL     1      39.710   5.848  18.463  0.00  0.00    +0.000 A 
ATOM     12  C   UNL     1      41.019   5.999  18.051  0.00  0.00    +0.000 A 
ENDBRANCH   1  11
BRANCH   4  13
ATOM     13  S   UNL     1      36.574   3.514  14.809  0.00  0.00    +0.000 S 
BRANCH  13  14
ATOM     14  C   UNL     1      37.373   2.241  13.829  0.00  0.00    +0.000 C 
BRANCH  14  15
ATOM     15  C   UNL     1      37.927   1.171  14.699  0.00  0.00    +0.000 C 
ATOM     16  O   UNL     1      39.100   1.284  15.120  0.00  0.00    +0.000 OA
ATOM     17  N   UNL     1      37.145   0.037  15.048  0.00  0.00    +0.000 NA
BRANCH  17  18
ATOM     18  C   UNL     1      37.699  -0.972  15.881  0.00  0.00    +0.000 A 
ATOM     19  C   UNL     1      38.748  -1.761  15.545  0.00  0.00    +0.000 A 
ATOM     20  C   UNL     1      39.228  -2.719  16.409  0.00  0.00    +0.000 A 
ATOM     21  C   UNL     1      38.669  -2.930  17.664  0.00  0.00    +0.000 A 
ATOM     22  C   UNL     1      37.604  -2.115  17.984  0.00  0.00    +0.000 A 
ATOM     23  C   UNL     1      37.105  -1.149  17.135  0.00  0.00    +0.000 A 
BRANCH  23  24
ATOM     24  C   UNL     1      35.966  -0.313  17.539  0.00  0.00    +0.000 C 
ATOM     25  C   UNL     1      34.695  -1.099  17.370  0.00  0.00    +0.000 C 
ATOM     26  C   UNL     1      36.177   0.146  18.965  0.00  0.00    +0.000 C 
ENDBRANCH  23  24
ENDBRANCH  17  18
ENDBRANCH  14  15
ENDBRANCH  13  14
ENDBRANCH   4  13
BRANCH   5  27
ATOM     27  C   UNL     1      38.642   5.937  15.498  0.00  0.00    +0.000 C 
BRANCH  27  28
ATOM     28  C   UNL     1      37.724   7.090  15.538  0.00  0.00    +0.000 A 
ATOM     29  C   UNL     1      37.800   8.214  16.325  0.00  0.00    +0.000 A 
ATOM     30  C   UNL     1      36.724   8.992  16.003  0.00  0.00    +0.000 A 
ATOM     31  C   UNL     1      36.004   8.318  15.013  0.00  0.00    +0.000 A 
ATOM     32  O   UNL     1      36.635   7.210  14.781  0.00  0.00    +0.000 OA
ENDBRANCH  27  28
ENDBRANCH   5  27
TORSDOF 8
ENDMDL
MODEL 2
REMARK VINA RESULT:      -8.1      1.963      2.892
REMARK  Name = 
REMARK  8 active torsions:
REMARK  status: ('A' for Active; 'I' for Inactive)
REMARK    1  A    between atoms: C_6  and  C_7
REMARK    2  A    between atoms: C_10  and  S_11
REMARK    3  A    between atoms: S_11  and  C_12
REMARK    4  A    between atoms: C_12  and  C_13
REMARK    5  A    between atoms: N_15  and  C_16
REMARK    6  A    between atoms: C_21  and  C_22
REMARK    7  A    between atoms: N_25  and  C_26
REMARK    8  A    between atoms: C_26  and  C_27
REMARK                            x       y       z     vdW  Elec       q    Type
REMARK                         _______ _______ _______ _____ _____    ______ ____
ROOT
ATOM      1  C   UNL     1      38.700   5.259  17.852  0.00  0.00    +0.000 A 
ATOM      2  N   UNL     1      38.184   4.047  18.223  0.00  0.00    +0.000 NA
ATOM      3  N   UNL     1      37.789   3.403  17.141  0.00  0.00    +0.000 NA
ATOM      4  C   UNL     1      38.028   4.151  16.052  0.00  0.00    +0.000 A 
ATOM      5  N   UNL     1      38.595   5.298  16.528  0.00  0.00    +0.000 N 
ENDROOT
BRANCH   1  11
ATOM      6  C   UNL     1      38.189   9.343  20.572  0.00  0.00    +0.000 C 
ATOM      7  C   UNL     1      39.012   8.192  20.127  0.00  0.00    +0.000 A 
ATOM      8  C   UNL     1      40.292   8.031  20.614  0.00  0.00    +0.000 A 
ATOM      9  C   UNL     1      41.033   6.966  20.191  0.00  0.00    +0.000 A 
ATOM     10  C   UNL     1      40.485   6.083  19.293  0.00  0.00    +0.000 A 
ATOM     11  C   UNL     1      39.221   6.240  18.809  0.00  0.00    +0.000 A 
ATOM     12  C   UNL     1      38.455   7.311  19.225  0.00  0.00    +0.000 A 
ENDBRANCH   1  11
BRANCH   4  13
ATOM     13  S   UNL     1      37.655   3.698  14.369  0.00  0.00    +0.000 S 
BRANCH  13  14
ATOM     14  C   UNL     1      38.342   2.112  13.887  0.00  0.00    +0.000 C 
BRANCH  14  15
ATOM     15  C   UNL     1      37.380   1.013  14.157  0.00  0.00    +0.000 C 
ATOM     16  O   UNL     1      36.350   0.927  13.452  0.00  0.00    +0.000 OA
ATOM     17  N   UNL     1      37.618   0.074  15.197  0.00  0.00    +0.000 NA
BRANCH  17  18
ATOM     18  C   UNL     1      36.682  -0.967  15.435  0.00  0.00    +0.000 A 
ATOM     19  C   UNL     1      36.589  -2.105  14.705  0.00  0.00    +0.000 A 
ATOM     20  C   UNL     1      35.652  -3.069  14.999  0.00  0.00    +0.000 A 
ATOM     21  C   UNL     1      34.755  -2.933  16.052  0.00  0.00    +0.000 A 
ATOM     22  C   UNL     1      34.868  -1.768  16.781  0.00  0.00    +0.000 A 
ATOM     23  C   UNL     1      35.799  -0.787  16.505  0.00  0.00    +0.000 A 
BRANCH  23  24
ATOM     24  C   UNL     1      35.867   0.431  17.324  0.00  0.00    +0.000 C 
ATOM     25  C   UNL     1      34.782   1.377  16.887  0.00  0.00    +0.000 C 
ATOM     26  C   UNL     1      35.748   0.049  18.782  0.00  0.00    +0.000 C 
ENDBRANCH  23  24
ENDBRANCH  17  18
ENDBRANCH  14  15
ENDBRANCH  13  14
ENDBRANCH   4  13
BRANCH   5  27
ATOM     27  C   UNL     1      38.994   6.371  15.667  0.00  0.00    +0.000 C 
BRANCH  27  28
ATOM     28  C   UNL     1      40.394   6.228  15.232  0.00  0.00    +0.000 A 
ATOM     29  C   UNL     1      41.532   6.684  15.854  0.00  0.00    +0.000 A 
ATOM     30  C   UNL     1      42.586   6.308  15.070  0.00  0.00    +0.000 A 
ATOM     31  C   UNL     1      42.063   5.623  13.970  0.00  0.00    +0.000 A 
ATOM     32  O   UNL     1      40.775   5.606  14.118  0.00  0.00    +0.000 OA
ENDBRANCH  27  28
ENDBRANCH   5  27
TORSDOF 8
ENDMDL
MODEL 3
REMARK VINA RESULT:      -8.1      1.527      2.109
REMARK  Name = 
REMARK  8 active torsions:
REMARK  status: ('A' for Active; 'I' for Inactive)
REMARK    1  A    between atoms: C_6  and  C_7
REMARK    2  A    between atoms: C_10  and  S_11
REMARK    3  A    between atoms: S_11  and  C_12
REMARK    4  A    between atoms: C_12  and  C_13
REMARK    5  A    between atoms: N_15  and  C_16
REMARK    6  A    between atoms: C_21  and  C_22
REMARK    7  A    between atoms: N_25  and  C_26
REMARK    8  A    between atoms: C_26  and  C_27
REMARK                            x       y       z     vdW  Elec       q    Type
REMARK                         _______ _______ _______ _____ _____    ______ ____
ROOT
ATOM      1  C   UNL     1      38.601   5.109  17.708  0.00  0.00    +0.000 A 
ATOM      2  N   UNL     1      38.022   3.926  18.076  0.00  0.00    +0.000 NA
ATOM      3  N   UNL     1      37.696   3.253  16.988  0.00  0.00    +0.000 NA
ATOM      4  C   UNL     1      38.044   3.956  15.897  0.00  0.00    +0.000 A 
ATOM      5  N   UNL     1      38.604   5.103  16.379  0.00  0.00    +0.000 N 
ENDROOT
BRANCH   1  11
ATOM      6  C   UNL     1      37.959   9.260  20.297  0.00  0.00    +0.000 C 
ATOM      7  C   UNL     1      38.799   8.094  19.927  0.00  0.00    +0.000 A 
ATOM      8  C   UNL     1      40.047   7.938  20.493  0.00  0.00    +0.000 A 
ATOM      9  C   UNL     1      40.804   6.859  20.139  0.00  0.00    +0.000 A 
ATOM     10  C   UNL     1      40.304   5.959  19.231  0.00  0.00    +0.000 A 
ATOM     11  C   UNL     1      39.072   6.111  18.671  0.00  0.00    +0.000 A 
ATOM     12  C   UNL     1      38.290   7.195  19.015  0.00  0.00    +0.000 A 
ENDBRANCH   1  11
BRANCH   4  13
ATOM     13  S   UNL     1      37.795   3.453  14.206  0.00  0.00    +0.000 S 
BRANCH  13  14
ATOM     14  C   UNL     1      38.460   1.827  13.838  0.00  0.00    +0.000 C 
BRANCH  14  15
ATOM     15  C   UNL     1      37.455   0.768  14.110  0.00  0.00    +0.000 C 
ATOM     16  O   UNL     1      36.458   0.676  13.358  0.00  0.00    +0.000 OA
ATOM     17  N   UNL     1      37.614  -0.126  15.203  0.00  0.00    +0.000 NA
BRANCH  17  18
ATOM     18  C   UNL     1      36.638  -1.130  15.441  0.00  0.00    +0.000 A 
ATOM     19  C   UNL     1      36.515  -2.275  14.726  0.00  0.00    +0.000 A 
ATOM     20  C   UNL     1      35.540  -3.200  15.019  0.00  0.00    +0.000 A 
ATOM     21  C   UNL     1      34.633  -3.016  16.056  0.00  0.00    +0.000 A 
ATOM     22  C   UNL     1      34.777  -1.846  16.770  0.00  0.00    +0.000 A 
ATOM     23  C   UNL     1      35.746  -0.903  16.494  0.00  0.00    +0.000 A 
BRANCH  23  24
ATOM     24  C   UNL     1      35.845   0.325  17.296  0.00  0.00    +0.000 C 
ATOM     25  C   UNL     1      34.783   1.291  16.847  0.00  0.00    +0.000 C 
ATOM     26  C   UNL     1      35.718  -0.034  18.760  0.00  0.00    +0.000 C 
ENDBRANCH  23  24
ENDBRANCH  17  18
ENDBRANCH  14  15
ENDBRANCH  13  14
ENDBRANCH   4  13
BRANCH   5  27
ATOM     27  C   UNL     1      39.102   6.134  15.518  0.00  0.00    +0.000 C 
BRANCH  27  28
ATOM     28  C   UNL     1      38.145   7.248  15.391  0.00  0.00    +0.000 A 
ATOM     29  C   UNL     1      38.359   8.587  15.616  0.00  0.00    +0.000 A 
ATOM     30  C   UNL     1      37.175   9.221  15.368  0.00  0.00    +0.000 A 
ATOM     31  C   UNL     1      36.250   8.243  14.992  0.00  0.00    +0.000 A 
ATOM     32  O   UNL     1      36.873   7.108  15.024  0.00  0.00    +0.000 OA
ENDBRANCH  27  28
ENDBRANCH   5  27
TORSDOF 8
ENDMDL
MODEL 4
REMARK VINA RESULT:      -8.1      1.843      2.843
REMARK  Name = 
REMARK  8 active torsions:
REMARK  status: ('A' for Active; 'I' for Inactive)
REMARK    1  A    between atoms: C_6  and  C_7
REMARK    2  A    between atoms: C_10  and  S_11
REMARK    3  A    between atoms: S_11  and  C_12
REMARK    4  A    between atoms: C_12  and  C_13
REMARK    5  A    between atoms: N_15  and  C_16
REMARK    6  A    between atoms: C_21  and  C_22
REMARK    7  A    between atoms: N_25  and  C_26
REMARK    8  A    between atoms: C_26  and  C_27
REMARK                            x       y       z     vdW  Elec       q    Type
REMARK                         _______ _______ _______ _____ _____    ______ ____
ROOT
ATOM      1  C   UNL     1      38.423   5.081  17.729  0.00  0.00    +0.000 A 
ATOM      2  N   UNL     1      37.941   3.863  18.124  0.00  0.00    +0.000 NA
ATOM      3  N   UNL     1      37.583   3.178  17.053  0.00  0.00    +0.000 NA
ATOM      4  C   UNL     1      37.815   3.906  15.949  0.00  0.00    +0.000 A 
ATOM      5  N   UNL     1      38.337   5.083  16.403  0.00  0.00    +0.000 N 
ENDROOT
BRANCH   1  11
ATOM      6  C   UNL     1      37.871   9.378  20.090  0.00  0.00    +0.000 C 
ATOM      7  C   UNL     1      38.667   8.155  19.817  0.00  0.00    +0.000 A 
ATOM      8  C   UNL     1      39.876   7.965  20.453  0.00  0.00    +0.000 A 
ATOM      9  C   UNL     1      40.592   6.834  20.188  0.00  0.00    +0.000 A 
ATOM     10  C   UNL     1      40.092   5.917  19.297  0.00  0.00    +0.000 A 
ATOM     11  C   UNL     1      38.897   6.103  18.668  0.00  0.00    +0.000 A 
ATOM     12  C   UNL     1      38.157   7.240  18.922  0.00  0.00    +0.000 A 
ENDBRANCH   1  11
BRANCH   4  13
ATOM     13  S   UNL     1      37.484   3.399  14.273  0.00  0.00    +0.000 S 
BRANCH  13  14
ATOM     14  C   UNL     1      36.481   1.915  14.160  0.00  0.00    +0.000 C 
BRANCH  14  15
ATOM     15  C   UNL     1      37.332   0.697  14.174  0.00  0.00    +0.000 C 
ATOM     16  O   UNL     1      37.151  -0.174  13.294  0.00  0.00    +0.000 OA
ATOM     17  N   UNL     1      38.334   0.518  15.166  0.00  0.00    +0.000 NA
BRANCH  17  18
ATOM     18  C   UNL     1      39.134  -0.656  15.156  0.00  0.00    +0.000 A 
ATOM     19  C   UNL     1      40.216  -0.848  14.363  0.00  0.00    +0.000 A 
ATOM     20  C   UNL     1      40.940  -2.016  14.412  0.00  0.00    +0.000 A 
ATOM     21  C   UNL     1      40.608  -3.058  15.271  0.00  0.00    +0.000 A 
ATOM     22  C   UNL     1      39.505  -2.840  16.069  0.00  0.00    +0.000 A 
ATOM     23  C   UNL     1      38.762  -1.678  16.037  0.00  0.00    +0.000 A 
BRANCH  23  24
ATOM     24  C   UNL     1      37.596  -1.510  16.915  0.00  0.00    +0.000 C 
ATOM     25  C   UNL     1      36.463  -2.348  16.393  0.00  0.00    +0.000 C 
ATOM     26  C   UNL     1      37.990  -1.883  18.327  0.00  0.00    +0.000 C 
ENDBRANCH  23  24
ENDBRANCH  17  18
ENDBRANCH  14  15
ENDBRANCH  13  14
ENDBRANCH   4  13
BRANCH   5  27
ATOM     27  C   UNL     1      38.715   6.146  15.521  0.00  0.00    +0.000 C 
BRANCH  27  28
ATOM     28  C   UNL     1      40.143   6.076  15.164  0.00  0.00    +0.000 A 
ATOM     29  C   UNL     1      41.217   6.613  15.835  0.00  0.00    +0.000 A 
ATOM     30  C   UNL     1      42.332   6.284  15.117  0.00  0.00    +0.000 A 
ATOM     31  C   UNL     1      41.910   5.544  14.009  0.00  0.00    +0.000 A 
ATOM     32  O   UNL     1      40.620   5.455  14.088  0.00  0.00    +0.000 OA
ENDBRANCH  27  28
ENDBRANCH   5  27
TORSDOF 8
ENDMDL
MODEL 5
REMARK VINA RESULT:      -8.0      1.910      8.289
REMARK  Name = 
REMARK  8 active torsions:
REMARK  status: ('A' for Active; 'I' for Inactive)
REMARK    1  A    between atoms: C_6  and  C_7
REMARK    2  A    between atoms: C_10  and  S_11
REMARK    3  A    between atoms: S_11  and  C_12
REMARK    4  A    between atoms: C_12  and  C_13
REMARK    5  A    between atoms: N_15  and  C_16
REMARK    6  A    between atoms: C_21  and  C_22
REMARK    7  A    between atoms: N_25  and  C_26
REMARK    8  A    between atoms: C_26  and  C_27
REMARK                            x       y       z     vdW  Elec       q    Type
REMARK                         _______ _______ _______ _____ _____    ______ ____
ROOT
ATOM      1  C   UNL     1      38.638  -0.246  15.179  0.00  0.00    +0.000 A 
ATOM      2  N   UNL     1      39.915   0.158  14.900  0.00  0.00    +0.000 NA
ATOM      3  N   UNL     1      39.896   1.437  14.575  0.00  0.00    +0.000 NA
ATOM      4  C   UNL     1      38.638   1.903  14.630  0.00  0.00    +0.000 A 
ATOM      5  N   UNL     1      37.881   0.832  15.009  0.00  0.00    +0.000 N 
ENDROOT
BRANCH   1  11
ATOM      6  C   UNL     1      38.637  -3.961  18.426  0.00  0.00    +0.000 C 
ATOM      7  C   UNL     1      38.272  -3.420  17.093  0.00  0.00    +0.000 A 
ATOM      8  C   UNL     1      37.596  -4.214  16.190  0.00  0.00    +0.000 A 
ATOM      9  C   UNL     1      37.271  -3.698  14.969  0.00  0.00    +0.000 A 
ATOM     10  C   UNL     1      37.624  -2.404  14.673  0.00  0.00    +0.000 A 
ATOM     11  C   UNL     1      38.292  -1.619  15.563  0.00  0.00    +0.000 A 
ATOM     12  C   UNL     1      38.631  -2.122  16.803  0.00  0.00    +0.000 A 
ENDBRANCH   1  11
BRANCH   4  13
ATOM     13  S   UNL     1      38.123   3.570  14.267  0.00  0.00    +0.000 S 
BRANCH  13  14
ATOM     14  C   UNL     1      37.028   4.266  15.507  0.00  0.00    +0.000 C 
BRANCH  14  15
ATOM     15  C   UNL     1      37.788   4.672  16.717  0.00  0.00    +0.000 C 
ATOM     16  O   UNL     1      38.052   3.805  17.581  0.00  0.00    +0.000 OA
ATOM     17  N   UNL     1      38.208   6.017  16.898  0.00  0.00    +0.000 NA
BRANCH  17  18
ATOM     18  C   UNL     1      38.933   6.378  18.066  0.00  0.00    +0.000 A 
ATOM     19  C   UNL     1      40.005   5.705  18.549  0.00  0.00    +0.000 A 
ATOM     20  C   UNL     1      40.655   6.118  19.689  0.00  0.00    +0.000 A 
ATOM     21  C   UNL     1      40.253   7.241  20.404  0.00  0.00    +0.000 A 
ATOM     22  C   UNL     1      39.161   7.910  19.894  0.00  0.00    +0.000 A 
ATOM     23  C   UNL     1      38.493   7.514  18.754  0.00  0.00    +0.000 A 
BRANCH  23  24
ATOM     24  C   UNL     1      37.335   8.274  18.263  0.00  0.00    +0.000 C 
ATOM     25  C   UNL     1      36.526   8.750  19.438  0.00  0.00    +0.000 C 
ATOM     26  C   UNL     1      37.827   9.413  17.399  0.00  0.00    +0.000 C 
ENDBRANCH  23  24
ENDBRANCH  17  18
ENDBRANCH  14  15
ENDBRANCH  13  14
ENDBRANCH   4  13
BRANCH   5  27
ATOM     27  C   UNL     1      36.460   0.918  15.175  0.00  0.00    +0.000 C 
BRANCH  27  28
ATOM     28  C   UNL     1      36.037   0.434  16.501  0.00  0.00    +0.000 A 
ATOM     29  C   UNL     1      35.105  -0.532  16.799  0.00  0.00    +0.000 A 
ATOM     30  C   UNL     1      35.061  -0.628  18.161  0.00  0.00    +0.000 A 
ATOM     31  C   UNL     1      35.979   0.293  18.672  0.00  0.00    +0.000 A 
ATOM     32  O   UNL     1      36.520   0.886  17.655  0.00  0.00    +0.000 OA
ENDBRANCH  27  28
ENDBRANCH   5  27
TORSDOF 8
ENDMDL
MODEL 6
REMARK VINA RESULT:      -8.0      1.883      8.635
REMARK  Name = 
REMARK  8 active torsions:
REMARK  status: ('A' for Active; 'I' for Inactive)
REMARK    1  A    between atoms: C_6  and  C_7
REMARK    2  A    between atoms: C_10  and  S_11
REMARK    3  A    between atoms: S_11  and  C_12
REMARK    4  A    between atoms: C_12  and  C_13
REMARK    5  A    between atoms: N_15  and  C_16
REMARK    6  A    between atoms: C_21  and  C_22
REMARK    7  A    between atoms: N_25  and  C_26
REMARK    8  A    between atoms: C_26  and  C_27
REMARK                            x       y       z     vdW  Elec       q    Type
REMARK                         _______ _______ _______ _____ _____    ______ ____
ROOT
ATOM      1  C   UNL     1      38.346   0.085  15.072  0.00  0.00    +0.000 A 
ATOM      2  N   UNL     1      39.607   0.514  14.760  0.00  0.00    +0.000 NA
ATOM      3  N   UNL     1      39.616   1.834  14.737  0.00  0.00    +0.000 NA
ATOM      4  C   UNL     1      38.392   2.303  15.027  0.00  0.00    +0.000 A 
ATOM      5  N   UNL     1      37.626   1.191  15.231  0.00  0.00    +0.000 N 
ENDROOT
BRANCH   1  11
ATOM      6  C   UNL     1      38.466  -4.268  17.392  0.00  0.00    +0.000 C 
ATOM      7  C   UNL     1      38.012  -3.431  16.254  0.00  0.00    +0.000 A 
ATOM      8  C   UNL     1      37.228  -3.984  15.263  0.00  0.00    +0.000 A 
ATOM      9  C   UNL     1      36.821  -3.198  14.224  0.00  0.00    +0.000 A 
ATOM     10  C   UNL     1      37.202  -1.879  14.193  0.00  0.00    +0.000 A 
ATOM     11  C   UNL     1      37.977  -1.331  15.170  0.00  0.00    +0.000 A 
ATOM     12  C   UNL     1      38.399  -2.109  16.229  0.00  0.00    +0.000 A 
ENDBRANCH   1  11
BRANCH   4  13
ATOM     13  S   UNL     1      37.920   4.020  15.107  0.00  0.00    +0.000 S 
BRANCH  13  14
ATOM     14  C   UNL     1      39.319   5.144  15.131  0.00  0.00    +0.000 C 
BRANCH  14  15
ATOM     15  C   UNL     1      39.143   6.187  16.174  0.00  0.00    +0.000 C 
ATOM     16  O   UNL     1      39.080   7.387  15.821  0.00  0.00    +0.000 OA
ATOM     17  N   UNL     1      39.049   5.837  17.547  0.00  0.00    +0.000 NA
BRANCH  17  18
ATOM     18  C   UNL     1      38.882   6.855  18.524  0.00  0.00    +0.000 A 
ATOM     19  C   UNL     1      37.750   7.581  18.699  0.00  0.00    +0.000 A 
ATOM     20  C   UNL     1      37.666   8.552  19.670  0.00  0.00    +0.000 A 
ATOM     21  C   UNL     1      38.727   8.842  20.521  0.00  0.00    +0.000 A 
ATOM     22  C   UNL     1      39.866   8.091  20.326  0.00  0.00    +0.000 A 
ATOM     23  C   UNL     1      39.975   7.113  19.358  0.00  0.00    +0.000 A 
BRANCH  23  24
ATOM     24  C   UNL     1      41.220   6.347  19.204  0.00  0.00    +0.000 C 
ATOM     25  C   UNL     1      42.120   7.064  18.237  0.00  0.00    +0.000 C 
ATOM     26  C   UNL     1      41.857   6.169  20.565  0.00  0.00    +0.000 C 
ENDBRANCH  23  24
ENDBRANCH  17  18
ENDBRANCH  14  15
ENDBRANCH  13  14
ENDBRANCH   4  13
BRANCH   5  27
ATOM     27  C   UNL     1      36.234   1.268  15.560  0.00  0.00    +0.000 C 
BRANCH  27  28
ATOM     28  C   UNL     1      35.935   0.578  16.827  0.00  0.00    +0.000 A 
ATOM     29  C   UNL     1      35.040  -0.441  17.053  0.00  0.00    +0.000 A 
ATOM     30  C   UNL     1      35.119  -0.746  18.382  0.00  0.00    +0.000 A 
ATOM     31  C   UNL     1      36.073   0.104  18.948  0.00  0.00    +0.000 A 
ATOM     32  O   UNL     1      36.517   0.857  17.991  0.00  0.00    +0.000 OA
ENDBRANCH  27  28
ENDBRANCH   5  27
TORSDOF 8
ENDMDL
MODEL 7
REMARK VINA RESULT:      -8.0     24.789     27.259
REMARK  Name = 
REMARK  8 active torsions:
REMARK  status: ('A' for Active; 'I' for Inactive)
REMARK    1  A    between atoms: C_6  and  C_7
REMARK    2  A    between atoms: C_10  and  S_11
REMARK    3  A    between atoms: S_11  and  C_12
REMARK    4  A    between atoms: C_12  and  C_13
REMARK    5  A    between atoms: N_15  and  C_16
REMARK    6  A    between atoms: C_21  and  C_22
REMARK    7  A    between atoms: N_25  and  C_26
REMARK    8  A    between atoms: C_26  and  C_27
REMARK                            x       y       z     vdW  Elec       q    Type
REMARK                         _______ _______ _______ _____ _____    ______ ____
ROOT
ATOM      1  C   UNL     1      26.668  15.502  36.302  0.00  0.00    +0.000 A 
ATOM      2  N   UNL     1      28.023  15.518  36.498  0.00  0.00    +0.000 NA
ATOM      3  N   UNL     1      28.267  15.424  37.792  0.00  0.00    +0.000 NA
ATOM      4  C   UNL     1      27.110  15.345  38.470  0.00  0.00    +0.000 A 
ATOM      5  N   UNL     1      26.136  15.396  37.515  0.00  0.00    +0.000 N 
ENDROOT
BRANCH   1  11
ATOM      6  C   UNL     1      24.328  18.082  32.808  0.00  0.00    +0.000 C 
ATOM      7  C   UNL     1      24.923  16.808  33.282  0.00  0.00    +0.000 A 
ATOM      8  C   UNL     1      24.895  15.692  32.472  0.00  0.00    +0.000 A 
ATOM      9  C   UNL     1      25.448  14.530  32.927  0.00  0.00    +0.000 A 
ATOM     10  C   UNL     1      26.016  14.503  34.177  0.00  0.00    +0.000 A 
ATOM     11  C   UNL     1      26.045  15.604  34.978  0.00  0.00    +0.000 A 
ATOM     12  C   UNL     1      25.491  16.789  34.537  0.00  0.00    +0.000 A 
ENDBRANCH   1  11
BRANCH   4  13
ATOM     13  S   UNL     1      26.941  15.213  40.239  0.00  0.00    +0.000 S 
BRANCH  13  14
ATOM     14  C   UNL     1      26.217  13.661  40.774  0.00  0.00    +0.000 C 
BRANCH  14  15
ATOM     15  C   UNL     1      27.271  12.654  41.062  0.00  0.00    +0.000 C 
ATOM     16  O   UNL     1      28.276  13.006  41.721  0.00  0.00    +0.000 OA
ATOM     17  N   UNL     1      27.149  11.317  40.600  0.00  0.00    +0.000 NA
BRANCH  17  18
ATOM     18  C   UNL     1      28.172  10.374  40.888  0.00  0.00    +0.000 A 
ATOM     19  C   UNL     1      29.428  10.417  40.381  0.00  0.00    +0.000 A 
ATOM     20  C   UNL     1      30.365   9.464  40.709  0.00  0.00    +0.000 A 
ATOM     21  C   UNL     1      30.080   8.413  41.574  0.00  0.00    +0.000 A 
ATOM     22  C   UNL     1      28.797   8.391  42.078  0.00  0.00    +0.000 A 
ATOM     23  C   UNL     1      27.841   9.334  41.763  0.00  0.00    +0.000 A 
BRANCH  23  24
ATOM     24  C   UNL     1      26.491   9.251  42.337  0.00  0.00    +0.000 C 
ATOM     25  C   UNL     1      25.928   7.882  42.074  0.00  0.00    +0.000 C 
ATOM     26  C   UNL     1      26.566   9.572  43.813  0.00  0.00    +0.000 C 
ENDBRANCH  23  24
ENDBRANCH  17  18
ENDBRANCH  14  15
ENDBRANCH  13  14
ENDBRANCH   4  13
BRANCH   5  27
ATOM     27  C   UNL     1      24.742  15.347  37.838  0.00  0.00    +0.000 C 
BRANCH  27  28
ATOM     28  C   UNL     1      24.260  16.634  38.371  0.00  0.00    +0.000 A 
ATOM     29  C   UNL     1      24.267  17.865  37.760  0.00  0.00    +0.000 A 
ATOM     30  C   UNL     1      23.720  18.747  38.648  0.00  0.00    +0.000 A 
ATOM     31  C   UNL     1      23.387  18.026  39.798  0.00  0.00    +0.000 A 
ATOM     32  O   UNL     1      23.726  16.795  39.579  0.00  0.00    +0.000 OA
ENDBRANCH  27  28
ENDBRANCH   5  27
TORSDOF 8
ENDMDL
MODEL 8
REMARK VINA RESULT:      -7.8      1.996      8.650
REMARK  Name = 
REMARK  8 active torsions:
REMARK  status: ('A' for Active; 'I' for Inactive)
REMARK    1  A    between atoms: C_6  and  C_7
REMARK    2  A    between atoms: C_10  and  S_11
REMARK    3  A    between atoms: S_11  and  C_12
REMARK    4  A    between atoms: C_12  and  C_13
REMARK    5  A    between atoms: N_15  and  C_16
REMARK    6  A    between atoms: C_21  and  C_22
REMARK    7  A    between atoms: N_25  and  C_26
REMARK    8  A    between atoms: C_26  and  C_27
REMARK                            x       y       z     vdW  Elec       q    Type
REMARK                         _______ _______ _______ _____ _____    ______ ____
ROOT
ATOM      1  C   UNL     1      36.803  -0.801  17.307  0.00  0.00    +0.000 A 
ATOM      2  N   UNL     1      36.609  -0.257  18.547  0.00  0.00    +0.000 NA
ATOM      3  N   UNL     1      36.319   1.024  18.410  0.00  0.00    +0.000 NA
ATOM      4  C   UNL     1      36.313   1.353  17.108  0.00  0.00    +0.000 A 
ATOM      5  N   UNL     1      36.617   0.196  16.450  0.00  0.00    +0.000 N 
ENDROOT
BRANCH   1  11
ATOM      6  C   UNL     1      35.625  -5.402  15.971  0.00  0.00    +0.000 C 
ATOM      7  C   UNL     1      36.629  -4.424  16.457  0.00  0.00    +0.000 A 
ATOM      8  C   UNL     1      37.920  -4.833  16.715  0.00  0.00    +0.000 A 
ATOM      9  C   UNL     1      38.828  -3.916  17.162  0.00  0.00    +0.000 A 
ATOM     10  C   UNL     1      38.432  -2.614  17.344  0.00  0.00    +0.000 A 
ATOM     11  C   UNL     1      37.157  -2.208  17.091  0.00  0.00    +0.000 A 
ATOM     12  C   UNL     1      36.223  -3.119  16.638  0.00  0.00    +0.000 A 
ENDBRANCH   1  11
BRANCH   4  13
ATOM     13  S   UNL     1      35.981   2.971  16.440  0.00  0.00    +0.000 S 
BRANCH  13  14
ATOM     14  C   UNL     1      37.462   3.862  15.956  0.00  0.00    +0.000 C 
BRANCH  14  15
ATOM     15  C   UNL     1      38.116   4.484  17.136  0.00  0.00    +0.000 C 
ATOM     16  O   UNL     1      38.202   3.823  18.196  0.00  0.00    +0.000 OA
ATOM     17  N   UNL     1      38.635   5.805  17.070  0.00  0.00    +0.000 NA
BRANCH  17  18
ATOM     18  C   UNL     1      39.255   6.376  18.213  0.00  0.00    +0.000 A 
ATOM     19  C   UNL     1      40.370   5.890  18.813  0.00  0.00    +0.000 A 
ATOM     20  C   UNL     1      40.911   6.502  19.920  0.00  0.00    +0.000 A 
ATOM     21  C   UNL     1      40.352   7.644  20.482  0.00  0.00    +0.000 A 
ATOM     22  C   UNL     1      39.220   8.121  19.856  0.00  0.00    +0.000 A 
ATOM     23  C   UNL     1      38.659   7.524  18.746  0.00  0.00    +0.000 A 
BRANCH  23  24
ATOM     24  C   UNL     1      37.450   8.085  18.125  0.00  0.00    +0.000 C 
ATOM     25  C   UNL     1      36.586   8.693  19.195  0.00  0.00    +0.000 C 
ATOM     26  C   UNL     1      37.862   9.091  17.074  0.00  0.00    +0.000 C 
ENDBRANCH  23  24
ENDBRANCH  17  18
ENDBRANCH  14  15
ENDBRANCH  13  14
ENDBRANCH   4  13
BRANCH   5  27
ATOM     27  C   UNL     1      36.718   0.131  15.022  0.00  0.00    +0.000 C 
BRANCH  27  28
ATOM     28  C   UNL     1      38.096  -0.162  14.587  0.00  0.00    +0.000 A 
ATOM     29  C   UNL     1      38.532  -1.164  13.753  0.00  0.00    +0.000 A 
ATOM     30  C   UNL     1      39.887  -1.027  13.651  0.00  0.00    +0.000 A 
ATOM     31  C   UNL     1      40.255   0.071  14.434  0.00  0.00    +0.000 A 
ATOM     32  O   UNL     1      39.166   0.537  14.958  0.00  0.00    +0.000 OA
ENDBRANCH  27  28
ENDBRANCH   5  27
TORSDOF 8
ENDMDL
MODEL 9
REMARK VINA RESULT:      -7.8      2.144      8.974
REMARK  Name = 
REMARK  8 active torsions:
REMARK  status: ('A' for Active; 'I' for Inactive)
REMARK    1  A    between atoms: C_6  and  C_7
REMARK    2  A    between atoms: C_10  and  S_11
REMARK    3  A    between atoms: S_11  and  C_12
REMARK    4  A    between atoms: C_12  and  C_13
REMARK    5  A    between atoms: N_15  and  C_16
REMARK    6  A    between atoms: C_21  and  C_22
REMARK    7  A    between atoms: N_25  and  C_26
REMARK    8  A    between atoms: C_26  and  C_27
REMARK                            x       y       z     vdW  Elec       q    Type
REMARK                         _______ _______ _______ _____ _____    ______ ____
ROOT
ATOM      1  C   UNL     1      36.568  -0.301  16.505  0.00  0.00    +0.000 A 
ATOM      2  N   UNL     1      36.305   0.342  17.684  0.00  0.00    +0.000 NA
ATOM      3  N   UNL     1      36.503   1.636  17.517  0.00  0.00    +0.000 NA
ATOM      4  C   UNL     1      36.891   1.879  16.254  0.00  0.00    +0.000 A 
ATOM      5  N   UNL     1      36.921   0.655  15.652  0.00  0.00    +0.000 N 
ENDROOT
BRANCH   1  11
ATOM      6  C   UNL     1      34.187  -4.308  14.887  0.00  0.00    +0.000 C 
ATOM      7  C   UNL     1      35.350  -3.696  15.576  0.00  0.00    +0.000 A 
ATOM      8  C   UNL     1      36.355  -4.498  16.073  0.00  0.00    +0.000 A 
ATOM      9  C   UNL     1      37.416  -3.915  16.704  0.00  0.00    +0.000 A 
ATOM     10  C   UNL     1      37.454  -2.548  16.827  0.00  0.00    +0.000 A 
ATOM     11  C   UNL     1      36.462  -1.754  16.337  0.00  0.00    +0.000 A 
ATOM     12  C   UNL     1      35.380  -2.323  15.696  0.00  0.00    +0.000 A 
ENDBRANCH   1  11
BRANCH   4  13
ATOM     13  S   UNL     1      37.281   3.478  15.569  0.00  0.00    +0.000 S 
BRANCH  13  14
ATOM     14  C   UNL     1      38.866   4.121  16.112  0.00  0.00    +0.000 C 
BRANCH  14  15
ATOM     15  C   UNL     1      38.707   4.980  17.313  0.00  0.00    +0.000 C 
ATOM     16  O   UNL     1      38.386   4.444  18.399  0.00  0.00    +0.000 OA
ATOM     17  N   UNL     1      38.911   6.384  17.239  0.00  0.00    +0.000 NA
BRANCH  17  18
ATOM     18  C   UNL     1      38.752   7.182  18.404  0.00  0.00    +0.000 A 
ATOM     19  C   UNL     1      37.613   7.832  18.746  0.00  0.00    +0.000 A 
ATOM     20  C   UNL     1      37.538   8.588  19.893  0.00  0.00    +0.000 A 
ATOM     21  C   UNL     1      38.616   8.726  20.760  0.00  0.00    +0.000 A 
ATOM     22  C   UNL     1      39.763   8.055  20.393  0.00  0.00    +0.000 A 
ATOM     23  C   UNL     1      39.862   7.293  19.247  0.00  0.00    +0.000 A 
BRANCH  23  24
ATOM     24  C   UNL     1      41.116   6.602  18.915  0.00  0.00    +0.000 C 
ATOM     25  C   UNL     1      41.972   7.513  18.078  0.00  0.00    +0.000 C 
ATOM     26  C   UNL     1      41.800   6.183  20.198  0.00  0.00    +0.000 C 
ENDBRANCH  23  24
ENDBRANCH  17  18
ENDBRANCH  14  15
ENDBRANCH  13  14
ENDBRANCH   4  13
BRANCH   5  27
ATOM     27  C   UNL     1      37.301   0.484  14.281  0.00  0.00    +0.000 C 
BRANCH  27  28
ATOM     28  C   UNL     1      38.627  -0.148  14.158  0.00  0.00    +0.000 A 
ATOM     29  C   UNL     1      39.845   0.340  14.568  0.00  0.00    +0.000 A 
ATOM     30  C   UNL     1      40.777  -0.603  14.236  0.00  0.00    +0.000 A 
ATOM     31  C   UNL     1      40.098  -1.660  13.623  0.00  0.00    +0.000 A 
ATOM     32  O   UNL     1      38.844  -1.338  13.604  0.00  0.00    +0.000 OA
ENDBRANCH  27  28
ENDBRANCH   5  27
TORSDOF 8
ENDMDL
MODEL 10
REMARK VINA RESULT:      -7.6      2.725      3.775
REMARK  Name = 
REMARK  8 active torsions:
REMARK  status: ('A' for Active; 'I' for Inactive)
REMARK    1  A    between atoms: C_6  and  C_7
REMARK    2  A    between atoms: C_10  and  S_11
REMARK    3  A    between atoms: S_11  and  C_12
REMARK    4  A    between atoms: C_12  and  C_13
REMARK    5  A    between atoms: N_15  and  C_16
REMARK    6  A    between atoms: C_21  and  C_22
REMARK    7  A    between atoms: N_25  and  C_26
REMARK    8  A    between atoms: C_26  and  C_27
REMARK                            x       y       z     vdW  Elec       q    Type
REMARK                         _______ _______ _______ _____ _____    ______ ____
ROOT
ATOM      1  C   UNL     1      37.870   4.143  15.885  0.00  0.00    +0.000 A 
ATOM      2  N   UNL     1      37.928   3.759  17.197  0.00  0.00    +0.000 NA
ATOM      3  N   UNL     1      36.955   2.898  17.432  0.00  0.00    +0.000 NA
ATOM      4  C   UNL     1      36.247   2.692  16.310  0.00  0.00    +0.000 A 
ATOM      5  N   UNL     1      36.841   3.480  15.367  0.00  0.00    +0.000 N 
ENDROOT
BRANCH   1  11
ATOM      6  C   UNL     1      41.968   5.203  13.349  0.00  0.00    +0.000 C 
ATOM      7  C   UNL     1      40.753   5.653  14.074  0.00  0.00    +0.000 A 
ATOM      8  C   UNL     1      40.482   6.999  14.192  0.00  0.00    +0.000 A 
ATOM      9  C   UNL     1      39.360   7.392  14.863  0.00  0.00    +0.000 A 
ATOM     10  C   UNL     1      38.532   6.438  15.401  0.00  0.00    +0.000 A 
ATOM     11  C   UNL     1      38.799   5.107  15.285  0.00  0.00    +0.000 A 
ATOM     12  C   UNL     1      39.928   4.689  14.611  0.00  0.00    +0.000 A 
ENDBRANCH   1  11
BRANCH   4  13
ATOM     13  S   UNL     1      34.836   1.616  16.146  0.00  0.00    +0.000 S 
BRANCH  13  14
ATOM     14  C   UNL     1      34.997   0.081  17.062  0.00  0.00    +0.000 C 
BRANCH  14  15
ATOM     15  C   UNL     1      36.068  -0.771  16.485  0.00  0.00    +0.000 C 
ATOM     16  O   UNL     1      35.752  -1.669  15.672  0.00  0.00    +0.000 OA
ATOM     17  N   UNL     1      37.429  -0.577  16.846  0.00  0.00    +0.000 NA
BRANCH  17  18
ATOM     18  C   UNL     1      38.434  -1.406  16.280  0.00  0.00    +0.000 A 
ATOM     19  C   UNL     1      38.765  -2.639  16.734  0.00  0.00    +0.000 A 
ATOM     20  C   UNL     1      39.753  -3.383  16.130  0.00  0.00    +0.000 A 
ATOM     21  C   UNL     1      40.461  -2.916  15.029  0.00  0.00    +0.000 A 
ATOM     22  C   UNL     1      40.108  -1.660  14.584  0.00  0.00    +0.000 A 
ATOM     23  C   UNL     1      39.122  -0.896  15.174  0.00  0.00    +0.000 A 
BRANCH  23  24
ATOM     24  C   UNL     1      38.793   0.437  14.648  0.00  0.00    +0.000 C 
ATOM     25  C   UNL     1      40.068   1.188  14.382  0.00  0.00    +0.000 C 
ATOM     26  C   UNL     1      37.945   0.278  13.406  0.00  0.00    +0.000 C 
ENDBRANCH  23  24
ENDBRANCH  17  18
ENDBRANCH  14  15
ENDBRANCH  13  14
ENDBRANCH   4  13
BRANCH   5  27
ATOM     27  C   UNL     1      36.368   3.549  14.016  0.00  0.00    +0.000 C 
BRANCH  27  28
ATOM     28  C   UNL     1      35.640   4.804  13.758  0.00  0.00    +0.000 A 
ATOM     29  C   UNL     1      35.882   5.746  12.786  0.00  0.00    +0.000 A 
ATOM     30  C   UNL     1      34.945   6.727  12.949  0.00  0.00    +0.000 A 
ATOM     31  C   UNL     1      34.141   6.359  14.032  0.00  0.00    +0.000 A 
ATOM     32  O   UNL     1      34.595   5.226  14.466  0.00  0.00    +0.000 OA
ENDBRANCH  27  28
ENDBRANCH   5  27
TORSDOF 8
ENDMDL
