MODEL 1
REMARK VINA RESULT:      -7.1      0.000      0.000
REMARK  Name = 
REMARK  4 active torsions:
REMARK  status: ('A' for Active; 'I' for Inactive)
REMARK    1  A    between atoms: C_2  and  C_3
REMARK    2  A    between atoms: C_3  and  O_4
REMARK    3  A    between atoms: O_4  and  C_5
REMARK    4  A    between atoms: C_14  and  C_15
REMARK                            x       y       z     vdW  Elec       q    Type
REMARK                         _______ _______ _______ _____ _____    ______ ____
ROOT
ATOM      1  C   UNL     1      30.088  22.332  26.289  0.00  0.00    +0.000 A 
ATOM      2  C   UNL     1      30.628  22.705  25.089  0.00  0.00    +0.000 A 
ATOM      3  C   UNL     1      29.933  23.125  24.009  0.00  0.00    +0.000 A 
ATOM      4  C   UNL     1      28.544  23.179  24.132  0.00  0.00    +0.000 A 
ATOM      5  C   UNL     1      27.784  23.583  23.042  0.00  0.00    +0.000 A 
ATOM      6  C   UNL     1      26.422  23.604  23.190  0.00  0.00    +0.000 A 
ATOM      7  C   UNL     1      25.816  23.244  24.359  0.00  0.00    +0.000 A 
ATOM      8  C   UNL     1      26.566  22.849  25.425  0.00  0.00    +0.000 A 
ATOM      9  C   UNL     1      27.943  22.817  25.311  0.00  0.00    +0.000 A 
ATOM     10  C   UNL     1      28.706  22.397  26.383  0.00  0.00    +0.000 A 
ENDROOT
BRANCH  10  11
ATOM     11  C   UNL     1      28.111  21.964  27.637  0.00  0.00    +0.000 C 
ATOM     12  C   UNL     1      27.859  22.844  28.578  0.00  0.00    +0.000 C 
ATOM     13  S   UNL     1      27.109  22.498  30.210  0.00  0.00    +0.000 S 
ATOM     14  C   UNL     1      26.542  24.181  30.449  0.00  0.00    +0.000 C 
ATOM     15  O   UNL     1      25.603  24.543  31.149  0.00  0.00    +0.000 OA
ATOM     16  N   UNL     1      27.410  24.948  29.664  0.00  0.00    +0.000 NA
ATOM     17  C   UNL     1      28.116  24.274  28.675  0.00  0.00    +0.000 C 
ATOM     18  O   UNL     1      28.951  24.858  27.890  0.00  0.00    +0.000 OA
ENDBRANCH  10  11
BRANCH   1  19
ATOM     19  O   UNL     1      30.797  21.913  27.369  0.00  0.00    +0.000 OA
BRANCH  19  20
ATOM     20  C   UNL     1      31.659  22.497  28.229  0.00  0.00    +0.000 C 
BRANCH  20  22
ATOM     21  C   UNL     1      33.688  21.892  29.525  0.00  0.00    +0.000 C 
ATOM     22  C   UNL     1      32.227  21.663  29.313  0.00  0.00    +0.000 C 
ENDBRANCH  20  22
ENDBRANCH  19  20
ENDBRANCH   1  19
TORSDOF 4
ENDMDL
MODEL 2
REMARK VINA RESULT:      -6.5      3.250      5.374
REMARK  Name = 
REMARK  4 active torsions:
REMARK  status: ('A' for Active; 'I' for Inactive)
REMARK    1  A    between atoms: C_2  and  C_3
REMARK    2  A    between atoms: C_3  and  O_4
REMARK    3  A    between atoms: O_4  and  C_5
REMARK    4  A    between atoms: C_14  and  C_15
REMARK                            x       y       z     vdW  Elec       q    Type
REMARK                         _______ _______ _______ _____ _____    ______ ____
ROOT
ATOM      1  C   UNL     1      27.885  23.017  27.197  0.00  0.00    +0.000 A 
ATOM      2  C   UNL     1      28.034  23.348  28.515  0.00  0.00    +0.000 A 
ATOM      3  C   UNL     1      27.200  24.136  29.228  0.00  0.00    +0.000 A 
ATOM      4  C   UNL     1      26.094  24.658  28.556  0.00  0.00    +0.000 A 
ATOM      5  C   UNL     1      25.218  25.492  29.240  0.00  0.00    +0.000 A 
ATOM      6  C   UNL     1      24.155  26.004  28.546  0.00  0.00    +0.000 A 
ATOM      7  C   UNL     1      23.946  25.715  27.228  0.00  0.00    +0.000 A 
ATOM      8  C   UNL     1      24.806  24.896  26.562  0.00  0.00    +0.000 A 
ATOM      9  C   UNL     1      25.889  24.362  27.232  0.00  0.00    +0.000 A 
ATOM     10  C   UNL     1      26.776  23.547  26.555  0.00  0.00    +0.000 A 
ENDROOT
BRANCH  10  11
ATOM     11  C   UNL     1      26.624  23.240  25.142  0.00  0.00    +0.000 C 
ATOM     12  C   UNL     1      27.285  23.937  24.247  0.00  0.00    +0.000 C 
ATOM     13  S   UNL     1      27.235  23.697  22.435  0.00  0.00    +0.000 S 
ATOM     14  C   UNL     1      28.817  24.491  22.157  0.00  0.00    +0.000 C 
ATOM     15  O   UNL     1      29.574  24.301  21.212  0.00  0.00    +0.000 OA
ATOM     16  N   UNL     1      28.964  25.351  23.251  0.00  0.00    +0.000 NA
ATOM     17  C   UNL     1      28.172  25.087  24.363  0.00  0.00    +0.000 C 
ATOM     18  O   UNL     1      28.204  25.802  25.431  0.00  0.00    +0.000 OA
ENDBRANCH  10  11
BRANCH   1  19
ATOM     19  O   UNL     1      28.729  22.221  26.491  0.00  0.00    +0.000 OA
BRANCH  19  20
ATOM     20  C   UNL     1      30.055  22.225  26.235  0.00  0.00    +0.000 C 
BRANCH  20  22
ATOM     21  C   UNL     1      31.628  23.285  24.633  0.00  0.00    +0.000 C 
ATOM     22  C   UNL     1      30.487  22.340  24.823  0.00  0.00    +0.000 C 
ENDBRANCH  20  22
ENDBRANCH  19  20
ENDBRANCH   1  19
TORSDOF 4
ENDMDL
MODEL 3
REMARK VINA RESULT:      -6.4     17.895     20.391
REMARK  Name = 
REMARK  4 active torsions:
REMARK  status: ('A' for Active; 'I' for Inactive)
REMARK    1  A    between atoms: C_2  and  C_3
REMARK    2  A    between atoms: C_3  and  O_4
REMARK    3  A    between atoms: O_4  and  C_5
REMARK    4  A    between atoms: C_14  and  C_15
REMARK                            x       y       z     vdW  Elec       q    Type
REMARK                         _______ _______ _______ _____ _____    ______ ____
ROOT
ATOM      1  C   UNL     1      16.972  10.708  36.933  0.00  0.00    +0.000 A 
ATOM      2  C   UNL     1      15.751  11.050  37.446  0.00  0.00    +0.000 A 
ATOM      3  C   UNL     1      15.305  10.747  38.685  0.00  0.00    +0.000 A 
ATOM      4  C   UNL     1      16.166  10.019  39.507  0.00  0.00    +0.000 A 
ATOM      5  C   UNL     1      15.744   9.664  40.782  0.00  0.00    +0.000 A 
ATOM      6  C   UNL     1      16.605   8.931  41.555  0.00  0.00    +0.000 A 
ATOM      7  C   UNL     1      17.839   8.555  41.106  0.00  0.00    +0.000 A 
ATOM      8  C   UNL     1      18.248   8.907  39.855  0.00  0.00    +0.000 A 
ATOM      9  C   UNL     1      17.405   9.646  39.049  0.00  0.00    +0.000 A 
ATOM     10  C   UNL     1      17.807   9.987  37.773  0.00  0.00    +0.000 A 
ENDROOT
BRANCH  10  11
ATOM     11  C   UNL     1      19.092   9.578  37.229  0.00  0.00    +0.000 C 
ATOM     12  C   UNL     1      20.152  10.327  37.424  0.00  0.00    +0.000 C 
ATOM     13  S   UNL     1      21.847   9.979  36.832  0.00  0.00    +0.000 S 
ATOM     14  C   UNL     1      22.629  11.020  38.064  0.00  0.00    +0.000 C 
ATOM     15  O   UNL     1      23.772  10.911  38.494  0.00  0.00    +0.000 OA
ATOM     16  N   UNL     1      21.641  11.952  38.399  0.00  0.00    +0.000 NA
ATOM     17  C   UNL     1      20.332  11.618  38.074  0.00  0.00    +0.000 C 
ATOM     18  O   UNL     1      19.331  12.388  38.320  0.00  0.00    +0.000 OA
ENDBRANCH  10  11
BRANCH   1  19
ATOM     19  O   UNL     1      17.411  11.020  35.686  0.00  0.00    +0.000 OA
BRANCH  19  20
ATOM     20  C   UNL     1      16.834  11.502  34.564  0.00  0.00    +0.000 C 
BRANCH  20  22
ATOM     21  C   UNL     1      16.275  10.933  32.213  0.00  0.00    +0.000 C 
ATOM     22  C   UNL     1      16.183  10.536  33.650  0.00  0.00    +0.000 C 
ENDBRANCH  20  22
ENDBRANCH  19  20
ENDBRANCH   1  19
TORSDOF 4
ENDMDL
MODEL 4
REMARK VINA RESULT:      -6.3      4.017      7.352
REMARK  Name = 
REMARK  4 active torsions:
REMARK  status: ('A' for Active; 'I' for Inactive)
REMARK    1  A    between atoms: C_2  and  C_3
REMARK    2  A    between atoms: C_3  and  O_4
REMARK    3  A    between atoms: O_4  and  C_5
REMARK    4  A    between atoms: C_14  and  C_15
REMARK                            x       y       z     vdW  Elec       q    Type
REMARK                         _______ _______ _______ _____ _____    ______ ____
ROOT
ATOM      1  C   UNL     1      24.774  25.260  26.082  0.00  0.00    +0.000 A 
ATOM      2  C   UNL     1      24.669  25.525  27.420  0.00  0.00    +0.000 A 
ATOM      3  C   UNL     1      25.387  24.931  28.398  0.00  0.00    +0.000 A 
ATOM      4  C   UNL     1      26.313  23.963  28.006  0.00  0.00    +0.000 A 
ATOM      5  C   UNL     1      27.060  23.308  28.977  0.00  0.00    +0.000 A 
ATOM      6  C   UNL     1      27.943  22.348  28.560  0.00  0.00    +0.000 A 
ATOM      7  C   UNL     1      28.098  22.033  27.241  0.00  0.00    +0.000 A 
ATOM      8  C   UNL     1      27.365  22.679  26.292  0.00  0.00    +0.000 A 
ATOM      9  C   UNL     1      26.464  23.653  26.678  0.00  0.00    +0.000 A 
ATOM     10  C   UNL     1      25.703  24.295  25.722  0.00  0.00    +0.000 A 
ENDROOT
BRANCH  10  11
ATOM     11  C   UNL     1      25.798  23.970  24.308  0.00  0.00    +0.000 C 
ATOM     12  C   UNL     1      26.759  24.492  23.581  0.00  0.00    +0.000 C 
ATOM     13  S   UNL     1      27.049  24.198  21.799  0.00  0.00    +0.000 S 
ATOM     14  C   UNL     1      28.780  24.660  21.874  0.00  0.00    +0.000 C 
ATOM     15  O   UNL     1      29.668  24.291  21.114  0.00  0.00    +0.000 OA
ATOM     16  N   UNL     1      28.857  25.514  22.979  0.00  0.00    +0.000 NA
ATOM     17  C   UNL     1      27.810  25.451  23.892  0.00  0.00    +0.000 C 
ATOM     18  O   UNL     1      27.755  26.186  24.945  0.00  0.00    +0.000 OA
ENDBRANCH  10  11
BRANCH   1  19
ATOM     19  O   UNL     1      24.049  25.865  25.107  0.00  0.00    +0.000 OA
BRANCH  19  20
ATOM     20  C   UNL     1      23.182  26.900  25.065  0.00  0.00    +0.000 C 
BRANCH  20  22
ATOM     21  C   UNL     1      20.776  27.483  24.884  0.00  0.00    +0.000 C 
ATOM     22  C   UNL     1      21.817  26.682  25.595  0.00  0.00    +0.000 C 
ENDBRANCH  20  22
ENDBRANCH  19  20
ENDBRANCH   1  19
TORSDOF 4
ENDMDL
MODEL 5
REMARK VINA RESULT:      -6.1     17.837     20.004
REMARK  Name = 
REMARK  4 active torsions:
REMARK  status: ('A' for Active; 'I' for Inactive)
REMARK    1  A    between atoms: C_2  and  C_3
REMARK    2  A    between atoms: C_3  and  O_4
REMARK    3  A    between atoms: O_4  and  C_5
REMARK    4  A    between atoms: C_14  and  C_15
REMARK                            x       y       z     vdW  Elec       q    Type
REMARK                         _______ _______ _______ _____ _____    ______ ____
ROOT
ATOM      1  C   UNL     1      16.839  10.211  38.662  0.00  0.00    +0.000 A 
ATOM      2  C   UNL     1      15.582  10.734  38.788  0.00  0.00    +0.000 A 
ATOM      3  C   UNL     1      14.853  11.281  37.790  0.00  0.00    +0.000 A 
ATOM      4  C   UNL     1      15.439  11.315  36.524  0.00  0.00    +0.000 A 
ATOM      5  C   UNL     1      14.739  11.887  35.470  0.00  0.00    +0.000 A 
ATOM      6  C   UNL     1      15.351  11.924  34.245  0.00  0.00    +0.000 A 
ATOM      7  C   UNL     1      16.605  11.421  34.049  0.00  0.00    +0.000 A 
ATOM      8  C   UNL     1      17.288  10.860  35.086  0.00  0.00    +0.000 A 
ATOM      9  C   UNL     1      16.699  10.806  36.334  0.00  0.00    +0.000 A 
ATOM     10  C   UNL     1      17.396  10.257  37.393  0.00  0.00    +0.000 A 
ENDROOT
BRANCH  10  11
ATOM     11  C   UNL     1      18.748   9.744  37.249  0.00  0.00    +0.000 C 
ATOM     12  C   UNL     1      19.773  10.512  37.538  0.00  0.00    +0.000 C 
ATOM     13  S   UNL     1      21.538  10.048  37.432  0.00  0.00    +0.000 S 
ATOM     14  C   UNL     1      22.072  11.307  38.591  0.00  0.00    +0.000 C 
ATOM     15  O   UNL     1      23.081  11.279  39.286  0.00  0.00    +0.000 OA
ATOM     16  N   UNL     1      21.081  12.291  38.504  0.00  0.00    +0.000 NA
ATOM     17  C   UNL     1      19.864  11.905  37.954  0.00  0.00    +0.000 C 
ATOM     18  O   UNL     1      18.874  12.712  37.811  0.00  0.00    +0.000 OA
ENDBRANCH  10  11
BRANCH   1  19
ATOM     19  O   UNL     1      17.561   9.661  39.672  0.00  0.00    +0.000 OA
BRANCH  19  20
ATOM     20  C   UNL     1      17.503   8.505  40.368  0.00  0.00    +0.000 C 
BRANCH  20  22
ATOM     21  C   UNL     1      16.513   9.706  42.302  0.00  0.00    +0.000 C 
ATOM     22  C   UNL     1      17.392   8.589  41.842  0.00  0.00    +0.000 C 
ENDBRANCH  20  22
ENDBRANCH  19  20
ENDBRANCH   1  19
TORSDOF 4
ENDMDL
MODEL 6
REMARK VINA RESULT:      -6.0      3.093      4.390
REMARK  Name = 
REMARK  4 active torsions:
REMARK  status: ('A' for Active; 'I' for Inactive)
REMARK    1  A    between atoms: C_2  and  C_3
REMARK    2  A    between atoms: C_3  and  O_4
REMARK    3  A    between atoms: O_4  and  C_5
REMARK    4  A    between atoms: C_14  and  C_15
REMARK                            x       y       z     vdW  Elec       q    Type
REMARK                         _______ _______ _______ _____ _____    ______ ____
ROOT
ATOM      1  C   UNL     1      29.216  22.440  26.204  0.00  0.00    +0.000 A 
ATOM      2  C   UNL     1      27.868  22.409  26.434  0.00  0.00    +0.000 A 
ATOM      3  C   UNL     1      26.910  22.758  25.548  0.00  0.00    +0.000 A 
ATOM      4  C   UNL     1      27.337  23.188  24.291  0.00  0.00    +0.000 A 
ATOM      5  C   UNL     1      26.391  23.578  23.352  0.00  0.00    +0.000 A 
ATOM      6  C   UNL     1      26.844  24.015  22.135  0.00  0.00    +0.000 A 
ATOM      7  C   UNL     1      28.176  24.072  21.839  0.00  0.00    +0.000 A 
ATOM      8  C   UNL     1      29.100  23.687  22.762  0.00  0.00    +0.000 A 
ATOM      9  C   UNL     1      28.677  23.240  23.999  0.00  0.00    +0.000 A 
ATOM     10  C   UNL     1      29.611  22.869  24.946  0.00  0.00    +0.000 A 
ENDROOT
BRANCH  10  11
ATOM     11  C   UNL     1      31.041  22.948  24.698  0.00  0.00    +0.000 C 
ATOM     12  C   UNL     1      31.709  24.019  25.059  0.00  0.00    +0.000 C 
ATOM     13  S   UNL     1      33.503  24.300  24.843  0.00  0.00    +0.000 S 
ATOM     14  C   UNL     1      33.598  25.528  26.145  0.00  0.00    +0.000 C 
ATOM     15  O   UNL     1      34.590  25.821  26.803  0.00  0.00    +0.000 OA
ATOM     16  N   UNL     1      32.301  26.048  26.219  0.00  0.00    +0.000 NA
ATOM     17  C   UNL     1      31.288  25.280  25.656  0.00  0.00    +0.000 C 
ATOM     18  O   UNL     1      30.055  25.644  25.649  0.00  0.00    +0.000 OA
ENDBRANCH  10  11
BRANCH   1  19
ATOM     19  O   UNL     1      30.171  22.085  27.102  0.00  0.00    +0.000 OA
BRANCH  19  20
ATOM     20  C   UNL     1      30.598  22.576  28.285  0.00  0.00    +0.000 C 
BRANCH  20  22
ATOM     21  C   UNL     1      32.399  23.942  29.310  0.00  0.00    +0.000 C 
ATOM     22  C   UNL     1      32.056  22.752  28.477  0.00  0.00    +0.000 C 
ENDBRANCH  20  22
ENDBRANCH  19  20
ENDBRANCH   1  19
TORSDOF 4
ENDMDL
MODEL 7
REMARK VINA RESULT:      -5.9     32.988     33.957
REMARK  Name = 
REMARK  4 active torsions:
REMARK  status: ('A' for Active; 'I' for Inactive)
REMARK    1  A    between atoms: C_2  and  C_3
REMARK    2  A    between atoms: C_3  and  O_4
REMARK    3  A    between atoms: O_4  and  C_5
REMARK    4  A    between atoms: C_14  and  C_15
REMARK                            x       y       z     vdW  Elec       q    Type
REMARK                         _______ _______ _______ _____ _____    ______ ____
ROOT
ATOM      1  C   UNL     1      20.009  -9.917  26.246  0.00  0.00    +0.000 A 
ATOM      2  C   UNL     1      21.027  -9.243  25.629  0.00  0.00    +0.000 A 
ATOM      3  C   UNL     1      21.106  -7.903  25.480  0.00  0.00    +0.000 A 
ATOM      4  C   UNL     1      20.055  -7.145  25.999  0.00  0.00    +0.000 A 
ATOM      5  C   UNL     1      20.080  -5.764  25.851  0.00  0.00    +0.000 A 
ATOM      6  C   UNL     1      19.023  -5.052  26.352  0.00  0.00    +0.000 A 
ATOM      7  C   UNL     1      17.973  -5.660  26.978  0.00  0.00    +0.000 A 
ATOM      8  C   UNL     1      17.954  -7.015  27.122  0.00  0.00    +0.000 A 
ATOM      9  C   UNL     1      19.005  -7.764  26.628  0.00  0.00    +0.000 A 
ATOM     10  C   UNL     1      18.980  -9.139  26.753  0.00  0.00    +0.000 A 
ENDROOT
BRANCH  10  11
ATOM     11  C   UNL     1      17.869  -9.841  27.374  0.00  0.00    +0.000 C 
ATOM     12  C   UNL     1      17.880 -10.067  28.668  0.00  0.00    +0.000 C 
ATOM     13  S   UNL     1      16.578 -10.920  29.628  0.00  0.00    +0.000 S 
ATOM     14  C   UNL     1      17.057 -10.171  31.185  0.00  0.00    +0.000 C 
ATOM     15  O   UNL     1      16.337  -9.991  32.161  0.00  0.00    +0.000 OA
ATOM     16  N   UNL     1      18.409  -9.855  31.010  0.00  0.00    +0.000 NA
ATOM     17  C   UNL     1      18.870  -9.795  29.700  0.00  0.00    +0.000 C 
ATOM     18  O   UNL     1      20.091  -9.522  29.400  0.00  0.00    +0.000 OA
ENDBRANCH  10  11
BRANCH   1  19
ATOM     19  O   UNL     1      19.941 -11.266  26.392  0.00  0.00    +0.000 OA
BRANCH  19  20
ATOM     20  C   UNL     1      20.724 -12.203  26.968  0.00  0.00    +0.000 C 
BRANCH  20  22
ATOM     21  C   UNL     1      18.632 -13.485  27.348  0.00  0.00    +0.000 C 
ATOM     22  C   UNL     1      20.061 -13.284  27.734  0.00  0.00    +0.000 C 
ENDBRANCH  20  22
ENDBRANCH  19  20
ENDBRANCH   1  19
TORSDOF 4
ENDMDL
MODEL 8
REMARK VINA RESULT:      -5.9     16.436     19.179
REMARK  Name = 
REMARK  4 active torsions:
REMARK  status: ('A' for Active; 'I' for Inactive)
REMARK    1  A    between atoms: C_2  and  C_3
REMARK    2  A    between atoms: C_3  and  O_4
REMARK    3  A    between atoms: O_4  and  C_5
REMARK    4  A    between atoms: C_14  and  C_15
REMARK                            x       y       z     vdW  Elec       q    Type
REMARK                         _______ _______ _______ _____ _____    ______ ____
ROOT
ATOM      1  C   UNL     1      12.152  21.699  20.756  0.00  0.00    +0.000 A 
ATOM      2  C   UNL     1      13.413  21.605  20.235  0.00  0.00    +0.000 A 
ATOM      3  C   UNL     1      14.407  22.502  20.414  0.00  0.00    +0.000 A 
ATOM      4  C   UNL     1      14.117  23.620  21.197  0.00  0.00    +0.000 A 
ATOM      5  C   UNL     1      15.100  24.582  21.392  0.00  0.00    +0.000 A 
ATOM      6  C   UNL     1      14.776  25.678  22.148  0.00  0.00    +0.000 A 
ATOM      7  C   UNL     1      13.537  25.835  22.698  0.00  0.00    +0.000 A 
ATOM      8  C   UNL     1      12.577  24.889  22.505  0.00  0.00    +0.000 A 
ATOM      9  C   UNL     1      12.870  23.771  21.748  0.00  0.00    +0.000 A 
ATOM     10  C   UNL     1      11.893  22.819  21.532  0.00  0.00    +0.000 A 
ENDROOT
BRANCH  10  11
ATOM     11  C   UNL     1      10.545  22.956  22.059  0.00  0.00    +0.000 C 
ATOM     12  C   UNL     1       9.598  23.466  21.307  0.00  0.00    +0.000 C 
ATOM     13  S   UNL     1       7.850  23.709  21.785  0.00  0.00    +0.000 S 
ATOM     14  C   UNL     1       7.258  23.742  20.093  0.00  0.00    +0.000 C 
ATOM     15  O   UNL     1       6.130  23.458  19.708  0.00  0.00    +0.000 OA
ATOM     16  N   UNL     1       8.370  24.157  19.351  0.00  0.00    +0.000 NA
ATOM     17  C   UNL     1       9.611  24.026  19.962  0.00  0.00    +0.000 C 
ATOM     18  O   UNL     1      10.711  24.376  19.394  0.00  0.00    +0.000 OA
ENDBRANCH  10  11
BRANCH   1  19
ATOM     19  O   UNL     1      11.161  20.789  20.571  0.00  0.00    +0.000 OA
BRANCH  19  20
ATOM     20  C   UNL     1      11.065  19.596  19.946  0.00  0.00    +0.000 C 
BRANCH  20  22
ATOM     21  C   UNL     1       8.768  20.285  19.302  0.00  0.00    +0.000 C 
ATOM     22  C   UNL     1       9.723  19.154  19.500  0.00  0.00    +0.000 C 
ENDBRANCH  20  22
ENDBRANCH  19  20
ENDBRANCH   1  19
TORSDOF 4
ENDMDL
MODEL 9
REMARK VINA RESULT:      -5.8      3.168      5.924
REMARK  Name = 
REMARK  4 active torsions:
REMARK  status: ('A' for Active; 'I' for Inactive)
REMARK    1  A    between atoms: C_2  and  C_3
REMARK    2  A    between atoms: C_3  and  O_4
REMARK    3  A    between atoms: O_4  and  C_5
REMARK    4  A    between atoms: C_14  and  C_15
REMARK                            x       y       z     vdW  Elec       q    Type
REMARK                         _______ _______ _______ _____ _____    ______ ____
ROOT
ATOM      1  C   UNL     1      26.682  23.676  25.332  0.00  0.00    +0.000 A 
ATOM      2  C   UNL     1      25.533  24.124  25.924  0.00  0.00    +0.000 A 
ATOM      3  C   UNL     1      25.292  24.151  27.253  0.00  0.00    +0.000 A 
ATOM      4  C   UNL     1      26.303  23.679  28.090  0.00  0.00    +0.000 A 
ATOM      5  C   UNL     1      26.094  23.666  29.463  0.00  0.00    +0.000 A 
ATOM      6  C   UNL     1      27.099  23.177  30.254  0.00  0.00    +0.000 A 
ATOM      7  C   UNL     1      28.272  22.714  29.730  0.00  0.00    +0.000 A 
ATOM      8  C   UNL     1      28.472  22.729  28.383  0.00  0.00    +0.000 A 
ATOM      9  C   UNL     1      27.480  23.217  27.556  0.00  0.00    +0.000 A 
ATOM     10  C   UNL     1      27.670  23.215  26.188  0.00  0.00    +0.000 A 
ENDROOT
BRANCH  10  11
ATOM     11  C   UNL     1      28.882  22.696  25.574  0.00  0.00    +0.000 C 
ATOM     12  C   UNL     1      29.905  23.495  25.371  0.00  0.00    +0.000 C 
ATOM     13  S   UNL     1      31.509  23.030  24.625  0.00  0.00    +0.000 S 
ATOM     14  C   UNL     1      32.396  24.399  25.367  0.00  0.00    +0.000 C 
ATOM     15  O   UNL     1      33.595  24.445  25.613  0.00  0.00    +0.000 OA
ATOM     16  N   UNL     1      31.408  25.366  25.587  0.00  0.00    +0.000 NA
ATOM     17  C   UNL     1      30.091  24.922  25.592  0.00  0.00    +0.000 C 
ATOM     18  O   UNL     1      29.089  25.707  25.776  0.00  0.00    +0.000 OA
ENDBRANCH  10  11
BRANCH   1  19
ATOM     19  O   UNL     1      26.914  23.656  23.994  0.00  0.00    +0.000 OA
BRANCH  19  20
ATOM     20  C   UNL     1      27.097  24.597  23.043  0.00  0.00    +0.000 C 
BRANCH  20  22
ATOM     21  C   UNL     1      29.297  24.770  21.906  0.00  0.00    +0.000 C 
ATOM     22  C   UNL     1      27.904  24.233  21.855  0.00  0.00    +0.000 C 
ENDBRANCH  20  22
ENDBRANCH  19  20
ENDBRANCH   1  19
TORSDOF 4
ENDMDL
MODEL 10
REMARK VINA RESULT:      -5.8      2.719      3.594
REMARK  Name = 
REMARK  4 active torsions:
REMARK  status: ('A' for Active; 'I' for Inactive)
REMARK    1  A    between atoms: C_2  and  C_3
REMARK    2  A    between atoms: C_3  and  O_4
REMARK    3  A    between atoms: O_4  and  C_5
REMARK    4  A    between atoms: C_14  and  C_15
REMARK                            x       y       z     vdW  Elec       q    Type
REMARK                         _______ _______ _______ _____ _____    ______ ____
ROOT
ATOM      1  C   UNL     1      28.170  22.737  25.912  0.00  0.00    +0.000 A 
ATOM      2  C   UNL     1      29.402  22.443  25.398  0.00  0.00    +0.000 A 
ATOM      3  C   UNL     1      29.896  22.901  24.227  0.00  0.00    +0.000 A 
ATOM      4  C   UNL     1      29.074  23.745  23.480  0.00  0.00    +0.000 A 
ATOM      5  C   UNL     1      29.529  24.225  22.258  0.00  0.00    +0.000 A 
ATOM      6  C   UNL     1      28.688  25.034  21.540  0.00  0.00    +0.000 A 
ATOM      7  C   UNL     1      27.444  25.368  21.993  0.00  0.00    +0.000 A 
ATOM      8  C   UNL     1      27.004  24.896  23.193  0.00  0.00    +0.000 A 
ATOM      9  C   UNL     1      27.826  24.078  23.943  0.00  0.00    +0.000 A 
ATOM     10  C   UNL     1      27.375  23.580  25.149  0.00  0.00    +0.000 A 
ENDROOT
BRANCH  10  11
ATOM     11  C   UNL     1      26.045  23.870  25.660  0.00  0.00    +0.000 C 
ATOM     12  C   UNL     1      25.845  24.943  26.389  0.00  0.00    +0.000 C 
ATOM     13  S   UNL     1      24.253  25.480  27.110  0.00  0.00    +0.000 S 
ATOM     14  C   UNL     1      24.752  27.196  27.259  0.00  0.00    +0.000 C 
ATOM     15  O   UNL     1      24.012  28.172  27.282  0.00  0.00    +0.000 OA
ATOM     16  N   UNL     1      26.148  27.138  27.338  0.00  0.00    +0.000 NA
ATOM     17  C   UNL     1      26.750  25.968  26.891  0.00  0.00    +0.000 C 
ATOM     18  O   UNL     1      28.023  25.783  26.914  0.00  0.00    +0.000 OA
ENDBRANCH  10  11
BRANCH   1  19
ATOM     19  O   UNL     1      27.684  22.272  27.092  0.00  0.00    +0.000 OA
BRANCH  19  20
ATOM     20  C   UNL     1      27.951  22.512  28.394  0.00  0.00    +0.000 C 
BRANCH  20  22
ATOM     21  C   UNL     1      26.557  21.794  30.319  0.00  0.00    +0.000 C 
ATOM     22  C   UNL     1      26.814  22.841  29.284  0.00  0.00    +0.000 C 
ENDBRANCH  20  22
ENDBRANCH  19  20
ENDBRANCH   1  19
TORSDOF 4
ENDMDL
