MODEL 1
REMARK VINA RESULT:      -8.6      0.000      0.000
REMARK  Name = 
REMARK  3 active torsions:
REMARK  status: ('A' for Active; 'I' for Inactive)
REMARK    1  A    between atoms: C_2  and  C_10
REMARK    2  A    between atoms: N_3  and  C_4
REMARK    3  A    between atoms: C_4  and  C_5
REMARK                            x       y       z     vdW  Elec       q    Type
REMARK                         _______ _______ _______ _____ _____    ______ ____
ROOT
ATOM      1  C   UNL     1      17.436  10.563  35.546  0.00  0.00    +0.000 A 
ATOM      2  C   UNL     1      17.824   9.908  34.403  0.00  0.00    +0.000 A 
ATOM      3  C   UNL     1      17.213  10.205  33.211  0.00  0.00    +0.000 A 
ATOM      4  C   UNL     1      16.214  11.155  33.168  0.00  0.00    +0.000 A 
ATOM      5  N   UNL     1      15.477  11.612  32.141  0.00  0.00    +0.000 NA
ATOM      6  C   UNL     1      14.631  12.534  32.574  0.00  0.00    +0.000 A 
ATOM      7  C   UNL     1      14.790  12.713  33.931  0.00  0.00    +0.000 A 
ATOM      8  C   UNL     1      15.791  11.843  34.310  0.00  0.00    +0.000 A 
ATOM      9  C   UNL     1      16.436  11.512  35.490  0.00  0.00    +0.000 A 
ATOM     10  C   UNL     1      14.017  13.659  34.750  0.00  0.00    +0.000 C 
ATOM     11  C   UNL     1      13.251  14.662  33.955  0.00  0.00    +0.000 C 
ATOM     12  C   UNL     1      13.620  14.721  32.511  0.00  0.00    +0.000 C 
ATOM     13  C   UNL     1      13.611  13.342  31.864  0.00  0.00    +0.000 C 
ENDROOT
BRANCH   1  15
ATOM     14  O   UNL     1      19.330   9.904  36.769  0.00  0.00    +0.000 OA
ATOM     15  C   UNL     1      18.111  10.216  36.789  0.00  0.00    +0.000 C 
ATOM     16  N   UNL     1      17.435  10.218  38.030  0.00  0.00    +0.000 NA
BRANCH  16  17
ATOM     17  C   UNL     1      18.080   9.879  39.273  0.00  0.00    +0.000 C 
BRANCH  17  18
ATOM     18  C   UNL     1      17.165   9.105  40.141  0.00  0.00    +0.000 A 
ATOM     19  C   UNL     1      15.944   9.502  40.672  0.00  0.00    +0.000 A 
ATOM     20  C   UNL     1      15.463   8.434  41.419  0.00  0.00    +0.000 A 
ATOM     21  C   UNL     1      16.421   7.439  41.301  0.00  0.00    +0.000 A 
ATOM     22  O   UNL     1      17.389   7.879  40.548  0.00  0.00    +0.000 OA
ENDBRANCH  17  18
ENDBRANCH  16  17
ENDBRANCH   1  15
TORSDOF 3
ENDMDL
MODEL 2
REMARK VINA RESULT:      -8.1      1.511      2.470
REMARK  Name = 
REMARK  3 active torsions:
REMARK  status: ('A' for Active; 'I' for Inactive)
REMARK    1  A    between atoms: C_2  and  C_10
REMARK    2  A    between atoms: N_3  and  C_4
REMARK    3  A    between atoms: C_4  and  C_5
REMARK                            x       y       z     vdW  Elec       q    Type
REMARK                         _______ _______ _______ _____ _____    ______ ____
ROOT
ATOM      1  C   UNL     1      16.669  10.745  36.483  0.00  0.00    +0.000 A 
ATOM      2  C   UNL     1      15.836  11.402  37.355  0.00  0.00    +0.000 A 
ATOM      3  C   UNL     1      14.920  12.301  36.871  0.00  0.00    +0.000 A 
ATOM      4  C   UNL     1      14.840  12.539  35.514  0.00  0.00    +0.000 A 
ATOM      5  N   UNL     1      14.041  13.357  34.809  0.00  0.00    +0.000 NA
ATOM      6  C   UNL     1      14.322  13.256  33.519  0.00  0.00    +0.000 A 
ATOM      7  C   UNL     1      15.341  12.345  33.335  0.00  0.00    +0.000 A 
ATOM      8  C   UNL     1      15.670  11.889  34.595  0.00  0.00    +0.000 A 
ATOM      9  C   UNL     1      16.580  10.991  35.128  0.00  0.00    +0.000 A 
ATOM     10  C   UNL     1      15.913  11.978  32.031  0.00  0.00    +0.000 C 
ATOM     11  C   UNL     1      15.097  12.422  30.865  0.00  0.00    +0.000 C 
ATOM     12  C   UNL     1      13.726  12.895  31.212  0.00  0.00    +0.000 C 
ATOM     13  C   UNL     1      13.745  13.929  32.331  0.00  0.00    +0.000 C 
ENDROOT
BRANCH   1  15
ATOM     14  O   UNL     1      18.301   9.068  36.270  0.00  0.00    +0.000 OA
ATOM     15  C   UNL     1      17.626   9.800  37.041  0.00  0.00    +0.000 C 
ATOM     16  N   UNL     1      17.824   9.676  38.434  0.00  0.00    +0.000 NA
BRANCH  16  17
ATOM     17  C   UNL     1      18.765   8.749  39.011  0.00  0.00    +0.000 C 
BRANCH  17  18
ATOM     18  C   UNL     1      18.078   7.814  39.930  0.00  0.00    +0.000 A 
ATOM     19  C   UNL     1      18.421   6.503  40.236  0.00  0.00    +0.000 A 
ATOM     20  C   UNL     1      17.477   6.041  41.145  0.00  0.00    +0.000 A 
ATOM     21  C   UNL     1      16.605   7.100  41.343  0.00  0.00    +0.000 A 
ATOM     22  O   UNL     1      16.999   8.106  40.615  0.00  0.00    +0.000 OA
ENDBRANCH  17  18
ENDBRANCH  16  17
ENDBRANCH   1  15
TORSDOF 3
ENDMDL
MODEL 3
REMARK VINA RESULT:      -7.3      2.712      4.150
REMARK  Name = 
REMARK  3 active torsions:
REMARK  status: ('A' for Active; 'I' for Inactive)
REMARK    1  A    between atoms: C_2  and  C_10
REMARK    2  A    between atoms: N_3  and  C_4
REMARK    3  A    between atoms: C_4  and  C_5
REMARK                            x       y       z     vdW  Elec       q    Type
REMARK                         _______ _______ _______ _____ _____    ______ ____
ROOT
ATOM      1  C   UNL     1      17.419   9.913  39.360  0.00  0.00    +0.000 A 
ATOM      2  C   UNL     1      18.462  10.471  38.663  0.00  0.00    +0.000 A 
ATOM      3  C   UNL     1      18.203  11.288  37.592  0.00  0.00    +0.000 A 
ATOM      4  C   UNL     1      16.898  11.543  37.221  0.00  0.00    +0.000 A 
ATOM      5  N   UNL     1      16.397  12.295  36.227  0.00  0.00    +0.000 NA
ATOM      6  C   UNL     1      15.074  12.245  36.253  0.00  0.00    +0.000 A 
ATOM      7  C   UNL     1      14.658  11.439  37.290  0.00  0.00    +0.000 A 
ATOM      8  C   UNL     1      15.809  10.994  37.905  0.00  0.00    +0.000 A 
ATOM      9  C   UNL     1      16.118  10.176  38.980  0.00  0.00    +0.000 A 
ATOM     10  C   UNL     1      13.253  11.155  37.621  0.00  0.00    +0.000 C 
ATOM     11  C   UNL     1      12.278  12.060  36.951  0.00  0.00    +0.000 C 
ATOM     12  C   UNL     1      12.887  13.258  36.303  0.00  0.00    +0.000 C 
ATOM     13  C   UNL     1      14.050  12.883  35.392  0.00  0.00    +0.000 C 
ENDROOT
BRANCH   1  15
ATOM     14  O   UNL     1      18.615   9.414  41.319  0.00  0.00    +0.000 OA
ATOM     15  C   UNL     1      17.740   9.052  40.490  0.00  0.00    +0.000 C 
ATOM     16  N   UNL     1      17.096   7.810  40.687  0.00  0.00    +0.000 NA
BRANCH  16  17
ATOM     17  C   UNL     1      17.396   6.940  41.796  0.00  0.00    +0.000 C 
BRANCH  17  18
ATOM     18  C   UNL     1      18.239   5.806  41.355  0.00  0.00    +0.000 A 
ATOM     19  C   UNL     1      18.480   4.608  42.016  0.00  0.00    +0.000 A 
ATOM     20  C   UNL     1      19.332   3.867  41.206  0.00  0.00    +0.000 A 
ATOM     21  C   UNL     1      19.565   4.657  40.092  0.00  0.00    +0.000 A 
ATOM     22  O   UNL     1      18.906   5.773  40.227  0.00  0.00    +0.000 OA
ENDBRANCH  17  18
ENDBRANCH  16  17
ENDBRANCH   1  15
TORSDOF 3
ENDMDL
MODEL 4
REMARK VINA RESULT:      -7.3     20.949     23.406
REMARK  Name = 
REMARK  3 active torsions:
REMARK  status: ('A' for Active; 'I' for Inactive)
REMARK    1  A    between atoms: C_2  and  C_10
REMARK    2  A    between atoms: N_3  and  C_4
REMARK    3  A    between atoms: C_4  and  C_5
REMARK                            x       y       z     vdW  Elec       q    Type
REMARK                         _______ _______ _______ _____ _____    ______ ____
ROOT
ATOM      1  C   UNL     1      33.216  -4.056  33.761  0.00  0.00    +0.000 A 
ATOM      2  C   UNL     1      32.692  -4.112  35.029  0.00  0.00    +0.000 A 
ATOM      3  C   UNL     1      32.555  -2.959  35.759  0.00  0.00    +0.000 A 
ATOM      4  C   UNL     1      32.945  -1.752  35.216  0.00  0.00    +0.000 A 
ATOM      5  N   UNL     1      32.912  -0.508  35.723  0.00  0.00    +0.000 NA
ATOM      6  C   UNL     1      33.393   0.349  34.835  0.00  0.00    +0.000 A 
ATOM      7  C   UNL     1      33.766  -0.324  33.692  0.00  0.00    +0.000 A 
ATOM      8  C   UNL     1      33.482  -1.653  33.929  0.00  0.00    +0.000 A 
ATOM      9  C   UNL     1      33.602  -2.842  33.229  0.00  0.00    +0.000 A 
ATOM     10  C   UNL     1      34.340   0.308  32.495  0.00  0.00    +0.000 C 
ATOM     11  C   UNL     1      34.202   1.792  32.468  0.00  0.00    +0.000 C 
ATOM     12  C   UNL     1      33.269   2.346  33.491  0.00  0.00    +0.000 C 
ATOM     13  C   UNL     1      33.576   1.819  34.888  0.00  0.00    +0.000 C 
ENDROOT
BRANCH   1  15
ATOM     14  O   UNL     1      32.350  -6.070  32.919  0.00  0.00    +0.000 OA
ATOM     15  C   UNL     1      33.343  -5.305  33.023  0.00  0.00    +0.000 C 
ATOM     16  N   UNL     1      34.559  -5.690  32.414  0.00  0.00    +0.000 NA
BRANCH  16  17
ATOM     17  C   UNL     1      34.711  -6.920  31.679  0.00  0.00    +0.000 C 
BRANCH  17  18
ATOM     18  C   UNL     1      34.414  -6.710  30.245  0.00  0.00    +0.000 A 
ATOM     19  C   UNL     1      33.948  -5.557  29.625  0.00  0.00    +0.000 A 
ATOM     20  C   UNL     1      33.824  -5.850  28.272  0.00  0.00    +0.000 A 
ATOM     21  C   UNL     1      34.221  -7.171  28.142  0.00  0.00    +0.000 A 
ATOM     22  O   UNL     1      34.555  -7.624  29.317  0.00  0.00    +0.000 OA
ENDBRANCH  17  18
ENDBRANCH  16  17
ENDBRANCH   1  15
TORSDOF 3
ENDMDL
MODEL 5
REMARK VINA RESULT:      -7.1     20.956     23.488
REMARK  Name = 
REMARK  3 active torsions:
REMARK  status: ('A' for Active; 'I' for Inactive)
REMARK    1  A    between atoms: C_2  and  C_10
REMARK    2  A    between atoms: N_3  and  C_4
REMARK    3  A    between atoms: C_4  and  C_5
REMARK                            x       y       z     vdW  Elec       q    Type
REMARK                         _______ _______ _______ _____ _____    ______ ____
ROOT
ATOM      1  C   UNL     1      33.117  -3.984  33.705  0.00  0.00    +0.000 A 
ATOM      2  C   UNL     1      32.223  -4.801  34.353  0.00  0.00    +0.000 A 
ATOM      3  C   UNL     1      31.728  -5.907  33.712  0.00  0.00    +0.000 A 
ATOM      4  C   UNL     1      32.128  -6.193  32.423  0.00  0.00    +0.000 A 
ATOM      5  N   UNL     1      31.791  -7.199  31.599  0.00  0.00    +0.000 NA
ATOM      6  C   UNL     1      32.429  -7.066  30.446  0.00  0.00    +0.000 A 
ATOM      7  C   UNL     1      33.224  -5.940  30.481  0.00  0.00    +0.000 A 
ATOM      8  C   UNL     1      33.036  -5.386  31.730  0.00  0.00    +0.000 A 
ATOM      9  C   UNL     1      33.510  -4.280  32.416  0.00  0.00    +0.000 A 
ATOM     10  C   UNL     1      34.077  -5.480  29.374  0.00  0.00    +0.000 C 
ATOM     11  C   UNL     1      34.280  -6.497  28.303  0.00  0.00    +0.000 C 
ATOM     12  C   UNL     1      33.837  -7.874  28.664  0.00  0.00    +0.000 C 
ATOM     13  C   UNL     1      32.415  -7.890  29.214  0.00  0.00    +0.000 C 
ENDROOT
BRANCH   1  15
ATOM     14  O   UNL     1      34.697  -2.900  35.064  0.00  0.00    +0.000 OA
ATOM     15  C   UNL     1      33.617  -2.820  34.423  0.00  0.00    +0.000 C 
ATOM     16  N   UNL     1      32.920  -1.590  34.425  0.00  0.00    +0.000 NA
BRANCH  16  17
ATOM     17  C   UNL     1      33.393  -0.425  35.128  0.00  0.00    +0.000 C 
BRANCH  17  18
ATOM     18  C   UNL     1      33.591   0.704  34.192  0.00  0.00    +0.000 A 
ATOM     19  C   UNL     1      33.917   0.653  32.842  0.00  0.00    +0.000 A 
ATOM     20  C   UNL     1      33.993   1.966  32.396  0.00  0.00    +0.000 A 
ATOM     21  C   UNL     1      33.709   2.750  33.503  0.00  0.00    +0.000 A 
ATOM     22  O   UNL     1      33.482   1.968  34.521  0.00  0.00    +0.000 OA
ENDBRANCH  17  18
ENDBRANCH  16  17
ENDBRANCH   1  15
TORSDOF 3
ENDMDL
MODEL 6
REMARK VINA RESULT:      -7.0     20.014     22.635
REMARK  Name = 
REMARK  3 active torsions:
REMARK  status: ('A' for Active; 'I' for Inactive)
REMARK    1  A    between atoms: C_2  and  C_10
REMARK    2  A    between atoms: N_3  and  C_4
REMARK    3  A    between atoms: C_4  and  C_5
REMARK                            x       y       z     vdW  Elec       q    Type
REMARK                         _______ _______ _______ _____ _____    ______ ____
ROOT
ATOM      1  C   UNL     1      29.184  23.252  24.482  0.00  0.00    +0.000 A 
ATOM      2  C   UNL     1      30.469  22.843  24.745  0.00  0.00    +0.000 A 
ATOM      3  C   UNL     1      30.834  22.537  26.031  0.00  0.00    +0.000 A 
ATOM      4  C   UNL     1      29.911  22.641  27.051  0.00  0.00    +0.000 A 
ATOM      5  N   UNL     1      30.025  22.402  28.369  0.00  0.00    +0.000 NA
ATOM      6  C   UNL     1      28.868  22.639  28.968  0.00  0.00    +0.000 A 
ATOM      7  C   UNL     1      27.938  23.052  28.037  0.00  0.00    +0.000 A 
ATOM      8  C   UNL     1      28.594  23.053  26.825  0.00  0.00    +0.000 A 
ATOM      9  C   UNL     1      28.270  23.352  25.511  0.00  0.00    +0.000 A 
ATOM     10  C   UNL     1      26.542  23.402  28.344  0.00  0.00    +0.000 C 
ATOM     11  C   UNL     1      26.094  22.973  29.699  0.00  0.00    +0.000 C 
ATOM     12  C   UNL     1      27.019  22.027  30.388  0.00  0.00    +0.000 C 
ATOM     13  C   UNL     1      28.457  22.534  30.388  0.00  0.00    +0.000 C 
ENDROOT
BRANCH   1  15
ATOM     14  O   UNL     1      27.842  23.017  22.569  0.00  0.00    +0.000 OA
ATOM     15  C   UNL     1      28.841  23.567  23.103  0.00  0.00    +0.000 C 
ATOM     16  N   UNL     1      29.601  24.478  22.336  0.00  0.00    +0.000 NA
BRANCH  16  17
ATOM     17  C   UNL     1      29.283  24.806  20.969  0.00  0.00    +0.000 C 
BRANCH  17  18
ATOM     18  C   UNL     1      29.351  26.269  20.755  0.00  0.00    +0.000 A 
ATOM     19  C   UNL     1      29.829  26.953  19.645  0.00  0.00    +0.000 A 
ATOM     20  C   UNL     1      29.686  28.309  19.914  0.00  0.00    +0.000 A 
ATOM     21  C   UNL     1      29.126  28.377  21.180  0.00  0.00    +0.000 A 
ATOM     22  O   UNL     1      28.950  27.165  21.624  0.00  0.00    +0.000 OA
ENDBRANCH  17  18
ENDBRANCH  16  17
ENDBRANCH   1  15
TORSDOF 3
ENDMDL
MODEL 7
REMARK VINA RESULT:      -6.9     18.677     20.270
REMARK  Name = 
REMARK  3 active torsions:
REMARK  status: ('A' for Active; 'I' for Inactive)
REMARK    1  A    between atoms: C_2  and  C_10
REMARK    2  A    between atoms: N_3  and  C_4
REMARK    3  A    between atoms: C_4  and  C_5
REMARK                            x       y       z     vdW  Elec       q    Type
REMARK                         _______ _______ _______ _____ _____    ______ ____
ROOT
ATOM      1  C   UNL     1      34.271   4.706  35.561  0.00  0.00    +0.000 A 
ATOM      2  C   UNL     1      33.999   4.892  34.228  0.00  0.00    +0.000 A 
ATOM      3  C   UNL     1      33.638   3.819  33.453  0.00  0.00    +0.000 A 
ATOM      4  C   UNL     1      33.550   2.563  34.016  0.00  0.00    +0.000 A 
ATOM      5  N   UNL     1      33.223   1.377  33.476  0.00  0.00    +0.000 NA
ATOM      6  C   UNL     1      33.272   0.433  34.404  0.00  0.00    +0.000 A 
ATOM      7  C   UNL     1      33.643   0.986  35.611  0.00  0.00    +0.000 A 
ATOM      8  C   UNL     1      33.818   2.333  35.369  0.00  0.00    +0.000 A 
ATOM      9  C   UNL     1      34.179   3.444  36.113  0.00  0.00    +0.000 A 
ATOM     10  C   UNL     1      33.798   0.235  36.866  0.00  0.00    +0.000 C 
ATOM     11  C   UNL     1      33.213  -1.135  36.828  0.00  0.00    +0.000 C 
ATOM     12  C   UNL     1      32.333  -1.402  35.653  0.00  0.00    +0.000 C 
ATOM     13  C   UNL     1      33.006  -1.024  34.339  0.00  0.00    +0.000 C 
ENDROOT
BRANCH   1  15
ATOM     14  O   UNL     1      35.573   5.777  37.196  0.00  0.00    +0.000 OA
ATOM     15  C   UNL     1      34.651   5.873  36.346  0.00  0.00    +0.000 C 
ATOM     16  N   UNL     1      34.009   7.121  36.182  0.00  0.00    +0.000 NA
BRANCH  16  17
ATOM     17  C   UNL     1      34.366   8.290  36.945  0.00  0.00    +0.000 C 
BRANCH  17  18
ATOM     18  C   UNL     1      34.917   9.342  36.062  0.00  0.00    +0.000 A 
ATOM     19  C   UNL     1      34.352  10.566  35.729  0.00  0.00    +0.000 A 
ATOM     20  C   UNL     1      35.243  11.201  34.873  0.00  0.00    +0.000 A 
ATOM     21  C   UNL     1      36.307  10.325  34.729  0.00  0.00    +0.000 A 
ATOM     22  O   UNL     1      36.068   9.260  35.442  0.00  0.00    +0.000 OA
ENDBRANCH  17  18
ENDBRANCH  16  17
ENDBRANCH   1  15
TORSDOF 3
ENDMDL
MODEL 8
REMARK VINA RESULT:      -6.8      2.395      8.747
REMARK  Name = 
REMARK  3 active torsions:
REMARK  status: ('A' for Active; 'I' for Inactive)
REMARK    1  A    between atoms: C_2  and  C_10
REMARK    2  A    between atoms: N_3  and  C_4
REMARK    3  A    between atoms: C_4  and  C_5
REMARK                            x       y       z     vdW  Elec       q    Type
REMARK                         _______ _______ _______ _____ _____    ______ ____
ROOT
ATOM      1  C   UNL     1      17.361   9.677  39.129  0.00  0.00    +0.000 A 
ATOM      2  C   UNL     1      16.354   9.994  40.007  0.00  0.00    +0.000 A 
ATOM      3  C   UNL     1      16.049   9.132  41.029  0.00  0.00    +0.000 A 
ATOM      4  C   UNL     1      16.753   7.954  41.168  0.00  0.00    +0.000 A 
ATOM      5  N   UNL     1      16.643   6.964  42.071  0.00  0.00    +0.000 NA
ATOM      6  C   UNL     1      17.537   6.022  41.813  0.00  0.00    +0.000 A 
ATOM      7  C   UNL     1      18.278   6.374  40.705  0.00  0.00    +0.000 A 
ATOM      8  C   UNL     1      17.785   7.595  40.296  0.00  0.00    +0.000 A 
ATOM      9  C   UNL     1      18.059   8.496  39.279  0.00  0.00    +0.000 A 
ATOM     10  C   UNL     1      19.363   5.565  40.129  0.00  0.00    +0.000 C 
ATOM     11  C   UNL     1      19.837   4.467  41.018  0.00  0.00    +0.000 C 
ATOM     12  C   UNL     1      19.347   4.552  42.424  0.00  0.00    +0.000 C 
ATOM     13  C   UNL     1      17.836   4.738  42.491  0.00  0.00    +0.000 C 
ENDROOT
BRANCH   1  15
ATOM     14  O   UNL     1      18.835  10.759  37.654  0.00  0.00    +0.000 OA
ATOM     15  C   UNL     1      17.651  10.621  38.059  0.00  0.00    +0.000 C 
ATOM     16  N   UNL     1      16.636  11.397  37.455  0.00  0.00    +0.000 NA
BRANCH  16  17
ATOM     17  C   UNL     1      16.897  12.339  36.395  0.00  0.00    +0.000 C 
BRANCH  17  18
ATOM     18  C   UNL     1      16.521  11.765  35.084  0.00  0.00    +0.000 A 
ATOM     19  C   UNL     1      15.323  11.909  34.396  0.00  0.00    +0.000 A 
ATOM     20  C   UNL     1      15.446  11.186  33.216  0.00  0.00    +0.000 A 
ATOM     21  C   UNL     1      16.718  10.637  33.250  0.00  0.00    +0.000 A 
ATOM     22  O   UNL     1      17.302  11.005  34.356  0.00  0.00    +0.000 OA
ENDBRANCH  17  18
ENDBRANCH  16  17
ENDBRANCH   1  15
TORSDOF 3
ENDMDL
MODEL 9
REMARK VINA RESULT:      -6.8      3.417      7.823
REMARK  Name = 
REMARK  3 active torsions:
REMARK  status: ('A' for Active; 'I' for Inactive)
REMARK    1  A    between atoms: C_2  and  C_10
REMARK    2  A    between atoms: N_3  and  C_4
REMARK    3  A    between atoms: C_4  and  C_5
REMARK                            x       y       z     vdW  Elec       q    Type
REMARK                         _______ _______ _______ _____ _____    ______ ____
ROOT
ATOM      1  C   UNL     1      17.502  11.080  37.180  0.00  0.00    +0.000 A 
ATOM      2  C   UNL     1      17.843   9.773  37.431  0.00  0.00    +0.000 A 
ATOM      3  C   UNL     1      19.026   9.491  38.063  0.00  0.00    +0.000 A 
ATOM      4  C   UNL     1      19.867  10.518  38.442  0.00  0.00    +0.000 A 
ATOM      5  N   UNL     1      21.058  10.497  39.063  0.00  0.00    +0.000 NA
ATOM      6  C   UNL     1      21.501  11.735  39.223  0.00  0.00    +0.000 A 
ATOM      7  C   UNL     1      20.590  12.627  38.698  0.00  0.00    +0.000 A 
ATOM      8  C   UNL     1      19.555  11.860  38.204  0.00  0.00    +0.000 A 
ATOM      9  C   UNL     1      18.350  12.099  37.564  0.00  0.00    +0.000 A 
ATOM     10  C   UNL     1      20.750  14.089  38.700  0.00  0.00    +0.000 C 
ATOM     11  C   UNL     1      21.830  14.578  39.604  0.00  0.00    +0.000 C 
ATOM     12  C   UNL     1      22.358  13.554  40.551  0.00  0.00    +0.000 C 
ATOM     13  C   UNL     1      22.741  12.263  39.839  0.00  0.00    +0.000 C 
ENDROOT
BRANCH   1  15
ATOM     14  O   UNL     1      15.154  11.070  37.094  0.00  0.00    +0.000 OA
ATOM     15  C   UNL     1      16.236  11.334  36.507  0.00  0.00    +0.000 C 
ATOM     16  N   UNL     1      16.182  11.871  35.201  0.00  0.00    +0.000 NA
BRANCH  16  17
ATOM     17  C   UNL     1      14.942  12.131  34.513  0.00  0.00    +0.000 C 
BRANCH  17  18
ATOM     18  C   UNL     1      15.110  11.953  33.053  0.00  0.00    +0.000 A 
ATOM     19  C   UNL     1      14.565  12.714  32.027  0.00  0.00    +0.000 A 
ATOM     20  C   UNL     1      15.008  12.158  30.834  0.00  0.00    +0.000 A 
ATOM     21  C   UNL     1      15.801  11.082  31.199  0.00  0.00    +0.000 A 
ATOM     22  O   UNL     1      15.828  11.007  32.500  0.00  0.00    +0.000 OA
ENDBRANCH  17  18
ENDBRANCH  16  17
ENDBRANCH   1  15
TORSDOF 3
ENDMDL
MODEL 10
REMARK VINA RESULT:      -6.7     19.842     21.900
REMARK  Name = 
REMARK  3 active torsions:
REMARK  status: ('A' for Active; 'I' for Inactive)
REMARK    1  A    between atoms: C_2  and  C_10
REMARK    2  A    between atoms: N_3  and  C_4
REMARK    3  A    between atoms: C_4  and  C_5
REMARK                            x       y       z     vdW  Elec       q    Type
REMARK                         _______ _______ _______ _____ _____    ______ ____
ROOT
ATOM      1  C   UNL     1      27.047  24.218  23.933  0.00  0.00    +0.000 A 
ATOM      2  C   UNL     1      27.975  23.224  23.741  0.00  0.00    +0.000 A 
ATOM      3  C   UNL     1      28.916  23.356  22.752  0.00  0.00    +0.000 A 
ATOM      4  C   UNL     1      28.925  24.484  21.957  0.00  0.00    +0.000 A 
ATOM      5  N   UNL     1      29.730  24.838  20.941  0.00  0.00    +0.000 NA
ATOM      6  C   UNL     1      29.361  26.019  20.470  0.00  0.00    +0.000 A 
ATOM      7  C   UNL     1      28.275  26.486  21.179  0.00  0.00    +0.000 A 
ATOM      8  C   UNL     1      27.997  25.517  22.121  0.00  0.00    +0.000 A 
ATOM      9  C   UNL     1      27.066  25.341  23.131  0.00  0.00    +0.000 A 
ATOM     10  C   UNL     1      27.598  27.768  20.931  0.00  0.00    +0.000 C 
ATOM     11  C   UNL     1      28.366  28.699  20.056  0.00  0.00    +0.000 C 
ATOM     12  C   UNL     1      29.785  28.302  19.823  0.00  0.00    +0.000 C 
ATOM     13  C   UNL     1      29.905  26.852  19.370  0.00  0.00    +0.000 C 
ENDROOT
BRANCH   1  15
ATOM     14  O   UNL     1      25.375  22.985  25.029  0.00  0.00    +0.000 OA
ATOM     15  C   UNL     1      26.066  24.036  24.994  0.00  0.00    +0.000 C 
ATOM     16  N   UNL     1      25.863  25.013  25.995  0.00  0.00    +0.000 NA
BRANCH  16  17
ATOM     17  C   UNL     1      24.899  24.857  27.055  0.00  0.00    +0.000 C 
BRANCH  17  18
ATOM     18  C   UNL     1      25.555  24.369  28.288  0.00  0.00    +0.000 A 
ATOM     19  C   UNL     1      25.547  24.947  29.552  0.00  0.00    +0.000 A 
ATOM     20  C   UNL     1      26.301  24.122  30.377  0.00  0.00    +0.000 A 
ATOM     21  C   UNL     1      26.730  23.082  29.568  0.00  0.00    +0.000 A 
ATOM     22  O   UNL     1      26.269  23.272  28.364  0.00  0.00    +0.000 OA
ENDBRANCH  17  18
ENDBRANCH  16  17
ENDBRANCH   1  15
TORSDOF 3
ENDMDL
