MODEL 1
REMARK VINA RESULT:      -6.8      0.000      0.000
REMARK  Name = 
REMARK  2 active torsions:
REMARK  status: ('A' for Active; 'I' for Inactive)
REMARK    1  A    between atoms: C_5  and  C_6
REMARK    2  A    between atoms: C_6  and  C_7
REMARK                            x       y       z     vdW  Elec       q    Type
REMARK                         _______ _______ _______ _____ _____    ______ ____
ROOT
ATOM      1  C   UNL     1      18.368  10.208  37.299  0.00  0.00    +0.000 C 
ATOM      2  C   UNL     1      17.663  11.493  37.238  0.00  0.00    +0.000 C 
ATOM      3  C   UNL     1      16.810  11.803  36.096  0.00  0.00    +0.000 C 
ATOM      4  C   UNL     1      16.571  10.738  35.101  0.00  0.00    +0.000 C 
ATOM      5  C   UNL     1      17.851   9.971  34.847  0.00  0.00    +0.000 C 
ATOM      6  C   UNL     1      18.168   9.269  36.166  0.00  0.00    +0.000 C 
ENDROOT
BRANCH   1  11
ATOM      7  O   UNL     1      16.861   7.657  42.172  0.00  0.00    +0.000 OA
ATOM      8  C   UNL     1      17.223   8.280  40.987  0.00  0.00    +0.000 A 
ATOM      9  C   UNL     1      18.257   7.801  40.227  0.00  0.00    +0.000 A 
ATOM     10  C   UNL     1      18.653   8.404  39.026  0.00  0.00    +0.000 A 
ATOM     11  C   UNL     1      17.986   9.518  38.579  0.00  0.00    +0.000 A 
ATOM     12  C   UNL     1      16.942   9.995  39.352  0.00  0.00    +0.000 A 
ATOM     13  C   UNL     1      16.546   9.406  40.538  0.00  0.00    +0.000 A 
ENDBRANCH   1  11
BRANCH   1  14
ATOM     14  C   UNL     1      19.846  10.495  37.366  0.00  0.00    +0.000 A 
ATOM     15  C   UNL     1      20.740   9.741  36.637  0.00  0.00    +0.000 A 
ATOM     16  C   UNL     1      22.095   9.983  36.669  0.00  0.00    +0.000 A 
ATOM     17  C   UNL     1      22.557  11.007  37.455  0.00  0.00    +0.000 A 
ATOM     18  O   UNL     1      23.913  11.324  37.549  0.00  0.00    +0.000 OA
ATOM     19  C   UNL     1      21.679  11.767  38.187  0.00  0.00    +0.000 A 
ATOM     20  C   UNL     1      20.346  11.516  38.144  0.00  0.00    +0.000 A 
ENDBRANCH   1  14
TORSDOF 2
ENDMDL
MODEL 2
REMARK VINA RESULT:      -6.7      0.397      5.057
REMARK  Name = 
REMARK  2 active torsions:
REMARK  status: ('A' for Active; 'I' for Inactive)
REMARK    1  A    between atoms: C_5  and  C_6
REMARK    2  A    between atoms: C_6  and  C_7
REMARK                            x       y       z     vdW  Elec       q    Type
REMARK                         _______ _______ _______ _____ _____    ______ ____
ROOT
ATOM      1  C   UNL     1      18.328  10.152  37.377  0.00  0.00    +0.000 C 
ATOM      2  C   UNL     1      18.274   9.163  36.295  0.00  0.00    +0.000 C 
ATOM      3  C   UNL     1      17.398   9.383  35.150  0.00  0.00    +0.000 C 
ATOM      4  C   UNL     1      16.698  10.680  35.052  0.00  0.00    +0.000 C 
ATOM      5  C   UNL     1      16.205  11.105  36.418  0.00  0.00    +0.000 C 
ATOM      6  C   UNL     1      17.466  11.354  37.242  0.00  0.00    +0.000 C 
ENDROOT
BRANCH   1  11
ATOM      7  O   UNL     1      23.771  11.742  37.976  0.00  0.00    +0.000 OA
ATOM      8  C   UNL     1      22.449  11.353  37.827  0.00  0.00    +0.000 A 
ATOM      9  C   UNL     1      21.443  12.008  38.486  0.00  0.00    +0.000 A 
ATOM     10  C   UNL     1      20.096  11.643  38.360  0.00  0.00    +0.000 A 
ATOM     11  C   UNL     1      19.756  10.590  37.548  0.00  0.00    +0.000 A 
ATOM     12  C   UNL     1      20.778   9.933  36.885  0.00  0.00    +0.000 A 
ATOM     13  C   UNL     1      22.109  10.287  37.003  0.00  0.00    +0.000 A 
ENDBRANCH   1  11
BRANCH   1  14
ATOM     14  C   UNL     1      17.912   9.464  38.652  0.00  0.00    +0.000 A 
ATOM     15  C   UNL     1      18.555   8.319  39.072  0.00  0.00    +0.000 A 
ATOM     16  C   UNL     1      18.206   7.671  40.235  0.00  0.00    +0.000 A 
ATOM     17  C   UNL     1      17.187   8.191  40.992  0.00  0.00    +0.000 A 
ATOM     18  O   UNL     1      16.767   7.602  42.185  0.00  0.00    +0.000 OA
ATOM     19  C   UNL     1      16.538   9.331  40.587  0.00  0.00    +0.000 A 
ATOM     20  C   UNL     1      16.894   9.957  39.437  0.00  0.00    +0.000 A 
ENDBRANCH   1  14
TORSDOF 2
ENDMDL
MODEL 3
REMARK VINA RESULT:      -6.7      2.226      5.302
REMARK  Name = 
REMARK  2 active torsions:
REMARK  status: ('A' for Active; 'I' for Inactive)
REMARK    1  A    between atoms: C_5  and  C_6
REMARK    2  A    between atoms: C_6  and  C_7
REMARK                            x       y       z     vdW  Elec       q    Type
REMARK                         _______ _______ _______ _____ _____    ______ ____
ROOT
ATOM      1  C   UNL     1      19.080  10.467  37.821  0.00  0.00    +0.000 C 
ATOM      2  C   UNL     1      19.093  11.844  38.325  0.00  0.00    +0.000 C 
ATOM      3  C   UNL     1      20.361  12.540  38.511  0.00  0.00    +0.000 C 
ATOM      4  C   UNL     1      21.593  11.873  38.041  0.00  0.00    +0.000 C 
ATOM      5  C   UNL     1      21.536  10.396  38.366  0.00  0.00    +0.000 C 
ATOM      6  C   UNL     1      20.392   9.841  37.519  0.00  0.00    +0.000 C 
ENDROOT
BRANCH   1  11
ATOM      7  O   UNL     1      15.781  10.372  33.170  0.00  0.00    +0.000 OA
ATOM      8  C   UNL     1      16.582  10.400  34.301  0.00  0.00    +0.000 A 
ATOM      9  C   UNL     1      17.432   9.365  34.588  0.00  0.00    +0.000 A 
ATOM     10  C   UNL     1      18.255   9.357  35.721  0.00  0.00    +0.000 A 
ATOM     11  C   UNL     1      18.220  10.422  36.588  0.00  0.00    +0.000 A 
ATOM     12  C   UNL     1      17.360  11.465  36.290  0.00  0.00    +0.000 A 
ATOM     13  C   UNL     1      16.545  11.480  35.174  0.00  0.00    +0.000 A 
ENDBRANCH   1  11
BRANCH   1  14
ATOM     14  C   UNL     1      18.418   9.601  38.862  0.00  0.00    +0.000 A 
ATOM     15  C   UNL     1      18.953   8.376  39.198  0.00  0.00    +0.000 A 
ATOM     16  C   UNL     1      18.378   7.565  40.150  0.00  0.00    +0.000 A 
ATOM     17  C   UNL     1      17.238   8.000  40.776  0.00  0.00    +0.000 A 
ATOM     18  O   UNL     1      16.588   7.245  41.754  0.00  0.00    +0.000 OA
ATOM     19  C   UNL     1      16.693   9.218  40.452  0.00  0.00    +0.000 A 
ATOM     20  C   UNL     1      17.273  10.006  39.512  0.00  0.00    +0.000 A 
ENDBRANCH   1  14
TORSDOF 2
ENDMDL
MODEL 4
REMARK VINA RESULT:      -6.7      2.162      4.003
REMARK  Name = 
REMARK  2 active torsions:
REMARK  status: ('A' for Active; 'I' for Inactive)
REMARK    1  A    between atoms: C_5  and  C_6
REMARK    2  A    between atoms: C_6  and  C_7
REMARK                            x       y       z     vdW  Elec       q    Type
REMARK                         _______ _______ _______ _____ _____    ______ ____
ROOT
ATOM      1  C   UNL     1      19.148  10.434  38.006  0.00  0.00    +0.000 C 
ATOM      2  C   UNL     1      20.445   9.861  37.631  0.00  0.00    +0.000 C 
ATOM      3  C   UNL     1      21.664  10.642  37.805  0.00  0.00    +0.000 C 
ATOM      4  C   UNL     1      21.561  11.943  38.498  0.00  0.00    +0.000 C 
ATOM      5  C   UNL     1      20.308  12.667  38.053  0.00  0.00    +0.000 C 
ATOM      6  C   UNL     1      19.148  11.812  38.558  0.00  0.00    +0.000 C 
ENDROOT
BRANCH   1  11
ATOM      7  O   UNL     1      16.590   6.996  41.769  0.00  0.00    +0.000 OA
ATOM      8  C   UNL     1      17.208   7.835  40.853  0.00  0.00    +0.000 A 
ATOM      9  C   UNL     1      18.368   7.462  40.228  0.00  0.00    +0.000 A 
ATOM     10  C   UNL     1      19.022   8.282  39.300  0.00  0.00    +0.000 A 
ATOM     11  C   UNL     1      18.490   9.510  38.993  0.00  0.00    +0.000 A 
ATOM     12  C   UNL     1      17.317   9.879  39.628  0.00  0.00    +0.000 A 
ATOM     13  C   UNL     1      16.666   9.076  40.545  0.00  0.00    +0.000 A 
ENDBRANCH   1  11
BRANCH   1  14
ATOM     14  C   UNL     1      18.283  10.463  36.772  0.00  0.00    +0.000 A 
ATOM     15  C   UNL     1      18.376   9.463  35.827  0.00  0.00    +0.000 A 
ATOM     16  C   UNL     1      17.594   9.456  34.694  0.00  0.00    +0.000 A 
ATOM     17  C   UNL     1      16.699  10.479  34.511  0.00  0.00    +0.000 A 
ATOM     18  O   UNL     1      15.866  10.552  33.393  0.00  0.00    +0.000 OA
ATOM     19  C   UNL     1      16.595  11.481  35.443  0.00  0.00    +0.000 A 
ATOM     20  C   UNL     1      17.373  11.473  36.555  0.00  0.00    +0.000 A 
ENDBRANCH   1  14
TORSDOF 2
ENDMDL
MODEL 5
REMARK VINA RESULT:      -6.5     20.576     22.112
REMARK  Name = 
REMARK  2 active torsions:
REMARK  status: ('A' for Active; 'I' for Inactive)
REMARK    1  A    between atoms: C_5  and  C_6
REMARK    2  A    between atoms: C_6  and  C_7
REMARK                            x       y       z     vdW  Elec       q    Type
REMARK                         _______ _______ _______ _____ _____    ______ ____
ROOT
ATOM      1  C   UNL     1      18.428  -7.706  26.553  0.00  0.00    +0.000 C 
ATOM      2  C   UNL     1      17.933  -6.530  27.275  0.00  0.00    +0.000 C 
ATOM      3  C   UNL     1      18.519  -5.219  27.020  0.00  0.00    +0.000 C 
ATOM      4  C   UNL     1      19.503  -5.102  25.924  0.00  0.00    +0.000 C 
ATOM      5  C   UNL     1      20.421  -6.305  25.923  0.00  0.00    +0.000 C 
ATOM      6  C   UNL     1      19.526  -7.493  25.577  0.00  0.00    +0.000 C 
ENDROOT
BRANCH   1  11
ATOM      7  O   UNL     1      13.969 -10.118  23.941  0.00  0.00    +0.000 OA
ATOM      8  C   UNL     1      15.050  -9.528  24.578  0.00  0.00    +0.000 A 
ATOM      9  C   UNL     1      16.333  -9.910  24.287  0.00  0.00    +0.000 A 
ATOM     10  C   UNL     1      17.449  -9.339  24.910  0.00  0.00    +0.000 A 
ATOM     11  C   UNL     1      17.267  -8.355  25.851  0.00  0.00    +0.000 A 
ATOM     12  C   UNL     1      15.968  -7.973  26.138  0.00  0.00    +0.000 A 
ATOM     13  C   UNL     1      14.861  -8.532  25.527  0.00  0.00    +0.000 A 
ENDBRANCH   1  11
BRANCH   1  14
ATOM     14  C   UNL     1      18.942  -8.690  27.573  0.00  0.00    +0.000 A 
ATOM     15  C   UNL     1      18.258  -8.899  28.752  0.00  0.00    +0.000 A 
ATOM     16  C   UNL     1      18.695  -9.796  29.700  0.00  0.00    +0.000 A 
ATOM     17  C   UNL     1      19.848 -10.498  29.453  0.00  0.00    +0.000 A 
ATOM     18  O   UNL     1      20.365 -11.428  30.357  0.00  0.00    +0.000 OA
ATOM     19  C   UNL     1      20.539 -10.301  28.284  0.00  0.00    +0.000 A 
ATOM     20  C   UNL     1      20.094  -9.413  27.359  0.00  0.00    +0.000 A 
ENDBRANCH   1  14
TORSDOF 2
ENDMDL
MODEL 6
REMARK VINA RESULT:      -6.4     17.552     20.388
REMARK  Name = 
REMARK  2 active torsions:
REMARK  status: ('A' for Active; 'I' for Inactive)
REMARK    1  A    between atoms: C_5  and  C_6
REMARK    2  A    between atoms: C_6  and  C_7
REMARK                            x       y       z     vdW  Elec       q    Type
REMARK                         _______ _______ _______ _____ _____    ______ ____
ROOT
ATOM      1  C   UNL     1      28.657  23.532  26.812  0.00  0.00    +0.000 C 
ATOM      2  C   UNL     1      29.553  24.669  26.580  0.00  0.00    +0.000 C 
ATOM      3  C   UNL     1      30.997  24.489  26.670  0.00  0.00    +0.000 C 
ATOM      4  C   UNL     1      31.514  23.116  26.849  0.00  0.00    +0.000 C 
ATOM      5  C   UNL     1      30.639  22.359  27.825  0.00  0.00    +0.000 C 
ATOM      6  C   UNL     1      29.285  22.225  27.132  0.00  0.00    +0.000 C 
ENDROOT
BRANCH   1  11
ATOM      7  O   UNL     1      25.384  22.939  22.179  0.00  0.00    +0.000 OA
ATOM      8  C   UNL     1      26.184  23.083  23.303  0.00  0.00    +0.000 A 
ATOM      9  C   UNL     1      25.664  22.933  24.561  0.00  0.00    +0.000 A 
ATOM     10  C   UNL     1      26.440  23.072  25.719  0.00  0.00    +0.000 A 
ATOM     11  C   UNL     1      27.775  23.370  25.604  0.00  0.00    +0.000 A 
ATOM     12  C   UNL     1      28.294  23.519  24.329  0.00  0.00    +0.000 A 
ATOM     13  C   UNL     1      27.535  23.383  23.182  0.00  0.00    +0.000 A 
ENDBRANCH   1  11
BRANCH   1  14
ATOM     14  C   UNL     1      27.764  23.878  27.976  0.00  0.00    +0.000 A 
ATOM     15  C   UNL     1      27.239  22.886  28.776  0.00  0.00    +0.000 A 
ATOM     16  C   UNL     1      26.427  23.168  29.851  0.00  0.00    +0.000 A 
ATOM     17  C   UNL     1      26.139  24.481  30.125  0.00  0.00    +0.000 A 
ATOM     18  O   UNL     1      25.326  24.860  31.195  0.00  0.00    +0.000 OA
ATOM     19  C   UNL     1      26.655  25.480  29.338  0.00  0.00    +0.000 A 
ATOM     20  C   UNL     1      27.454  25.185  28.282  0.00  0.00    +0.000 A 
ENDBRANCH   1  14
TORSDOF 2
ENDMDL
MODEL 7
REMARK VINA RESULT:      -6.3     19.625     21.624
REMARK  Name = 
REMARK  2 active torsions:
REMARK  status: ('A' for Active; 'I' for Inactive)
REMARK    1  A    between atoms: C_5  and  C_6
REMARK    2  A    between atoms: C_6  and  C_7
REMARK                            x       y       z     vdW  Elec       q    Type
REMARK                         _______ _______ _______ _____ _____    ______ ____
ROOT
ATOM      1  C   UNL     1      27.983  24.146  25.691  0.00  0.00    +0.000 C 
ATOM      2  C   UNL     1      27.542  25.440  26.219  0.00  0.00    +0.000 C 
ATOM      3  C   UNL     1      26.169  25.609  26.682  0.00  0.00    +0.000 C 
ATOM      4  C   UNL     1      25.305  24.412  26.738  0.00  0.00    +0.000 C 
ATOM      5  C   UNL     1      25.545  23.545  25.521  0.00  0.00    +0.000 C 
ATOM      6  C   UNL     1      26.982  23.048  25.658  0.00  0.00    +0.000 C 
ENDROOT
BRANCH   1  11
ATOM      7  O   UNL     1      32.534  22.518  28.717  0.00  0.00    +0.000 OA
ATOM      8  C   UNL     1      31.427  22.918  27.984  0.00  0.00    +0.000 A 
ATOM      9  C   UNL     1      30.729  22.022  27.218  0.00  0.00    +0.000 A 
ATOM     10  C   UNL     1      29.608  22.389  26.463  0.00  0.00    +0.000 A 
ATOM     11  C   UNL     1      29.179  23.694  26.482  0.00  0.00    +0.000 A 
ATOM     12  C   UNL     1      29.889  24.592  27.260  0.00  0.00    +0.000 A 
ATOM     13  C   UNL     1      30.997  24.238  28.007  0.00  0.00    +0.000 A 
ENDBRANCH   1  11
BRANCH   1  14
ATOM     14  C   UNL     1      28.438  24.358  24.270  0.00  0.00    +0.000 A 
ATOM     15  C   UNL     1      29.067  25.528  23.903  0.00  0.00    +0.000 A 
ATOM     16  C   UNL     1      29.503  25.750  22.616  0.00  0.00    +0.000 A 
ATOM     17  C   UNL     1      29.300  24.769  21.679  0.00  0.00    +0.000 A 
ATOM     18  O   UNL     1      29.709  24.907  20.352  0.00  0.00    +0.000 OA
ATOM     19  C   UNL     1      28.676  23.598  22.030  0.00  0.00    +0.000 A 
ATOM     20  C   UNL     1      28.252  23.394  23.303  0.00  0.00    +0.000 A 
ENDBRANCH   1  14
TORSDOF 2
ENDMDL
MODEL 8
REMARK VINA RESULT:      -6.3     20.610     22.177
REMARK  Name = 
REMARK  2 active torsions:
REMARK  status: ('A' for Active; 'I' for Inactive)
REMARK    1  A    between atoms: C_5  and  C_6
REMARK    2  A    between atoms: C_6  and  C_7
REMARK                            x       y       z     vdW  Elec       q    Type
REMARK                         _______ _______ _______ _____ _____    ______ ____
ROOT
ATOM      1  C   UNL     1      18.584  -7.771  26.673  0.00  0.00    +0.000 C 
ATOM      2  C   UNL     1      19.744  -7.559  25.802  0.00  0.00    +0.000 C 
ATOM      3  C   UNL     1      20.279  -6.215  25.615  0.00  0.00    +0.000 C 
ATOM      4  C   UNL     1      19.713  -5.124  26.436  0.00  0.00    +0.000 C 
ATOM      5  C   UNL     1      18.212  -5.286  26.545  0.00  0.00    +0.000 C 
ATOM      6  C   UNL     1      18.003  -6.576  27.335  0.00  0.00    +0.000 C 
ENDROOT
BRANCH   1  11
ATOM      7  O   UNL     1      19.928 -11.574  30.705  0.00  0.00    +0.000 OA
ATOM      8  C   UNL     1      19.597 -10.650  29.726  0.00  0.00    +0.000 A 
ATOM      9  C   UNL     1      20.459 -10.371  28.699  0.00  0.00    +0.000 A 
ATOM     10  C   UNL     1      20.160  -9.444  27.693  0.00  0.00    +0.000 A 
ATOM     11  C   UNL     1      18.959  -8.779  27.724  0.00  0.00    +0.000 A 
ATOM     12  C   UNL     1      18.092  -9.067  28.764  0.00  0.00    +0.000 A 
ATOM     13  C   UNL     1      18.380  -9.981  29.760  0.00  0.00    +0.000 A 
ENDBRANCH   1  11
BRANCH   1  14
ATOM     14  C   UNL     1      17.486  -8.380  25.839  0.00  0.00    +0.000 A 
ATOM     15  C   UNL     1      17.767  -9.380  24.932  0.00  0.00    +0.000 A 
ATOM     16  C   UNL     1      16.786  -9.962  24.161  0.00  0.00    +0.000 A 
ATOM     17  C   UNL     1      15.494  -9.526  24.308  0.00  0.00    +0.000 A 
ATOM     18  O   UNL     1      14.437 -10.059  23.570  0.00  0.00    +0.000 OA
ATOM     19  C   UNL     1      15.199  -8.531  25.207  0.00  0.00    +0.000 A 
ATOM     20  C   UNL     1      16.178  -7.968  25.960  0.00  0.00    +0.000 A 
ENDBRANCH   1  14
TORSDOF 2
ENDMDL
MODEL 9
REMARK VINA RESULT:      -6.2     17.672     21.007
REMARK  Name = 
REMARK  2 active torsions:
REMARK  status: ('A' for Active; 'I' for Inactive)
REMARK    1  A    between atoms: C_5  and  C_6
REMARK    2  A    between atoms: C_6  and  C_7
REMARK                            x       y       z     vdW  Elec       q    Type
REMARK                         _______ _______ _______ _____ _____    ______ ____
ROOT
ATOM      1  C   UNL     1      30.947  23.169  28.045  0.00  0.00    +0.000 C 
ATOM      2  C   UNL     1      31.793  24.247  28.566  0.00  0.00    +0.000 C 
ATOM      3  C   UNL     1      33.072  23.932  29.192  0.00  0.00    +0.000 C 
ATOM      4  C   UNL     1      33.540  22.531  29.145  0.00  0.00    +0.000 C 
ATOM      5  C   UNL     1      32.378  21.591  29.385  0.00  0.00    +0.000 C 
ATOM      6  C   UNL     1      31.453  21.779  28.184  0.00  0.00    +0.000 C 
ENDROOT
BRANCH   1  11
ATOM      7  O   UNL     1      29.909  24.127  22.519  0.00  0.00    +0.000 OA
ATOM      8  C   UNL     1      30.161  23.889  23.862  0.00  0.00    +0.000 A 
ATOM      9  C   UNL     1      30.150  24.912  24.773  0.00  0.00    +0.000 A 
ATOM     10  C   UNL     1      30.401  24.711  26.136  0.00  0.00    +0.000 A 
ATOM     11  C   UNL     1      30.669  23.444  26.593  0.00  0.00    +0.000 A 
ATOM     12  C   UNL     1      30.677  22.415  25.667  0.00  0.00    +0.000 A 
ATOM     13  C   UNL     1      30.431  22.606  24.320  0.00  0.00    +0.000 A 
ENDBRANCH   1  11
BRANCH   1  14
ATOM     14  C   UNL     1      29.629  23.223  28.773  0.00  0.00    +0.000 A 
ATOM     15  C   UNL     1      28.562  22.460  28.349  0.00  0.00    +0.000 A 
ATOM     16  C   UNL     1      27.347  22.480  28.996  0.00  0.00    +0.000 A 
ATOM     17  C   UNL     1      27.206  23.288  30.095  0.00  0.00    +0.000 A 
ATOM     18  O   UNL     1      26.012  23.371  30.813  0.00  0.00    +0.000 OA
ATOM     19  C   UNL     1      28.260  24.054  30.529  0.00  0.00    +0.000 A 
ATOM     20  C   UNL     1      29.451  24.022  29.880  0.00  0.00    +0.000 A 
ENDBRANCH   1  14
TORSDOF 2
ENDMDL
MODEL 10
REMARK VINA RESULT:      -6.1     17.748     20.577
REMARK  Name = 
REMARK  2 active torsions:
REMARK  status: ('A' for Active; 'I' for Inactive)
REMARK    1  A    between atoms: C_5  and  C_6
REMARK    2  A    between atoms: C_6  and  C_7
REMARK                            x       y       z     vdW  Elec       q    Type
REMARK                         _______ _______ _______ _____ _____    ______ ____
ROOT
ATOM      1  C   UNL     1      30.863  23.126  28.166  0.00  0.00    +0.000 C 
ATOM      2  C   UNL     1      31.262  21.724  28.328  0.00  0.00    +0.000 C 
ATOM      3  C   UNL     1      32.559  21.399  28.912  0.00  0.00    +0.000 C 
ATOM      4  C   UNL     1      33.370  22.506  29.458  0.00  0.00    +0.000 C 
ATOM      5  C   UNL     1      33.281  23.710  28.545  0.00  0.00    +0.000 C 
ATOM      6  C   UNL     1      31.825  24.164  28.617  0.00  0.00    +0.000 C 
ENDROOT
BRANCH   1  11
ATOM      7  O   UNL     1      25.856  23.842  30.801  0.00  0.00    +0.000 OA
ATOM      8  C   UNL     1      27.072  23.664  30.159  0.00  0.00    +0.000 A 
ATOM      9  C   UNL     1      28.160  24.430  30.484  0.00  0.00    +0.000 A 
ATOM     10  C   UNL     1      29.403  24.279  29.857  0.00  0.00    +0.000 A 
ATOM     11  C   UNL     1      29.553  23.331  28.875  0.00  0.00    +0.000 A 
ATOM     12  C   UNL     1      28.449  22.560  28.552  0.00  0.00    +0.000 A 
ATOM     13  C   UNL     1      27.219  22.702  29.167  0.00  0.00    +0.000 A 
ENDBRANCH   1  11
BRANCH   1  14
ATOM     14  C   UNL     1      30.621  23.369  26.698  0.00  0.00    +0.000 A 
ATOM     15  C   UNL     1      30.453  24.651  26.219  0.00  0.00    +0.000 A 
ATOM     16  C   UNL     1      30.239  24.909  24.884  0.00  0.00    +0.000 A 
ATOM     17  C   UNL     1      30.194  23.850  24.013  0.00  0.00    +0.000 A 
ATOM     18  O   UNL     1      29.984  24.016  22.643  0.00  0.00    +0.000 OA
ATOM     19  C   UNL     1      30.361  22.568  24.476  0.00  0.00    +0.000 A 
ATOM     20  C   UNL     1      30.571  22.331  25.795  0.00  0.00    +0.000 A 
ENDBRANCH   1  14
TORSDOF 2
ENDMDL
