MODEL 1
REMARK VINA RESULT:      -8.0      0.000      0.000
REMARK  Name = 
REMARK  8 active torsions:
REMARK  status: ('A' for Active; 'I' for Inactive)
REMARK    1  A    between atoms: C_2  and  C_3
REMARK    2  A    between atoms: C_3  and  C_4
REMARK    3  A    between atoms: C_4  and  C_5
REMARK    4  A    between atoms: C_5  and  N_6
REMARK    5  A    between atoms: C_9  and  C_10
REMARK    6  A    between atoms: N_12  and  C_13
REMARK    7  A    between atoms: C_13  and  C_14
REMARK    8  A    between atoms: C_14  and  C_15
REMARK                            x       y       z     vdW  Elec       q    Type
REMARK                         _______ _______ _______ _____ _____    ______ ____
ROOT
ATOM      1  N   UNL     1      36.518  -0.124  15.523  0.00  0.00    +0.000 N 
ATOM      2  C   UNL     1      36.317   1.184  15.707  0.00  0.00    +0.000 A 
ATOM      3  N   UNL     1      35.088   1.809  16.114  0.00  0.00    +0.000 NA
ATOM      4  C   UNL     1      37.468   1.886  15.453  0.00  0.00    +0.000 A 
ATOM      5  C   UNL     1      38.416   0.930  15.094  0.00  0.00    +0.000 A 
ATOM      6  N   UNL     1      39.721   1.044  14.739  0.00  0.00    +0.000 NA
ATOM      7  C   UNL     1      40.392  -0.108  14.438  0.00  0.00    +0.000 A 
ATOM      8  C   UNL     1      41.728  -0.003  14.074  0.00  0.00    +0.000 A 
ATOM      9  C   UNL     1      42.402  -1.157  13.772  0.00  0.00    +0.000 A 
ATOM     10  C   UNL     1      41.819  -2.404  13.813  0.00  0.00    +0.000 A 
ATOM     11  C   UNL     1      40.503  -2.488  14.173  0.00  0.00    +0.000 A 
ATOM     12  C   UNL     1      39.776  -1.336  14.490  0.00  0.00    +0.000 A 
ATOM     13  N   UNL     1      38.475  -1.443  14.844  0.00  0.00    +0.000 NA
ATOM     14  C   UNL     1      37.806  -0.291  15.145  0.00  0.00    +0.000 A 
ENDROOT
BRANCH   4  15
ATOM     15  C   UNL     1      37.714   3.316  15.525  0.00  0.00    +0.000 C 
ATOM     16  O   UNL     1      37.383   4.089  14.593  0.00  0.00    +0.000 OA
ATOM     17  N   UNL     1      38.342   3.844  16.678  0.00  0.00    +0.000 NA
BRANCH  17  18
ATOM     18  C   UNL     1      38.590   5.289  16.750  0.00  0.00    +0.000 C 
BRANCH  18  19
ATOM     19  C   UNL     1      38.642   5.655  18.211  0.00  0.00    +0.000 C 
BRANCH  19  20
ATOM     20  C   UNL     1      40.050   6.038  18.560  0.00  0.00    +0.000 A 
ATOM     21  C   UNL     1      41.007   6.213  17.581  0.00  0.00    +0.000 A 
ATOM     22  C   UNL     1      42.306   6.566  17.891  0.00  0.00    +0.000 A 
ATOM     23  C   UNL     1      42.697   6.756  19.205  0.00  0.00    +0.000 A 
ATOM     24  C   UNL     1      41.737   6.578  20.180  0.00  0.00    +0.000 A 
ATOM     25  C   UNL     1      40.441   6.227  19.868  0.00  0.00    +0.000 A 
ENDBRANCH  19  20
ENDBRANCH  18  19
ENDBRANCH  17  18
ENDBRANCH   4  15
BRANCH   1  26
ATOM     26  C   UNL     1      35.549  -1.217  15.686  0.00  0.00    +0.000 C 
BRANCH  26  27
ATOM     27  C   UNL     1      35.857  -1.830  17.052  0.00  0.00    +0.000 C 
BRANCH  27  28
ATOM     28  C   UNL     1      34.945  -1.111  18.046  0.00  0.00    +0.000 C 
BRANCH  28  30
ATOM     29  C   UNL     1      37.116  -0.969  19.202  0.00  0.00    +0.000 C 
ATOM     30  C   UNL     1      35.715  -0.444  19.137  0.00  0.00    +0.000 C 
ENDBRANCH  28  30
ENDBRANCH  27  28
ENDBRANCH  26  27
ENDBRANCH   1  26
TORSDOF 8
ENDMDL
MODEL 2
REMARK VINA RESULT:      -7.8      1.086      1.747
REMARK  Name = 
REMARK  8 active torsions:
REMARK  status: ('A' for Active; 'I' for Inactive)
REMARK    1  A    between atoms: C_2  and  C_3
REMARK    2  A    between atoms: C_3  and  C_4
REMARK    3  A    between atoms: C_4  and  C_5
REMARK    4  A    between atoms: C_5  and  N_6
REMARK    5  A    between atoms: C_9  and  C_10
REMARK    6  A    between atoms: N_12  and  C_13
REMARK    7  A    between atoms: C_13  and  C_14
REMARK    8  A    between atoms: C_14  and  C_15
REMARK                            x       y       z     vdW  Elec       q    Type
REMARK                         _______ _______ _______ _____ _____    ______ ____
ROOT
ATOM      1  N   UNL     1      36.514  -0.289  15.547  0.00  0.00    +0.000 N 
ATOM      2  C   UNL     1      36.287   1.015  15.735  0.00  0.00    +0.000 A 
ATOM      3  N   UNL     1      35.046   1.615  16.143  0.00  0.00    +0.000 NA
ATOM      4  C   UNL     1      37.424   1.740  15.484  0.00  0.00    +0.000 A 
ATOM      5  C   UNL     1      38.391   0.803  15.121  0.00  0.00    +0.000 A 
ATOM      6  N   UNL     1      39.693   0.943  14.767  0.00  0.00    +0.000 NA
ATOM      7  C   UNL     1      40.386  -0.194  14.463  0.00  0.00    +0.000 A 
ATOM      8  C   UNL     1      41.719  -0.063  14.099  0.00  0.00    +0.000 A 
ATOM      9  C   UNL     1      42.416  -1.203  13.793  0.00  0.00    +0.000 A 
ATOM     10  C   UNL     1      41.857  -2.461  13.830  0.00  0.00    +0.000 A 
ATOM     11  C   UNL     1      40.542  -2.571  14.191  0.00  0.00    +0.000 A 
ATOM     12  C   UNL     1      39.794  -1.434  14.511  0.00  0.00    +0.000 A 
ATOM     13  N   UNL     1      38.495  -1.567  14.864  0.00  0.00    +0.000 NA
ATOM     14  C   UNL     1      37.804  -0.429  15.168  0.00  0.00    +0.000 A 
ENDROOT
BRANCH   4  15
ATOM     15  C   UNL     1      37.643   3.174  15.560  0.00  0.00    +0.000 C 
ATOM     16  O   UNL     1      37.426   3.927  14.579  0.00  0.00    +0.000 OA
ATOM     17  N   UNL     1      38.112   3.730  16.774  0.00  0.00    +0.000 NA
BRANCH  17  18
ATOM     18  C   UNL     1      38.333   5.179  16.850  0.00  0.00    +0.000 C 
BRANCH  18  19
ATOM     19  C   UNL     1      39.345   5.413  17.941  0.00  0.00    +0.000 C 
BRANCH  19  20
ATOM     20  C   UNL     1      38.895   6.579  18.771  0.00  0.00    +0.000 A 
ATOM     21  C   UNL     1      39.528   6.900  19.955  0.00  0.00    +0.000 A 
ATOM     22  C   UNL     1      39.123   7.971  20.727  0.00  0.00    +0.000 A 
ATOM     23  C   UNL     1      38.058   8.766  20.338  0.00  0.00    +0.000 A 
ATOM     24  C   UNL     1      37.427   8.440  19.155  0.00  0.00    +0.000 A 
ATOM     25  C   UNL     1      37.835   7.371  18.385  0.00  0.00    +0.000 A 
ENDBRANCH  19  20
ENDBRANCH  18  19
ENDBRANCH  17  18
ENDBRANCH   4  15
BRANCH   1  26
ATOM     26  C   UNL     1      35.565  -1.400  15.707  0.00  0.00    +0.000 C 
BRANCH  26  27
ATOM     27  C   UNL     1      35.882  -2.008  17.073  0.00  0.00    +0.000 C 
BRANCH  27  28
ATOM     28  C   UNL     1      35.019  -1.245  18.079  0.00  0.00    +0.000 C 
BRANCH  28  30
ATOM     29  C   UNL     1      37.216  -1.163  19.191  0.00  0.00    +0.000 C 
ATOM     30  C   UNL     1      35.840  -0.575  19.130  0.00  0.00    +0.000 C 
ENDBRANCH  28  30
ENDBRANCH  27  28
ENDBRANCH  26  27
ENDBRANCH   1  26
TORSDOF 8
ENDMDL
MODEL 3
REMARK VINA RESULT:      -7.7      1.706      2.591
REMARK  Name = 
REMARK  8 active torsions:
REMARK  status: ('A' for Active; 'I' for Inactive)
REMARK    1  A    between atoms: C_2  and  C_3
REMARK    2  A    between atoms: C_3  and  C_4
REMARK    3  A    between atoms: C_4  and  C_5
REMARK    4  A    between atoms: C_5  and  N_6
REMARK    5  A    between atoms: C_9  and  C_10
REMARK    6  A    between atoms: N_12  and  C_13
REMARK    7  A    between atoms: C_13  and  C_14
REMARK    8  A    between atoms: C_14  and  C_15
REMARK                            x       y       z     vdW  Elec       q    Type
REMARK                         _______ _______ _______ _____ _____    ______ ____
ROOT
ATOM      1  N   UNL     1      36.418  -1.324  16.449  0.00  0.00    +0.000 N 
ATOM      2  C   UNL     1      35.918  -0.088  16.541  0.00  0.00    +0.000 A 
ATOM      3  N   UNL     1      34.638   0.277  17.085  0.00  0.00    +0.000 NA
ATOM      4  C   UNL     1      36.808   0.827  16.038  0.00  0.00    +0.000 A 
ATOM      5  C   UNL     1      37.909   0.083  15.618  0.00  0.00    +0.000 A 
ATOM      6  N   UNL     1      39.081   0.455  15.044  0.00  0.00    +0.000 NA
ATOM      7  C   UNL     1      39.975  -0.535  14.745  0.00  0.00    +0.000 A 
ATOM      8  C   UNL     1      41.178  -0.166  14.158  0.00  0.00    +0.000 A 
ATOM      9  C   UNL     1      42.075  -1.158  13.857  0.00  0.00    +0.000 A 
ATOM     10  C   UNL     1      41.838  -2.491  14.110  0.00  0.00    +0.000 A 
ATOM     11  C   UNL     1      40.648  -2.836  14.688  0.00  0.00    +0.000 A 
ATOM     12  C   UNL     1      39.703  -1.856  15.012  0.00  0.00    +0.000 A 
ATOM     13  N   UNL     1      38.532  -2.221  15.583  0.00  0.00    +0.000 NA
ATOM     14  C   UNL     1      37.641  -1.230  15.882  0.00  0.00    +0.000 A 
ENDROOT
BRANCH   4  15
ATOM     15  C   UNL     1      36.691   2.271  15.935  0.00  0.00    +0.000 C 
ATOM     16  O   UNL     1      35.873   2.811  15.150  0.00  0.00    +0.000 OA
ATOM     17  N   UNL     1      37.522   3.083  16.742  0.00  0.00    +0.000 NA
BRANCH  17  18
ATOM     18  C   UNL     1      37.403   4.542  16.637  0.00  0.00    +0.000 C 
BRANCH  18  19
ATOM     19  C   UNL     1      38.803   5.100  16.648  0.00  0.00    +0.000 C 
BRANCH  19  20
ATOM     20  C   UNL     1      38.975   5.943  17.877  0.00  0.00    +0.000 A 
ATOM     21  C   UNL     1      38.137   7.010  18.134  0.00  0.00    +0.000 A 
ATOM     22  C   UNL     1      38.285   7.793  19.262  0.00  0.00    +0.000 A 
ATOM     23  C   UNL     1      39.288   7.535  20.180  0.00  0.00    +0.000 A 
ATOM     24  C   UNL     1      40.124   6.469  19.918  0.00  0.00    +0.000 A 
ATOM     25  C   UNL     1      39.973   5.688  18.792  0.00  0.00    +0.000 A 
ENDBRANCH  19  20
ENDBRANCH  18  19
ENDBRANCH  17  18
ENDBRANCH   4  15
BRANCH   1  26
ATOM     26  C   UNL     1      35.789  -2.584  16.870  0.00  0.00    +0.000 C 
BRANCH  26  27
ATOM     27  C   UNL     1      35.062  -3.108  15.632  0.00  0.00    +0.000 C 
BRANCH  27  28
ATOM     28  C   UNL     1      35.752  -4.423  15.268  0.00  0.00    +0.000 C 
BRANCH  28  30
ATOM     29  C   UNL     1      33.566  -4.830  14.207  0.00  0.00    +0.000 C 
ATOM     30  C   UNL     1      34.781  -5.461  14.814  0.00  0.00    +0.000 C 
ENDBRANCH  28  30
ENDBRANCH  27  28
ENDBRANCH  26  27
ENDBRANCH   1  26
TORSDOF 8
ENDMDL
MODEL 4
REMARK VINA RESULT:      -7.6      1.174      4.544
REMARK  Name = 
REMARK  8 active torsions:
REMARK  status: ('A' for Active; 'I' for Inactive)
REMARK    1  A    between atoms: C_2  and  C_3
REMARK    2  A    between atoms: C_3  and  C_4
REMARK    3  A    between atoms: C_4  and  C_5
REMARK    4  A    between atoms: C_5  and  N_6
REMARK    5  A    between atoms: C_9  and  C_10
REMARK    6  A    between atoms: N_12  and  C_13
REMARK    7  A    between atoms: C_13  and  C_14
REMARK    8  A    between atoms: C_14  and  C_15
REMARK                            x       y       z     vdW  Elec       q    Type
REMARK                         _______ _______ _______ _____ _____    ______ ____
ROOT
ATOM      1  N   UNL     1      39.239   0.686  14.002  0.00  0.00    +0.000 N 
ATOM      2  C   UNL     1      39.438   1.997  14.171  0.00  0.00    +0.000 A 
ATOM      3  N   UNL     1      40.481   2.786  13.574  0.00  0.00    +0.000 NA
ATOM      4  C   UNL     1      38.491   2.520  15.014  0.00  0.00    +0.000 A 
ATOM      5  C   UNL     1      37.675   1.448  15.369  0.00  0.00    +0.000 A 
ATOM      6  N   UNL     1      36.585   1.373  16.174  0.00  0.00    +0.000 NA
ATOM      7  C   UNL     1      35.996   0.149  16.320  0.00  0.00    +0.000 A 
ATOM      8  C   UNL     1      34.880   0.060  17.141  0.00  0.00    +0.000 A 
ATOM      9  C   UNL     1      34.289  -1.167  17.289  0.00  0.00    +0.000 A 
ATOM     10  C   UNL     1      34.749  -2.306  16.666  0.00  0.00    +0.000 A 
ATOM     11  C   UNL     1      35.849  -2.200  15.861  0.00  0.00    +0.000 A 
ATOM     12  C   UNL     1      36.484  -0.967  15.681  0.00  0.00    +0.000 A 
ATOM     13  N   UNL     1      37.571  -0.886  14.880  0.00  0.00    +0.000 NA
ATOM     14  C   UNL     1      38.158   0.339  14.735  0.00  0.00    +0.000 A 
ENDROOT
BRANCH   4  15
ATOM     15  C   UNL     1      38.318   3.887  15.476  0.00  0.00    +0.000 C 
ATOM     16  O   UNL     1      37.704   4.741  14.791  0.00  0.00    +0.000 OA
ATOM     17  N   UNL     1      38.856   4.256  16.731  0.00  0.00    +0.000 NA
BRANCH  17  18
ATOM     18  C   UNL     1      38.680   5.637  17.198  0.00  0.00    +0.000 C 
BRANCH  18  19
ATOM     19  C   UNL     1      38.970   5.642  18.676  0.00  0.00    +0.000 C 
BRANCH  19  20
ATOM     20  C   UNL     1      40.388   6.086  18.886  0.00  0.00    +0.000 A 
ATOM     21  C   UNL     1      41.235   6.300  17.818  0.00  0.00    +0.000 A 
ATOM     22  C   UNL     1      42.542   6.709  17.999  0.00  0.00    +0.000 A 
ATOM     23  C   UNL     1      43.052   6.919  19.269  0.00  0.00    +0.000 A 
ATOM     24  C   UNL     1      42.202   6.703  20.334  0.00  0.00    +0.000 A 
ATOM     25  C   UNL     1      40.897   6.296  20.150  0.00  0.00    +0.000 A 
ENDBRANCH  19  20
ENDBRANCH  18  19
ENDBRANCH  17  18
ENDBRANCH   4  15
BRANCH   1  26
ATOM     26  C   UNL     1      40.026  -0.246  13.182  0.00  0.00    +0.000 C 
BRANCH  26  27
ATOM     27  C   UNL     1      40.967  -0.949  14.160  0.00  0.00    +0.000 C 
BRANCH  27  28
ATOM     28  C   UNL     1      42.344  -0.321  13.938  0.00  0.00    +0.000 C 
BRANCH  28  30
ATOM     29  C   UNL     1      44.505  -0.220  15.118  0.00  0.00    +0.000 C 
ATOM     30  C   UNL     1      43.434  -1.116  14.575  0.00  0.00    +0.000 C 
ENDBRANCH  28  30
ENDBRANCH  27  28
ENDBRANCH  26  27
ENDBRANCH   1  26
TORSDOF 8
ENDMDL
MODEL 5
REMARK VINA RESULT:      -7.3      1.384      4.759
REMARK  Name = 
REMARK  8 active torsions:
REMARK  status: ('A' for Active; 'I' for Inactive)
REMARK    1  A    between atoms: C_2  and  C_3
REMARK    2  A    between atoms: C_3  and  C_4
REMARK    3  A    between atoms: C_4  and  C_5
REMARK    4  A    between atoms: C_5  and  N_6
REMARK    5  A    between atoms: C_9  and  C_10
REMARK    6  A    between atoms: N_12  and  C_13
REMARK    7  A    between atoms: C_13  and  C_14
REMARK    8  A    between atoms: C_14  and  C_15
REMARK                            x       y       z     vdW  Elec       q    Type
REMARK                         _______ _______ _______ _____ _____    ______ ____
ROOT
ATOM      1  N   UNL     1      39.300   0.039  13.932  0.00  0.00    +0.000 N 
ATOM      2  C   UNL     1      39.539   1.353  13.963  0.00  0.00    +0.000 A 
ATOM      3  N   UNL     1      40.627   2.038  13.319  0.00  0.00    +0.000 NA
ATOM      4  C   UNL     1      38.585   1.996  14.709  0.00  0.00    +0.000 A 
ATOM      5  C   UNL     1      37.721   0.996  15.152  0.00  0.00    +0.000 A 
ATOM      6  N   UNL     1      36.604   1.045  15.922  0.00  0.00    +0.000 NA
ATOM      7  C   UNL     1      35.969  -0.136  16.181  0.00  0.00    +0.000 A 
ATOM      8  C   UNL     1      34.826  -0.098  16.968  0.00  0.00    +0.000 A 
ATOM      9  C   UNL     1      34.187  -1.283  17.229  0.00  0.00    +0.000 A 
ATOM     10  C   UNL     1      34.627  -2.497  16.751  0.00  0.00    +0.000 A 
ATOM     11  C   UNL     1      35.754  -2.516  15.978  0.00  0.00    +0.000 A 
ATOM     12  C   UNL     1      36.437  -1.331  15.686  0.00  0.00    +0.000 A 
ATOM     13  N   UNL     1      37.551  -1.373  14.920  0.00  0.00    +0.000 NA
ATOM     14  C   UNL     1      38.184  -0.191  14.661  0.00  0.00    +0.000 A 
ENDROOT
BRANCH   4  15
ATOM     15  C   UNL     1      38.445   3.410  15.012  0.00  0.00    +0.000 C 
ATOM     16  O   UNL     1      38.074   4.237  14.142  0.00  0.00    +0.000 OA
ATOM     17  N   UNL     1      38.734   3.860  16.322  0.00  0.00    +0.000 NA
BRANCH  17  18
ATOM     18  C   UNL     1      38.593   5.289  16.627  0.00  0.00    +0.000 C 
BRANCH  18  19
ATOM     19  C   UNL     1      39.930   5.930  16.361  0.00  0.00    +0.000 C 
BRANCH  19  20
ATOM     20  C   UNL     1      40.612   6.180  17.674  0.00  0.00    +0.000 A 
ATOM     21  C   UNL     1      39.911   6.143  18.862  0.00  0.00    +0.000 A 
ATOM     22  C   UNL     1      40.529   6.371  20.076  0.00  0.00    +0.000 A 
ATOM     23  C   UNL     1      41.883   6.649  20.144  0.00  0.00    +0.000 A 
ATOM     24  C   UNL     1      42.579   6.687  18.953  0.00  0.00    +0.000 A 
ATOM     25  C   UNL     1      41.961   6.457  17.743  0.00  0.00    +0.000 A 
ENDBRANCH  19  20
ENDBRANCH  18  19
ENDBRANCH  17  18
ENDBRANCH   4  15
BRANCH   1  26
ATOM     26  C   UNL     1      40.078  -1.003  13.248  0.00  0.00    +0.000 C 
BRANCH  26  27
ATOM     27  C   UNL     1      39.458  -1.124  11.856  0.00  0.00    +0.000 C 
BRANCH  27  28
ATOM     28  C   UNL     1      39.904  -2.483  11.317  0.00  0.00    +0.000 C 
BRANCH  28  30
ATOM     29  C   UNL     1      42.124  -3.552  11.311  0.00  0.00    +0.000 C 
ATOM     30  C   UNL     1      40.975  -3.098  12.157  0.00  0.00    +0.000 C 
ENDBRANCH  28  30
ENDBRANCH  27  28
ENDBRANCH  26  27
ENDBRANCH   1  26
TORSDOF 8
ENDMDL
MODEL 6
REMARK VINA RESULT:      -7.3      1.900      6.990
REMARK  Name = 
REMARK  8 active torsions:
REMARK  status: ('A' for Active; 'I' for Inactive)
REMARK    1  A    between atoms: C_2  and  C_3
REMARK    2  A    between atoms: C_3  and  C_4
REMARK    3  A    between atoms: C_4  and  C_5
REMARK    4  A    between atoms: C_5  and  N_6
REMARK    5  A    between atoms: C_9  and  C_10
REMARK    6  A    between atoms: N_12  and  C_13
REMARK    7  A    between atoms: C_13  and  C_14
REMARK    8  A    between atoms: C_14  and  C_15
REMARK                            x       y       z     vdW  Elec       q    Type
REMARK                         _______ _______ _______ _____ _____    ______ ____
ROOT
ATOM      1  N   UNL     1      37.924   2.950  14.133  0.00  0.00    +0.000 N 
ATOM      2  C   UNL     1      36.958   2.140  14.578  0.00  0.00    +0.000 A 
ATOM      3  N   UNL     1      36.210   1.195  13.796  0.00  0.00    +0.000 NA
ATOM      4  C   UNL     1      36.761   2.325  15.923  0.00  0.00    +0.000 A 
ATOM      5  C   UNL     1      37.670   3.312  16.301  0.00  0.00    +0.000 A 
ATOM      6  N   UNL     1      37.922   3.893  17.501  0.00  0.00    +0.000 NA
ATOM      7  C   UNL     1      38.897   4.849  17.543  0.00  0.00    +0.000 A 
ATOM      8  C   UNL     1      39.164   5.450  18.765  0.00  0.00    +0.000 A 
ATOM      9  C   UNL     1      40.142   6.410  18.809  0.00  0.00    +0.000 A 
ATOM     10  C   UNL     1      40.864   6.800  17.703  0.00  0.00    +0.000 A 
ATOM     11  C   UNL     1      40.588   6.198  16.507  0.00  0.00    +0.000 A 
ATOM     12  C   UNL     1      39.598   5.213  16.417  0.00  0.00    +0.000 A 
ATOM     13  N   UNL     1      39.342   4.631  15.223  0.00  0.00    +0.000 NA
ATOM     14  C   UNL     1      38.367   3.675  15.184  0.00  0.00    +0.000 A 
ENDROOT
BRANCH   4  15
ATOM     15  C   UNL     1      35.825   1.669  16.819  0.00  0.00    +0.000 C 
ATOM     16  O   UNL     1      34.587   1.860  16.734  0.00  0.00    +0.000 OA
ATOM     17  N   UNL     1      36.328   0.794  17.811  0.00  0.00    +0.000 NA
BRANCH  17  18
ATOM     18  C   UNL     1      35.382   0.131  18.716  0.00  0.00    +0.000 C 
BRANCH  18  19
ATOM     19  C   UNL     1      35.133  -1.247  18.161  0.00  0.00    +0.000 C 
BRANCH  19  20
ATOM     20  C   UNL     1      36.454  -1.926  17.950  0.00  0.00    +0.000 A 
ATOM     21  C   UNL     1      36.868  -2.308  16.690  0.00  0.00    +0.000 A 
ATOM     22  C   UNL     1      38.083  -2.933  16.484  0.00  0.00    +0.000 A 
ATOM     23  C   UNL     1      38.933  -3.201  17.543  0.00  0.00    +0.000 A 
ATOM     24  C   UNL     1      38.515  -2.818  18.800  0.00  0.00    +0.000 A 
ATOM     25  C   UNL     1      37.303  -2.193  19.003  0.00  0.00    +0.000 A 
ENDBRANCH  19  20
ENDBRANCH  18  19
ENDBRANCH  17  18
ENDBRANCH   4  15
BRANCH   1  26
ATOM     26  C   UNL     1      38.440   3.068  12.762  0.00  0.00    +0.000 C 
BRANCH  26  27
ATOM     27  C   UNL     1      39.200   1.767  12.503  0.00  0.00    +0.000 C 
BRANCH  27  28
ATOM     28  C   UNL     1      40.585   1.963  13.119  0.00  0.00    +0.000 C 
BRANCH  28  30
ATOM     29  C   UNL     1      39.832  -0.070  14.291  0.00  0.00    +0.000 C 
ATOM     30  C   UNL     1      41.007   0.790  13.940  0.00  0.00    +0.000 C 
ENDBRANCH  28  30
ENDBRANCH  27  28
ENDBRANCH  26  27
ENDBRANCH   1  26
TORSDOF 8
ENDMDL
MODEL 7
REMARK VINA RESULT:      -7.3      1.633      4.832
REMARK  Name = 
REMARK  8 active torsions:
REMARK  status: ('A' for Active; 'I' for Inactive)
REMARK    1  A    between atoms: C_2  and  C_3
REMARK    2  A    between atoms: C_3  and  C_4
REMARK    3  A    between atoms: C_4  and  C_5
REMARK    4  A    between atoms: C_5  and  N_6
REMARK    5  A    between atoms: C_9  and  C_10
REMARK    6  A    between atoms: N_12  and  C_13
REMARK    7  A    between atoms: C_13  and  C_14
REMARK    8  A    between atoms: C_14  and  C_15
REMARK                            x       y       z     vdW  Elec       q    Type
REMARK                         _______ _______ _______ _____ _____    ______ ____
ROOT
ATOM      1  N   UNL     1      38.707   0.507  13.467  0.00  0.00    +0.000 N 
ATOM      2  C   UNL     1      38.946   1.804  13.689  0.00  0.00    +0.000 A 
ATOM      3  N   UNL     1      39.912   2.621  13.007  0.00  0.00    +0.000 NA
ATOM      4  C   UNL     1      38.126   2.279  14.680  0.00  0.00    +0.000 A 
ATOM      5  C   UNL     1      37.349   1.191  15.075  0.00  0.00    +0.000 A 
ATOM      6  N   UNL     1      36.375   1.073  16.012  0.00  0.00    +0.000 NA
ATOM      7  C   UNL     1      35.793  -0.154  16.160  0.00  0.00    +0.000 A 
ATOM      8  C   UNL     1      34.795  -0.287  17.116  0.00  0.00    +0.000 A 
ATOM      9  C   UNL     1      34.210  -1.518  17.266  0.00  0.00    +0.000 A 
ATOM     10  C   UNL     1      34.567  -2.618  16.519  0.00  0.00    +0.000 A 
ATOM     11  C   UNL     1      35.552  -2.469  15.582  0.00  0.00    +0.000 A 
ATOM     12  C   UNL     1      36.175  -1.231  15.395  0.00  0.00    +0.000 A 
ATOM     13  N   UNL     1      37.148  -1.107  14.463  0.00  0.00    +0.000 NA
ATOM     14  C   UNL     1      37.728   0.121  14.315  0.00  0.00    +0.000 A 
ENDROOT
BRANCH   4  15
ATOM     15  C   UNL     1      38.035   3.615  15.244  0.00  0.00    +0.000 C 
ATOM     16  O   UNL     1      37.080   4.382  14.970  0.00  0.00    +0.000 OA
ATOM     17  N   UNL     1      39.052   4.055  16.124  0.00  0.00    +0.000 NA
BRANCH  17  18
ATOM     18  C   UNL     1      38.960   5.405  16.693  0.00  0.00    +0.000 C 
BRANCH  18  19
ATOM     19  C   UNL     1      39.438   5.315  18.119  0.00  0.00    +0.000 C 
BRANCH  19  20
ATOM     20  C   UNL     1      38.947   6.520  18.866  0.00  0.00    +0.000 A 
ATOM     21  C   UNL     1      39.533   6.913  20.053  0.00  0.00    +0.000 A 
ATOM     22  C   UNL     1      39.089   8.020  20.749  0.00  0.00    +0.000 A 
ATOM     23  C   UNL     1      38.031   8.779  20.279  0.00  0.00    +0.000 A 
ATOM     24  C   UNL     1      37.448   8.381  19.094  0.00  0.00    +0.000 A 
ATOM     25  C   UNL     1      37.894   7.277  18.400  0.00  0.00    +0.000 A 
ENDBRANCH  19  20
ENDBRANCH  18  19
ENDBRANCH  17  18
ENDBRANCH   4  15
BRANCH   1  26
ATOM     26  C   UNL     1      39.365  -0.377  12.495  0.00  0.00    +0.000 C 
BRANCH  26  27
ATOM     27  C   UNL     1      40.490  -1.065  13.270  0.00  0.00    +0.000 C 
BRANCH  27  28
ATOM     28  C   UNL     1      41.792  -0.500  12.702  0.00  0.00    +0.000 C 
BRANCH  28  30
ATOM     29  C   UNL     1      43.277  -0.917  14.623  0.00  0.00    +0.000 C 
ATOM     30  C   UNL     1      42.641   0.127  13.757  0.00  0.00    +0.000 C 
ENDBRANCH  28  30
ENDBRANCH  27  28
ENDBRANCH  26  27
ENDBRANCH   1  26
TORSDOF 8
ENDMDL
MODEL 8
REMARK VINA RESULT:      -7.2      1.698      2.401
REMARK  Name = 
REMARK  8 active torsions:
REMARK  status: ('A' for Active; 'I' for Inactive)
REMARK    1  A    between atoms: C_2  and  C_3
REMARK    2  A    between atoms: C_3  and  C_4
REMARK    3  A    between atoms: C_4  and  C_5
REMARK    4  A    between atoms: C_5  and  N_6
REMARK    5  A    between atoms: C_9  and  C_10
REMARK    6  A    between atoms: N_12  and  C_13
REMARK    7  A    between atoms: C_13  and  C_14
REMARK    8  A    between atoms: C_14  and  C_15
REMARK                            x       y       z     vdW  Elec       q    Type
REMARK                         _______ _______ _______ _____ _____    ______ ____
ROOT
ATOM      1  N   UNL     1      35.765  -0.120  16.922  0.00  0.00    +0.000 N 
ATOM      2  C   UNL     1      35.514   1.141  16.557  0.00  0.00    +0.000 A 
ATOM      3  N   UNL     1      34.358   1.918  16.913  0.00  0.00    +0.000 NA
ATOM      4  C   UNL     1      36.531   1.625  15.774  0.00  0.00    +0.000 A 
ATOM      5  C   UNL     1      37.447   0.580  15.666  0.00  0.00    +0.000 A 
ATOM      6  N   UNL     1      38.635   0.487  15.016  0.00  0.00    +0.000 NA
ATOM      7  C   UNL     1      39.308  -0.699  15.106  0.00  0.00    +0.000 A 
ATOM      8  C   UNL     1      40.524  -0.805  14.446  0.00  0.00    +0.000 A 
ATOM      9  C   UNL     1      41.201  -1.994  14.535  0.00  0.00    +0.000 A 
ATOM     10  C   UNL     1      40.731  -3.078  15.244  0.00  0.00    +0.000 A 
ATOM     11  C   UNL     1      39.531  -2.954  15.888  0.00  0.00    +0.000 A 
ATOM     12  C   UNL     1      38.807  -1.759  15.824  0.00  0.00    +0.000 A 
ATOM     13  N   UNL     1      37.622  -1.661  16.469  0.00  0.00    +0.000 NA
ATOM     14  C   UNL     1      36.951  -0.474  16.378  0.00  0.00    +0.000 A 
ENDROOT
BRANCH   4  15
ATOM     15  C   UNL     1      36.683   2.932  15.159  0.00  0.00    +0.000 C 
ATOM     16  O   UNL     1      36.027   3.261  14.140  0.00  0.00    +0.000 OA
ATOM     17  N   UNL     1      37.595   3.853  15.727  0.00  0.00    +0.000 NA
BRANCH  17  18
ATOM     18  C   UNL     1      37.748   5.173  15.105  0.00  0.00    +0.000 C 
BRANCH  18  19
ATOM     19  C   UNL     1      39.187   5.580  15.284  0.00  0.00    +0.000 C 
BRANCH  19  20
ATOM     20  C   UNL     1      39.395   5.996  16.710  0.00  0.00    +0.000 A 
ATOM     21  C   UNL     1      40.632   5.892  17.312  0.00  0.00    +0.000 A 
ATOM     22  C   UNL     1      40.835   6.273  18.624  0.00  0.00    +0.000 A 
ATOM     23  C   UNL     1      39.795   6.774  19.388  0.00  0.00    +0.000 A 
ATOM     24  C   UNL     1      38.560   6.876  18.782  0.00  0.00    +0.000 A 
ATOM     25  C   UNL     1      38.360   6.496  17.472  0.00  0.00    +0.000 A 
ENDBRANCH  19  20
ENDBRANCH  18  19
ENDBRANCH  17  18
ENDBRANCH   4  15
BRANCH   1  26
ATOM     26  C   UNL     1      34.934  -0.999  17.756  0.00  0.00    +0.000 C 
BRANCH  26  27
ATOM     27  C   UNL     1      33.872  -1.565  16.814  0.00  0.00    +0.000 C 
BRANCH  27  28
ATOM     28  C   UNL     1      32.886  -2.323  17.704  0.00  0.00    +0.000 C 
BRANCH  28  30
ATOM     29  C   UNL     1      30.528  -2.709  18.303  0.00  0.00    +0.000 C 
ATOM     30  C   UNL     1      31.471  -1.933  17.436  0.00  0.00    +0.000 C 
ENDBRANCH  28  30
ENDBRANCH  27  28
ENDBRANCH  26  27
ENDBRANCH   1  26
TORSDOF 8
ENDMDL
MODEL 9
REMARK VINA RESULT:      -7.1      1.535      2.512
REMARK  Name = 
REMARK  8 active torsions:
REMARK  status: ('A' for Active; 'I' for Inactive)
REMARK    1  A    between atoms: C_2  and  C_3
REMARK    2  A    between atoms: C_3  and  C_4
REMARK    3  A    between atoms: C_4  and  C_5
REMARK    4  A    between atoms: C_5  and  N_6
REMARK    5  A    between atoms: C_9  and  C_10
REMARK    6  A    between atoms: N_12  and  C_13
REMARK    7  A    between atoms: C_13  and  C_14
REMARK    8  A    between atoms: C_14  and  C_15
REMARK                            x       y       z     vdW  Elec       q    Type
REMARK                         _______ _______ _______ _____ _____    ______ ____
ROOT
ATOM      1  N   UNL     1      38.978  -1.424  15.112  0.00  0.00    +0.000 N 
ATOM      2  C   UNL     1      38.208  -0.331  15.128  0.00  0.00    +0.000 A 
ATOM      3  N   UNL     1      36.829  -0.265  15.531  0.00  0.00    +0.000 NA
ATOM      4  C   UNL     1      38.917   0.761  14.699  0.00  0.00    +0.000 A 
ATOM      5  C   UNL     1      40.195   0.285  14.408  0.00  0.00    +0.000 A 
ATOM      6  N   UNL     1      41.307   0.912  13.949  0.00  0.00    +0.000 NA
ATOM      7  C   UNL     1      42.425   0.149  13.762  0.00  0.00    +0.000 A 
ATOM      8  C   UNL     1      43.569   0.781  13.293  0.00  0.00    +0.000 A 
ATOM      9  C   UNL     1      44.692   0.017  13.106  0.00  0.00    +0.000 A 
ATOM     10  C   UNL     1      44.734  -1.337  13.359  0.00  0.00    +0.000 A 
ATOM     11  C   UNL     1      43.598  -1.941  13.821  0.00  0.00    +0.000 A 
ATOM     12  C   UNL     1      42.430  -1.200  14.027  0.00  0.00    +0.000 A 
ATOM     13  N   UNL     1      41.317  -1.820  14.484  0.00  0.00    +0.000 NA
ATOM     14  C   UNL     1      40.201  -1.055  14.670  0.00  0.00    +0.000 A 
ENDROOT
BRANCH   4  15
ATOM     15  C   UNL     1      38.492   2.143  14.555  0.00  0.00    +0.000 C 
ATOM     16  O   UNL     1      37.976   2.566  13.491  0.00  0.00    +0.000 OA
ATOM     17  N   UNL     1      38.664   3.028  15.645  0.00  0.00    +0.000 NA
BRANCH  17  18
ATOM     18  C   UNL     1      38.234   4.423  15.499  0.00  0.00    +0.000 C 
BRANCH  18  19
ATOM     19  C   UNL     1      39.482   5.263  15.417  0.00  0.00    +0.000 C 
BRANCH  19  20
ATOM     20  C   UNL     1      39.887   5.660  16.806  0.00  0.00    +0.000 A 
ATOM     21  C   UNL     1      39.018   5.523  17.870  0.00  0.00    +0.000 A 
ATOM     22  C   UNL     1      39.380   5.885  19.153  0.00  0.00    +0.000 A 
ATOM     23  C   UNL     1      40.635   6.404  19.418  0.00  0.00    +0.000 A 
ATOM     24  C   UNL     1      41.500   6.540  18.351  0.00  0.00    +0.000 A 
ATOM     25  C   UNL     1      41.137   6.176  17.072  0.00  0.00    +0.000 A 
ENDBRANCH  19  20
ENDBRANCH  18  19
ENDBRANCH  17  18
ENDBRANCH   4  15
BRANCH   1  26
ATOM     26  C   UNL     1      38.606  -2.793  15.494  0.00  0.00    +0.000 C 
BRANCH  26  27
ATOM     27  C   UNL     1      39.090  -2.957  16.934  0.00  0.00    +0.000 C 
BRANCH  27  28
ATOM     28  C   UNL     1      37.828  -2.983  17.797  0.00  0.00    +0.000 C 
BRANCH  28  30
ATOM     29  C   UNL     1      37.059  -1.035  19.096  0.00  0.00    +0.000 C 
ATOM     30  C   UNL     1      37.994  -2.205  19.060  0.00  0.00    +0.000 C 
ENDBRANCH  28  30
ENDBRANCH  27  28
ENDBRANCH  26  27
ENDBRANCH   1  26
TORSDOF 8
ENDMDL
MODEL 10
REMARK VINA RESULT:      -7.0      1.867      4.214
REMARK  Name = 
REMARK  8 active torsions:
REMARK  status: ('A' for Active; 'I' for Inactive)
REMARK    1  A    between atoms: C_2  and  C_3
REMARK    2  A    between atoms: C_3  and  C_4
REMARK    3  A    between atoms: C_4  and  C_5
REMARK    4  A    between atoms: C_5  and  N_6
REMARK    5  A    between atoms: C_9  and  C_10
REMARK    6  A    between atoms: N_12  and  C_13
REMARK    7  A    between atoms: C_13  and  C_14
REMARK    8  A    between atoms: C_14  and  C_15
REMARK                            x       y       z     vdW  Elec       q    Type
REMARK                         _______ _______ _______ _____ _____    ______ ____
ROOT
ATOM      1  N   UNL     1      38.438  -0.259  13.238  0.00  0.00    +0.000 N 
ATOM      2  C   UNL     1      38.036   1.004  13.418  0.00  0.00    +0.000 A 
ATOM      3  N   UNL     1      37.961   2.026  12.409  0.00  0.00    +0.000 NA
ATOM      4  C   UNL     1      37.690   1.214  14.727  0.00  0.00    +0.000 A 
ATOM      5  C   UNL     1      37.901  -0.005  15.370  0.00  0.00    +0.000 A 
ATOM      6  N   UNL     1      37.729  -0.384  16.661  0.00  0.00    +0.000 NA
ATOM      7  C   UNL     1      38.031  -1.678  16.980  0.00  0.00    +0.000 A 
ATOM      8  C   UNL     1      37.859  -2.077  18.298  0.00  0.00    +0.000 A 
ATOM      9  C   UNL     1      38.163  -3.375  18.620  0.00  0.00    +0.000 A 
ATOM     10  C   UNL     1      38.627  -4.290  17.702  0.00  0.00    +0.000 A 
ATOM     11  C   UNL     1      38.790  -3.879  16.409  0.00  0.00    +0.000 A 
ATOM     12  C   UNL     1      38.493  -2.564  16.036  0.00  0.00    +0.000 A 
ATOM     13  N   UNL     1      38.663  -2.179  14.750  0.00  0.00    +0.000 NA
ATOM     14  C   UNL     1      38.359  -0.886  14.433  0.00  0.00    +0.000 A 
ENDROOT
BRANCH   4  15
ATOM     15  C   UNL     1      37.201   2.421  15.372  0.00  0.00    +0.000 C 
ATOM     16  O   UNL     1      36.070   2.898  15.107  0.00  0.00    +0.000 OA
ATOM     17  N   UNL     1      38.025   3.070  16.322  0.00  0.00    +0.000 NA
BRANCH  17  18
ATOM     18  C   UNL     1      37.531   4.289  16.973  0.00  0.00    +0.000 C 
BRANCH  18  19
ATOM     19  C   UNL     1      38.513   5.386  16.656  0.00  0.00    +0.000 C 
BRANCH  19  20
ATOM     20  C   UNL     1      38.827   6.130  17.921  0.00  0.00    +0.000 A 
ATOM     21  C   UNL     1      39.882   5.755  18.728  0.00  0.00    +0.000 A 
ATOM     22  C   UNL     1      40.180   6.432  19.894  0.00  0.00    +0.000 A 
ATOM     23  C   UNL     1      39.424   7.518  20.298  0.00  0.00    +0.000 A 
ATOM     24  C   UNL     1      38.369   7.889  19.490  0.00  0.00    +0.000 A 
ATOM     25  C   UNL     1      38.075   7.212  18.325  0.00  0.00    +0.000 A 
ENDBRANCH  19  20
ENDBRANCH  18  19
ENDBRANCH  17  18
ENDBRANCH   4  15
BRANCH   1  26
ATOM     26  C   UNL     1      38.893  -0.891  11.992  0.00  0.00    +0.000 C 
BRANCH  26  27
ATOM     27  C   UNL     1      40.318  -0.381  11.776  0.00  0.00    +0.000 C 
BRANCH  27  28
ATOM     28  C   UNL     1      41.235  -1.411  12.435  0.00  0.00    +0.000 C 
BRANCH  28  30
ATOM     29  C   UNL     1      43.124  -1.713  13.988  0.00  0.00    +0.000 C 
ATOM     30  C   UNL     1      41.961  -0.848  13.611  0.00  0.00    +0.000 C 
ENDBRANCH  28  30
ENDBRANCH  27  28
ENDBRANCH  26  27
ENDBRANCH   1  26
TORSDOF 8
ENDMDL
