MODEL 1
REMARK VINA RESULT:      -7.3      0.000      0.000
REMARK  Name = 
REMARK  1 active torsions:
REMARK  status: ('A' for Active; 'I' for Inactive)
REMARK    1  A    between atoms: C_19  and  C_21
REMARK                            x       y       z     vdW  Elec       q    Type
REMARK                         _______ _______ _______ _____ _____    ______ ____
ROOT
ATOM      1  C   UNL     1      25.432  24.584  26.321  0.00  0.00    +0.000 C 
ATOM      2  C   UNL     1      27.044  24.421  26.275  0.00  0.00    +0.000 C 
ATOM      3  C   UNL     1      27.554  25.520  26.992  0.00  0.00    +0.000 C 
ATOM      4  C   UNL     1      27.967  25.504  28.207  0.00  0.00    +0.000 C 
ATOM      5  C   UNL     1      27.920  24.225  28.885  0.00  0.00    +0.000 A 
ATOM      6  O   UNL     1      28.229  23.942  30.134  0.00  0.00    +0.000 OA
ATOM      7  C   UNL     1      28.023  22.683  30.371  0.00  0.00    +0.000 A 
ATOM      8  C   UNL     1      27.551  22.110  29.189  0.00  0.00    +0.000 A 
ATOM      9  C   UNL     1      27.505  23.145  28.257  0.00  0.00    +0.000 A 
ATOM     10  C   UNL     1      27.218  22.971  26.728  0.00  0.00    +0.000 C 
ATOM     11  C   UNL     1      28.739  22.629  26.327  0.00  0.00    +0.000 C 
ATOM     12  C   UNL     1      29.399  23.768  25.662  0.00  0.00    +0.000 C 
ATOM     13  C   UNL     1      28.676  24.060  24.458  0.00  0.00    +0.000 C 
ATOM     14  C   UNL     1      28.698  22.978  23.470  0.00  0.00    +0.000 C 
ATOM     15  C   UNL     1      28.016  23.661  22.162  0.00  0.00    +0.000 C 
ATOM     16  C   UNL     1      26.500  23.642  22.710  0.00  0.00    +0.000 C 
ATOM     17  C   UNL     1      26.405  23.365  24.167  0.00  0.00    +0.000 C 
ATOM     18  C   UNL     1      27.223  24.645  24.707  0.00  0.00    +0.000 C 
ATOM     19  C   UNL     1      28.391  25.189  22.515  0.00  0.00    +0.000 C 
ATOM     20  O   UNL     1      27.319  25.966  22.621  0.00  0.00    +0.000 OA
ATOM     21  C   UNL     1      29.344  25.133  23.653  0.00  0.00    +0.000 C 
ENDROOT
BRANCH  19  22
ATOM     22  C   UNL     1      29.230  25.689  21.327  0.00  0.00    +0.000 C 
ATOM     23  O   UNL     1      29.740  24.622  20.599  0.00  0.00    +0.000 OA
ENDBRANCH  19  22
TORSDOF 1
ENDMDL
MODEL 2
REMARK VINA RESULT:      -7.3      2.032      3.591
REMARK  Name = 
REMARK  1 active torsions:
REMARK  status: ('A' for Active; 'I' for Inactive)
REMARK    1  A    between atoms: C_19  and  C_21
REMARK                            x       y       z     vdW  Elec       q    Type
REMARK                         _______ _______ _______ _____ _____    ______ ____
ROOT
ATOM      1  C   UNL     1      31.804  23.526  24.505  0.00  0.00    +0.000 C 
ATOM      2  C   UNL     1      30.354  23.555  25.227  0.00  0.00    +0.000 C 
ATOM      3  C   UNL     1      30.148  22.249  25.711  0.00  0.00    +0.000 C 
ATOM      4  C   UNL     1      30.319  21.856  26.921  0.00  0.00    +0.000 C 
ATOM      5  C   UNL     1      30.742  22.864  27.870  0.00  0.00    +0.000 A 
ATOM      6  O   UNL     1      31.039  22.723  29.147  0.00  0.00    +0.000 OA
ATOM      7  C   UNL     1      31.405  23.861  29.648  0.00  0.00    +0.000 A 
ATOM      8  C   UNL     1      31.338  24.808  28.625  0.00  0.00    +0.000 A 
ATOM      9  C   UNL     1      30.901  24.117  27.496  0.00  0.00    +0.000 A 
ATOM     10  C   UNL     1      30.489  24.776  26.137  0.00  0.00    +0.000 C 
ATOM     11  C   UNL     1      28.973  25.091  26.576  0.00  0.00    +0.000 C 
ATOM     12  C   UNL     1      28.017  24.158  25.951  0.00  0.00    +0.000 C 
ATOM     13  C   UNL     1      28.110  24.313  24.528  0.00  0.00    +0.000 C 
ATOM     14  C   UNL     1      27.719  25.639  24.044  0.00  0.00    +0.000 C 
ATOM     15  C   UNL     1      27.705  25.452  22.429  0.00  0.00    +0.000 C 
ATOM     16  C   UNL     1      29.305  25.434  22.230  0.00  0.00    +0.000 C 
ATOM     17  C   UNL     1      30.054  25.258  23.501  0.00  0.00    +0.000 C 
ATOM     18  C   UNL     1      29.483  23.808  23.915  0.00  0.00    +0.000 C 
ATOM     19  C   UNL     1      27.432  23.864  22.415  0.00  0.00    +0.000 C 
ATOM     20  O   UNL     1      28.389  23.187  21.789  0.00  0.00    +0.000 OA
ATOM     21  C   UNL     1      27.089  23.485  23.809  0.00  0.00    +0.000 C 
ENDROOT
BRANCH  19  22
ATOM     22  C   UNL     1      26.123  23.681  21.627  0.00  0.00    +0.000 C 
ATOM     23  O   UNL     1      25.299  22.751  22.248  0.00  0.00    +0.000 OA
ENDBRANCH  19  22
TORSDOF 1
ENDMDL
MODEL 3
REMARK VINA RESULT:      -7.2      1.500      6.037
REMARK  Name = 
REMARK  1 active torsions:
REMARK  status: ('A' for Active; 'I' for Inactive)
REMARK    1  A    between atoms: C_19  and  C_21
REMARK                            x       y       z     vdW  Elec       q    Type
REMARK                         _______ _______ _______ _____ _____    ______ ____
ROOT
ATOM      1  C   UNL     1      25.747  23.192  24.003  0.00  0.00    +0.000 C 
ATOM      2  C   UNL     1      27.028  23.990  24.592  0.00  0.00    +0.000 C 
ATOM      3  C   UNL     1      28.104  23.085  24.515  0.00  0.00    +0.000 C 
ATOM      4  C   UNL     1      29.011  23.065  23.606  0.00  0.00    +0.000 C 
ATOM      5  C   UNL     1      28.921  24.089  22.586  0.00  0.00    +0.000 A 
ATOM      6  O   UNL     1      29.680  24.263  21.523  0.00  0.00    +0.000 OA
ATOM      7  C   UNL     1      29.258  25.278  20.834  0.00  0.00    +0.000 A 
ATOM      8  C   UNL     1      28.148  25.800  21.501  0.00  0.00    +0.000 A 
ATOM      9  C   UNL     1      27.972  25.001  22.629  0.00  0.00    +0.000 A 
ATOM     10  C   UNL     1      26.970  25.294  23.795  0.00  0.00    +0.000 C 
ATOM     11  C   UNL     1      27.959  26.275  24.601  0.00  0.00    +0.000 C 
ATOM     12  C   UNL     1      28.528  25.620  25.793  0.00  0.00    +0.000 C 
ATOM     13  C   UNL     1      27.446  25.265  26.665  0.00  0.00    +0.000 C 
ATOM     14  C   UNL     1      26.695  26.411  27.183  0.00  0.00    +0.000 C 
ATOM     15  C   UNL     1      25.710  25.737  28.287  0.00  0.00    +0.000 C 
ATOM     16  C   UNL     1      24.690  25.060  27.238  0.00  0.00    +0.000 C 
ATOM     17  C   UNL     1      25.209  25.033  25.847  0.00  0.00    +0.000 C 
ATOM     18  C   UNL     1      26.512  24.116  26.095  0.00  0.00    +0.000 C 
ATOM     19  C   UNL     1      26.626  24.451  28.613  0.00  0.00    +0.000 C 
ATOM     20  O   UNL     1      26.000  23.304  28.372  0.00  0.00    +0.000 OA
ATOM     21  C   UNL     1      27.937  24.695  27.961  0.00  0.00    +0.000 C 
ENDROOT
BRANCH  19  22
ATOM     22  C   UNL     1      26.919  24.529  30.121  0.00  0.00    +0.000 C 
ATOM     23  O   UNL     1      25.965  23.827  30.846  0.00  0.00    +0.000 OA
ENDBRANCH  19  22
TORSDOF 1
ENDMDL
MODEL 4
REMARK VINA RESULT:      -7.1      1.441      6.197
REMARK  Name = 
REMARK  1 active torsions:
REMARK  status: ('A' for Active; 'I' for Inactive)
REMARK    1  A    between atoms: C_19  and  C_21
REMARK                            x       y       z     vdW  Elec       q    Type
REMARK                         _______ _______ _______ _____ _____    ______ ____
ROOT
ATOM      1  C   UNL     1      26.060  25.693  26.035  0.00  0.00    +0.000 C 
ATOM      2  C   UNL     1      26.846  24.276  25.997  0.00  0.00    +0.000 C 
ATOM      3  C   UNL     1      25.987  23.388  25.322  0.00  0.00    +0.000 C 
ATOM      4  C   UNL     1      26.078  23.039  24.090  0.00  0.00    +0.000 C 
ATOM      5  C   UNL     1      27.185  23.601  23.343  0.00  0.00    +0.000 A 
ATOM      6  O   UNL     1      27.478  23.453  22.067  0.00  0.00    +0.000 OA
ATOM      7  C   UNL     1      28.535  24.143  21.769  0.00  0.00    +0.000 A 
ATOM      8  C   UNL     1      28.958  24.780  22.937  0.00  0.00    +0.000 A 
ATOM      9  C   UNL     1      28.057  24.395  23.928  0.00  0.00    +0.000 A 
ATOM     10  C   UNL     1      28.212  24.697  25.456  0.00  0.00    +0.000 C 
ATOM     11  C   UNL     1      29.150  23.427  25.766  0.00  0.00    +0.000 C 
ATOM     12  C   UNL     1      28.412  22.358  26.464  0.00  0.00    +0.000 C 
ATOM     13  C   UNL     1      27.945  22.883  27.714  0.00  0.00    +0.000 C 
ATOM     14  C   UNL     1      29.015  23.270  28.637  0.00  0.00    +0.000 C 
ATOM     15  C   UNL     1      28.214  23.601  30.012  0.00  0.00    +0.000 C 
ATOM     16  C   UNL     1      27.598  25.013  29.534  0.00  0.00    +0.000 C 
ATOM     17  C   UNL     1      27.712  25.238  28.070  0.00  0.00    +0.000 C 
ATOM     18  C   UNL     1      26.821  23.993  27.566  0.00  0.00    +0.000 C 
ATOM     19  C   UNL     1      26.935  22.661  29.729  0.00  0.00    +0.000 C 
ATOM     20  O   UNL     1      25.794  23.342  29.717  0.00  0.00    +0.000 OA
ATOM     21  C   UNL     1      27.279  21.830  28.548  0.00  0.00    +0.000 C 
ENDROOT
BRANCH  19  22
ATOM     22  C   UNL     1      26.889  21.669  30.904  0.00  0.00    +0.000 C 
ATOM     23  O   UNL     1      25.594  21.211  31.112  0.00  0.00    +0.000 OA
ENDBRANCH  19  22
TORSDOF 1
ENDMDL
MODEL 5
REMARK VINA RESULT:      -7.1      1.426      2.371
REMARK  Name = 
REMARK  1 active torsions:
REMARK  status: ('A' for Active; 'I' for Inactive)
REMARK    1  A    between atoms: C_19  and  C_21
REMARK                            x       y       z     vdW  Elec       q    Type
REMARK                         _______ _______ _______ _____ _____    ______ ____
ROOT
ATOM      1  C   UNL     1      29.242  25.536  27.509  0.00  0.00    +0.000 C 
ATOM      2  C   UNL     1      28.394  24.316  26.861  0.00  0.00    +0.000 C 
ATOM      3  C   UNL     1      29.158  23.158  27.101  0.00  0.00    +0.000 C 
ATOM      4  C   UNL     1      28.957  22.300  28.035  0.00  0.00    +0.000 C 
ATOM      5  C   UNL     1      27.822  22.546  28.900  0.00  0.00    +0.000 A 
ATOM      6  O   UNL     1      27.426  21.863  29.955  0.00  0.00    +0.000 OA
ATOM      7  C   UNL     1      26.381  22.421  30.481  0.00  0.00    +0.000 A 
ATOM      8  C   UNL     1      26.077  23.544  29.711  0.00  0.00    +0.000 A 
ATOM      9  C   UNL     1      27.034  23.581  28.698  0.00  0.00    +0.000 A 
ATOM     10  C   UNL     1      27.010  24.548  27.468  0.00  0.00    +0.000 C 
ATOM     11  C   UNL     1      26.044  23.627  26.570  0.00  0.00    +0.000 C 
ATOM     12  C   UNL     1      26.785  22.935  25.500  0.00  0.00    +0.000 C 
ATOM     13  C   UNL     1      27.370  23.930  24.648  0.00  0.00    +0.000 C 
ATOM     14  C   UNL     1      26.392  24.768  23.951  0.00  0.00    +0.000 C 
ATOM     15  C   UNL     1      27.311  25.622  22.916  0.00  0.00    +0.000 C 
ATOM     16  C   UNL     1      27.949  26.618  24.012  0.00  0.00    +0.000 C 
ATOM     17  C   UNL     1      27.733  26.168  25.412  0.00  0.00    +0.000 C 
ATOM     18  C   UNL     1      28.527  24.767  25.338  0.00  0.00    +0.000 C 
ATOM     19  C   UNL     1      28.521  24.563  22.804  0.00  0.00    +0.000 C 
ATOM     20  O   UNL     1      29.687  25.079  23.179  0.00  0.00    +0.000 OA
ATOM     21  C   UNL     1      28.050  23.318  23.461  0.00  0.00    +0.000 C 
ENDROOT
BRANCH  19  22
ATOM     22  C   UNL     1      28.614  24.205  21.310  0.00  0.00    +0.000 C 
ATOM     23  O   UNL     1      29.771  24.728  20.749  0.00  0.00    +0.000 OA
ENDBRANCH  19  22
TORSDOF 1
ENDMDL
MODEL 6
REMARK VINA RESULT:      -6.9      1.564      2.504
REMARK  Name = 
REMARK  1 active torsions:
REMARK  status: ('A' for Active; 'I' for Inactive)
REMARK    1  A    between atoms: C_19  and  C_21
REMARK                            x       y       z     vdW  Elec       q    Type
REMARK                         _______ _______ _______ _____ _____    ______ ____
ROOT
ATOM      1  C   UNL     1      27.806  21.939  26.952  0.00  0.00    +0.000 C 
ATOM      2  C   UNL     1      27.551  23.513  26.663  0.00  0.00    +0.000 C 
ATOM      3  C   UNL     1      26.153  23.661  26.591  0.00  0.00    +0.000 C 
ATOM      4  C   UNL     1      25.390  24.098  27.526  0.00  0.00    +0.000 C 
ATOM      5  C   UNL     1      26.044  24.494  28.757  0.00  0.00    +0.000 A 
ATOM      6  O   UNL     1      25.502  24.921  29.879  0.00  0.00    +0.000 OA
ATOM      7  C   UNL     1      26.423  25.146  30.763  0.00  0.00    +0.000 A 
ATOM      8  C   UNL     1      27.650  24.846  30.169  0.00  0.00    +0.000 A 
ATOM      9  C   UNL     1      27.354  24.433  28.872  0.00  0.00    +0.000 A 
ATOM     10  C   UNL     1      28.409  24.166  27.746  0.00  0.00    +0.000 C 
ATOM     11  C   UNL     1      28.515  25.700  27.272  0.00  0.00    +0.000 C 
ATOM     12  C   UNL     1      27.809  25.929  25.998  0.00  0.00    +0.000 C 
ATOM     13  C   UNL     1      28.425  25.109  24.995  0.00  0.00    +0.000 C 
ATOM     14  C   UNL     1      29.824  25.450  24.721  0.00  0.00    +0.000 C 
ATOM     15  C   UNL     1      30.176  24.537  23.422  0.00  0.00    +0.000 C 
ATOM     16  C   UNL     1      30.275  23.130  24.203  0.00  0.00    +0.000 C 
ATOM     17  C   UNL     1      29.716  23.181  25.579  0.00  0.00    +0.000 C 
ATOM     18  C   UNL     1      28.193  23.554  25.204  0.00  0.00    +0.000 C 
ATOM     19  C   UNL     1      28.673  24.405  22.856  0.00  0.00    +0.000 C 
ATOM     20  O   UNL     1      28.269  23.142  22.769  0.00  0.00    +0.000 OA
ATOM     21  C   UNL     1      27.847  25.362  23.635  0.00  0.00    +0.000 C 
ENDROOT
BRANCH  19  22
ATOM     22  C   UNL     1      28.717  24.993  21.436  0.00  0.00    +0.000 C 
ATOM     23  O   UNL     1      29.766  24.448  20.708  0.00  0.00    +0.000 OA
ENDBRANCH  19  22
TORSDOF 1
ENDMDL
MODEL 7
REMARK VINA RESULT:      -6.9      2.319      5.718
REMARK  Name = 
REMARK  1 active torsions:
REMARK  status: ('A' for Active; 'I' for Inactive)
REMARK    1  A    between atoms: C_19  and  C_21
REMARK                            x       y       z     vdW  Elec       q    Type
REMARK                         _______ _______ _______ _____ _____    ______ ____
ROOT
ATOM      1  C   UNL     1      27.602  25.570  26.206  0.00  0.00    +0.000 C 
ATOM      2  C   UNL     1      28.227  24.181  25.651  0.00  0.00    +0.000 C 
ATOM      3  C   UNL     1      27.234  23.207  25.872  0.00  0.00    +0.000 C 
ATOM      4  C   UNL     1      26.417  22.749  24.994  0.00  0.00    +0.000 C 
ATOM      5  C   UNL     1      26.555  23.275  23.651  0.00  0.00    +0.000 A 
ATOM      6  O   UNL     1      25.822  23.020  22.586  0.00  0.00    +0.000 OA
ATOM      7  C   UNL     1      26.247  23.712  21.576  0.00  0.00    +0.000 A 
ATOM      8  C   UNL     1      27.334  24.467  22.017  0.00  0.00    +0.000 A 
ATOM      9  C   UNL     1      27.498  24.147  23.364  0.00  0.00    +0.000 A 
ATOM     10  C   UNL     1      28.703  24.593  24.258  0.00  0.00    +0.000 C 
ATOM     11  C   UNL     1      29.673  23.387  23.817  0.00  0.00    +0.000 C 
ATOM     12  C   UNL     1      29.790  22.365  24.873  0.00  0.00    +0.000 C 
ATOM     13  C   UNL     1      30.354  22.988  26.035  0.00  0.00    +0.000 C 
ATOM     14  C   UNL     1      31.716  23.491  25.842  0.00  0.00    +0.000 C 
ATOM     15  C   UNL     1      32.165  23.922  27.344  0.00  0.00    +0.000 C 
ATOM     16  C   UNL     1      31.275  25.263  27.427  0.00  0.00    +0.000 C 
ATOM     17  C   UNL     1      30.250  25.356  26.355  0.00  0.00    +0.000 C 
ATOM     18  C   UNL     1      29.393  24.042  26.729  0.00  0.00    +0.000 C 
ATOM     19  C   UNL     1      31.186  22.920  28.140  0.00  0.00    +0.000 C 
ATOM     20  O   UNL     1      30.353  23.560  28.954  0.00  0.00    +0.000 OA
ATOM     21  C   UNL     1      30.618  21.995  27.127  0.00  0.00    +0.000 C 
ENDROOT
BRANCH  19  22
ATOM     22  C   UNL     1      32.111  22.040  28.998  0.00  0.00    +0.000 C 
ATOM     23  O   UNL     1      33.389  22.580  29.058  0.00  0.00    +0.000 OA
ENDBRANCH  19  22
TORSDOF 1
ENDMDL
MODEL 8
REMARK VINA RESULT:      -6.8      2.511      3.071
REMARK  Name = 
REMARK  1 active torsions:
REMARK  status: ('A' for Active; 'I' for Inactive)
REMARK    1  A    between atoms: C_19  and  C_21
REMARK                            x       y       z     vdW  Elec       q    Type
REMARK                         _______ _______ _______ _____ _____    ______ ____
ROOT
ATOM      1  C   UNL     1      29.256  25.178  27.768  0.00  0.00    +0.000 C 
ATOM      2  C   UNL     1      30.203  24.431  26.686  0.00  0.00    +0.000 C 
ATOM      3  C   UNL     1      31.388  25.190  26.636  0.00  0.00    +0.000 C 
ATOM      4  C   UNL     1      32.490  24.909  27.230  0.00  0.00    +0.000 C 
ATOM      5  C   UNL     1      32.511  23.682  28.000  0.00  0.00    +0.000 A 
ATOM      6  O   UNL     1      33.483  23.190  28.741  0.00  0.00    +0.000 OA
ATOM      7  C   UNL     1      33.103  22.083  29.298  0.00  0.00    +0.000 A 
ATOM      8  C   UNL     1      31.792  21.839  28.886  0.00  0.00    +0.000 A 
ATOM      9  C   UNL     1      31.455  22.898  28.045  0.00  0.00    +0.000 A 
ATOM     10  C   UNL     1      30.153  22.985  27.181  0.00  0.00    +0.000 C 
ATOM     11  C   UNL     1      30.737  22.141  25.942  0.00  0.00    +0.000 C 
ATOM     12  C   UNL     1      31.072  23.008  24.797  0.00  0.00    +0.000 C 
ATOM     13  C   UNL     1      29.869  23.659  24.365  0.00  0.00    +0.000 C 
ATOM     14  C   UNL     1      28.843  22.743  23.860  0.00  0.00    +0.000 C 
ATOM     15  C   UNL     1      27.722  23.749  23.248  0.00  0.00    +0.000 C 
ATOM     16  C   UNL     1      27.124  24.244  24.661  0.00  0.00    +0.000 C 
ATOM     17  C   UNL     1      27.984  23.889  25.820  0.00  0.00    +0.000 C 
ATOM     18  C   UNL     1      29.302  24.717  25.402  0.00  0.00    +0.000 C 
ATOM     19  C   UNL     1      28.708  24.987  22.944  0.00  0.00    +0.000 C 
ATOM     20  O   UNL     1      28.350  26.095  23.586  0.00  0.00    +0.000 OA
ATOM     21  C   UNL     1      30.090  24.476  23.128  0.00  0.00    +0.000 C 
ENDROOT
BRANCH  19  22
ATOM     22  C   UNL     1      28.585  25.247  21.433  0.00  0.00    +0.000 C 
ATOM     23  O   UNL     1      29.663  24.700  20.749  0.00  0.00    +0.000 OA
ENDBRANCH  19  22
TORSDOF 1
ENDMDL
MODEL 9
REMARK VINA RESULT:      -6.8      1.665      2.531
REMARK  Name = 
REMARK  1 active torsions:
REMARK  status: ('A' for Active; 'I' for Inactive)
REMARK    1  A    between atoms: C_19  and  C_21
REMARK                            x       y       z     vdW  Elec       q    Type
REMARK                         _______ _______ _______ _____ _____    ______ ____
ROOT
ATOM      1  C   UNL     1      28.123  26.087  27.851  0.00  0.00    +0.000 C 
ATOM      2  C   UNL     1      28.526  24.640  27.241  0.00  0.00    +0.000 C 
ATOM      3  C   UNL     1      29.910  24.709  26.994  0.00  0.00    +0.000 C 
ATOM      4  C   UNL     1      30.836  24.228  27.742  0.00  0.00    +0.000 C 
ATOM      5  C   UNL     1      30.401  23.533  28.937  0.00  0.00    +0.000 A 
ATOM      6  O   UNL     1      31.133  22.998  29.893  0.00  0.00    +0.000 OA
ATOM      7  C   UNL     1      30.369  22.493  30.810  0.00  0.00    +0.000 A 
ATOM      8  C   UNL     1      29.048  22.714  30.420  0.00  0.00    +0.000 A 
ATOM      9  C   UNL     1      29.120  23.386  29.200  0.00  0.00    +0.000 A 
ATOM     10  C   UNL     1      27.902  23.692  28.266  0.00  0.00    +0.000 C 
ATOM     11  C   UNL     1      27.921  22.266  27.521  0.00  0.00    +0.000 C 
ATOM     12  C   UNL     1      28.476  22.366  26.159  0.00  0.00    +0.000 C 
ATOM     13  C   UNL     1      27.640  23.253  25.402  0.00  0.00    +0.000 C 
ATOM     14  C   UNL     1      26.268  22.770  25.219  0.00  0.00    +0.000 C 
ATOM     15  C   UNL     1      25.641  23.835  24.163  0.00  0.00    +0.000 C 
ATOM     16  C   UNL     1      25.477  25.055  25.205  0.00  0.00    +0.000 C 
ATOM     17  C   UNL     1      26.214  24.845  26.478  0.00  0.00    +0.000 C 
ATOM     18  C   UNL     1      27.708  24.764  25.878  0.00  0.00    +0.000 C 
ATOM     19  C   UNL     1      27.031  24.277  23.476  0.00  0.00    +0.000 C 
ATOM     20  O   UNL     1      27.265  25.581  23.589  0.00  0.00    +0.000 OA
ATOM     21  C   UNL     1      28.061  23.326  23.966  0.00  0.00    +0.000 C 
ENDROOT
BRANCH  19  22
ATOM     22  C   UNL     1      26.872  23.946  21.982  0.00  0.00    +0.000 C 
ATOM     23  O   UNL     1      25.748  23.160  21.768  0.00  0.00    +0.000 OA
ENDBRANCH  19  22
TORSDOF 1
ENDMDL
MODEL 10
REMARK VINA RESULT:      -6.7      1.312      6.090
REMARK  Name = 
REMARK  1 active torsions:
REMARK  status: ('A' for Active; 'I' for Inactive)
REMARK    1  A    between atoms: C_19  and  C_21
REMARK                            x       y       z     vdW  Elec       q    Type
REMARK                         _______ _______ _______ _____ _____    ______ ____
ROOT
ATOM      1  C   UNL     1      30.244  22.493  26.153  0.00  0.00    +0.000 C 
ATOM      2  C   UNL     1      29.199  23.726  26.030  0.00  0.00    +0.000 C 
ATOM      3  C   UNL     1      29.993  24.875  25.849  0.00  0.00    +0.000 C 
ATOM      4  C   UNL     1      30.231  25.461  24.732  0.00  0.00    +0.000 C 
ATOM      5  C   UNL     1      29.600  24.891  23.560  0.00  0.00    +0.000 A 
ATOM      6  O   UNL     1      29.716  25.258  22.300  0.00  0.00    +0.000 OA
ATOM      7  C   UNL     1      29.013  24.476  21.541  0.00  0.00    +0.000 A 
ATOM      8  C   UNL     1      28.395  23.538  22.369  0.00  0.00    +0.000 A 
ATOM      9  C   UNL     1      28.801  23.850  23.665  0.00  0.00    +0.000 A 
ATOM     10  C   UNL     1      28.230  23.201  24.970  0.00  0.00    +0.000 C 
ATOM     11  C   UNL     1      26.967  24.191  25.090  0.00  0.00    +0.000 C 
ATOM     12  C   UNL     1      27.156  25.195  26.153  0.00  0.00    +0.000 C 
ATOM     13  C   UNL     1      27.298  24.501  27.400  0.00  0.00    +0.000 C 
ATOM     14  C   UNL     1      26.109  23.744  27.801  0.00  0.00    +0.000 C 
ATOM     15  C   UNL     1      26.470  23.267  29.313  0.00  0.00    +0.000 C 
ATOM     16  C   UNL     1      27.527  22.122  28.901  0.00  0.00    +0.000 C 
ATOM     17  C   UNL     1      27.957  22.203  27.481  0.00  0.00    +0.000 C 
ATOM     18  C   UNL     1      28.639  23.663  27.521  0.00  0.00    +0.000 C 
ATOM     19  C   UNL     1      27.506  24.454  29.655  0.00  0.00    +0.000 C 
ATOM     20  O   UNL     1      28.716  24.001  29.967  0.00  0.00    +0.000 OA
ATOM     21  C   UNL     1      27.380  25.448  28.559  0.00  0.00    +0.000 C 
ENDROOT
BRANCH  19  22
ATOM     22  C   UNL     1      26.925  25.160  30.892  0.00  0.00    +0.000 C 
ATOM     23  O   UNL     1      25.726  24.575  31.277  0.00  0.00    +0.000 OA
ENDBRANCH  19  22
TORSDOF 1
ENDMDL
