MODEL 1
REMARK VINA RESULT:      -7.1      0.000      0.000
REMARK  Name = 
REMARK  1 active torsions:
REMARK  status: ('A' for Active; 'I' for Inactive)
REMARK    1  A    between atoms: C_2  and  C_3
REMARK                            x       y       z     vdW  Elec       q    Type
REMARK                         _______ _______ _______ _____ _____    ______ ____
ROOT
ATOM      1  C   UNL     1      26.889  23.622  29.523  0.00  0.00    +0.000 C 
ATOM      2  O   UNL     1      27.913  24.217  30.290  0.00  0.00    +0.000 OA
ATOM      3  C   UNL     1      25.745  24.620  29.560  0.00  0.00    +0.000 C 
ATOM      4  C   UNL     1      25.887  25.386  28.244  0.00  0.00    +0.000 C 
ATOM      5  C   UNL     1      25.925  24.044  27.356  0.00  0.00    +0.000 C 
ATOM      6  C   UNL     1      26.729  24.690  26.050  0.00  0.00    +0.000 C 
ATOM      7  C   UNL     1      25.390  25.235  25.331  0.00  0.00    +0.000 C 
ATOM      8  C   UNL     1      26.016  25.830  24.059  0.00  0.00    +0.000 C 
ATOM      9  C   UNL     1      27.077  24.936  23.539  0.00  0.00    +0.000 A 
ATOM     10  C   UNL     1      27.772  25.417  22.426  0.00  0.00    +0.000 A 
ATOM     11  C   UNL     1      28.783  24.696  21.829  0.00  0.00    +0.000 A 
ATOM     12  O   UNL     1      29.484  25.179  20.709  0.00  0.00    +0.000 OA
ATOM     13  C   UNL     1      29.124  23.461  22.344  0.00  0.00    +0.000 A 
ATOM     14  C   UNL     1      28.426  22.991  23.453  0.00  0.00    +0.000 A 
ATOM     15  C   UNL     1      27.439  23.735  24.006  0.00  0.00    +0.000 A 
ATOM     16  C   UNL     1      26.653  23.195  25.249  0.00  0.00    +0.000 C 
ATOM     17  C   UNL     1      27.942  22.609  26.020  0.00  0.00    +0.000 C 
ATOM     18  C   UNL     1      27.478  22.261  27.446  0.00  0.00    +0.000 C 
ATOM     19  C   UNL     1      27.270  23.554  28.101  0.00  0.00    +0.000 C 
ATOM     20  C   UNL     1      28.406  24.457  27.861  0.00  0.00    +0.000 C 
ENDROOT
BRANCH   1  22
ATOM     21  C   UNL     1      26.270  21.318  30.645  0.00  0.00    +0.000 C 
ATOM     22  C   UNL     1      26.562  22.360  30.135  0.00  0.00    +0.000 C 
ENDBRANCH   1  22
TORSDOF 1
ENDMDL
MODEL 2
REMARK VINA RESULT:      -7.0      1.702      6.479
REMARK  Name = 
REMARK  1 active torsions:
REMARK  status: ('A' for Active; 'I' for Inactive)
REMARK    1  A    between atoms: C_2  and  C_3
REMARK                            x       y       z     vdW  Elec       q    Type
REMARK                         _______ _______ _______ _____ _____    ______ ____
ROOT
ATOM      1  C   UNL     1      29.945  24.291  23.978  0.00  0.00    +0.000 C 
ATOM      2  O   UNL     1      31.007  25.211  24.101  0.00  0.00    +0.000 OA
ATOM      3  C   UNL     1      30.552  22.945  24.335  0.00  0.00    +0.000 C 
ATOM      4  C   UNL     1      30.167  22.750  25.802  0.00  0.00    +0.000 C 
ATOM      5  C   UNL     1      28.605  23.024  25.527  0.00  0.00    +0.000 C 
ATOM      6  C   UNL     1      28.210  23.497  27.073  0.00  0.00    +0.000 C 
ATOM      7  C   UNL     1      27.945  21.995  27.604  0.00  0.00    +0.000 C 
ATOM      8  C   UNL     1      27.520  22.313  29.047  0.00  0.00    +0.000 C 
ATOM      9  C   UNL     1      26.634  23.501  29.075  0.00  0.00    +0.000 A 
ATOM     10  C   UNL     1      26.249  23.931  30.348  0.00  0.00    +0.000 A 
ATOM     11  C   UNL     1      25.425  25.019  30.532  0.00  0.00    +0.000 A 
ATOM     12  O   UNL     1      25.037  25.453  31.814  0.00  0.00    +0.000 OA
ATOM     13  C   UNL     1      24.963  25.709  29.429  0.00  0.00    +0.000 A 
ATOM     14  C   UNL     1      25.353  25.273  28.166  0.00  0.00    +0.000 A 
ATOM     15  C   UNL     1      26.164  24.198  28.033  0.00  0.00    +0.000 A 
ATOM     16  C   UNL     1      26.591  23.709  26.607  0.00  0.00    +0.000 C 
ATOM     17  C   UNL     1      26.858  25.179  26.000  0.00  0.00    +0.000 C 
ATOM     18  C   UNL     1      27.582  24.972  24.656  0.00  0.00    +0.000 C 
ATOM     19  C   UNL     1      28.927  24.521  25.017  0.00  0.00    +0.000 C 
ATOM     20  C   UNL     1      29.500  25.365  26.077  0.00  0.00    +0.000 C 
ENDROOT
BRANCH   1  22
ATOM     21  C   UNL     1      29.087  24.420  21.488  0.00  0.00    +0.000 C 
ATOM     22  C   UNL     1      29.467  24.355  22.620  0.00  0.00    +0.000 C 
ENDBRANCH   1  22
TORSDOF 1
ENDMDL
MODEL 3
REMARK VINA RESULT:      -7.0      4.011      5.803
REMARK  Name = 
REMARK  1 active torsions:
REMARK  status: ('A' for Active; 'I' for Inactive)
REMARK    1  A    between atoms: C_2  and  C_3
REMARK                            x       y       z     vdW  Elec       q    Type
REMARK                         _______ _______ _______ _____ _____    ______ ____
ROOT
ATOM      1  C   UNL     1      33.698  24.923  26.595  0.00  0.00    +0.000 C 
ATOM      2  O   UNL     1      33.747  26.310  26.848  0.00  0.00    +0.000 OA
ATOM      3  C   UNL     1      33.573  24.281  27.966  0.00  0.00    +0.000 C 
ATOM      4  C   UNL     1      32.074  24.014  28.107  0.00  0.00    +0.000 C 
ATOM      5  C   UNL     1      31.984  23.234  26.701  0.00  0.00    +0.000 C 
ATOM      6  C   UNL     1      30.361  23.488  26.436  0.00  0.00    +0.000 C 
ATOM      7  C   UNL     1      29.888  22.198  27.284  0.00  0.00    +0.000 C 
ATOM      8  C   UNL     1      28.369  22.304  27.070  0.00  0.00    +0.000 C 
ATOM      9  C   UNL     1      28.069  22.682  25.669  0.00  0.00    +0.000 A 
ATOM     10  C   UNL     1      26.717  22.885  25.380  0.00  0.00    +0.000 A 
ATOM     11  C   UNL     1      26.285  23.237  24.120  0.00  0.00    +0.000 A 
ATOM     12  O   UNL     1      24.924  23.442  23.828  0.00  0.00    +0.000 OA
ATOM     13  C   UNL     1      27.212  23.395  23.110  0.00  0.00    +0.000 A 
ATOM     14  C   UNL     1      28.556  23.191  23.408  0.00  0.00    +0.000 A 
ATOM     15  C   UNL     1      28.934  22.845  24.661  0.00  0.00    +0.000 A 
ATOM     16  C   UNL     1      30.449  22.609  24.985  0.00  0.00    +0.000 C 
ATOM     17  C   UNL     1      30.999  23.869  24.143  0.00  0.00    +0.000 C 
ATOM     18  C   UNL     1      32.478  24.044  24.533  0.00  0.00    +0.000 C 
ATOM     19  C   UNL     1      32.449  24.558  25.904  0.00  0.00    +0.000 C 
ATOM     20  C   UNL     1      31.485  25.661  26.034  0.00  0.00    +0.000 C 
ENDROOT
BRANCH   1  22
ATOM     21  C   UNL     1      35.928  24.258  25.357  0.00  0.00    +0.000 C 
ATOM     22  C   UNL     1      34.912  24.562  25.908  0.00  0.00    +0.000 C 
ENDBRANCH   1  22
TORSDOF 1
ENDMDL
MODEL 4
REMARK VINA RESULT:      -6.8      2.438      3.303
REMARK  Name = 
REMARK  1 active torsions:
REMARK  status: ('A' for Active; 'I' for Inactive)
REMARK    1  A    between atoms: C_2  and  C_3
REMARK                            x       y       z     vdW  Elec       q    Type
REMARK                         _______ _______ _______ _____ _____    ______ ____
ROOT
ATOM      1  C   UNL     1      30.861  23.113  29.301  0.00  0.00    +0.000 C 
ATOM      2  O   UNL     1      31.100  24.339  29.955  0.00  0.00    +0.000 OA
ATOM      3  C   UNL     1      29.583  22.580  29.925  0.00  0.00    +0.000 C 
ATOM      4  C   UNL     1      28.494  22.989  28.933  0.00  0.00    +0.000 C 
ATOM      5  C   UNL     1      29.261  22.335  27.677  0.00  0.00    +0.000 C 
ATOM      6  C   UNL     1      28.548  23.271  26.499  0.00  0.00    +0.000 C 
ATOM      7  C   UNL     1      27.263  22.308  26.330  0.00  0.00    +0.000 C 
ATOM      8  C   UNL     1      26.533  23.064  25.208  0.00  0.00    +0.000 C 
ATOM      9  C   UNL     1      27.500  23.544  24.193  0.00  0.00    +0.000 A 
ATOM     10  C   UNL     1      26.955  24.316  23.164  0.00  0.00    +0.000 A 
ATOM     11  C   UNL     1      27.730  24.829  22.147  0.00  0.00    +0.000 A 
ATOM     12  O   UNL     1      27.182  25.607  21.110  0.00  0.00    +0.000 OA
ATOM     13  C   UNL     1      29.087  24.575  22.141  0.00  0.00    +0.000 A 
ATOM     14  C   UNL     1      29.621  23.805  23.171  0.00  0.00    +0.000 A 
ATOM     15  C   UNL     1      28.819  23.322  24.149  0.00  0.00    +0.000 A 
ATOM     16  C   UNL     1      29.428  22.450  25.300  0.00  0.00    +0.000 C 
ATOM     17  C   UNL     1      30.747  23.351  25.515  0.00  0.00    +0.000 C 
ATOM     18  C   UNL     1      31.402  22.863  26.820  0.00  0.00    +0.000 C 
ATOM     19  C   UNL     1      30.514  23.331  27.886  0.00  0.00    +0.000 C 
ATOM     20  C   UNL     1      30.150  24.742  27.689  0.00  0.00    +0.000 C 
ENDROOT
BRANCH   1  22
ATOM     21  C   UNL     1      32.943  21.559  29.746  0.00  0.00    +0.000 C 
ATOM     22  C   UNL     1      32.002  22.264  29.533  0.00  0.00    +0.000 C 
ENDBRANCH   1  22
TORSDOF 1
ENDMDL
MODEL 5
REMARK VINA RESULT:      -6.5     17.080     19.030
REMARK  Name = 
REMARK  1 active torsions:
REMARK  status: ('A' for Active; 'I' for Inactive)
REMARK    1  A    between atoms: C_2  and  C_3
REMARK                            x       y       z     vdW  Elec       q    Type
REMARK                         _______ _______ _______ _____ _____    ______ ____
ROOT
ATOM      1  C   UNL     1      24.994  10.300  37.787  0.00  0.00    +0.000 C 
ATOM      2  O   UNL     1      25.488  10.075  36.485  0.00  0.00    +0.000 OA
ATOM      3  C   UNL     1      25.376  11.735  38.107  0.00  0.00    +0.000 C 
ATOM      4  C   UNL     1      24.104  12.528  37.801  0.00  0.00    +0.000 C 
ATOM      5  C   UNL     1      23.180  11.582  38.720  0.00  0.00    +0.000 C 
ATOM      6  C   UNL     1      21.738  11.911  37.958  0.00  0.00    +0.000 C 
ATOM      7  C   UNL     1      21.424  13.227  38.839  0.00  0.00    +0.000 C 
ATOM      8  C   UNL     1      20.059  13.606  38.241  0.00  0.00    +0.000 C 
ATOM      9  C   UNL     1      19.237  12.392  38.019  0.00  0.00    +0.000 A 
ATOM     10  C   UNL     1      18.002  12.610  37.402  0.00  0.00    +0.000 A 
ATOM     11  C   UNL     1      17.128  11.579  37.135  0.00  0.00    +0.000 A 
ATOM     12  O   UNL     1      15.884  11.797  36.514  0.00  0.00    +0.000 OA
ATOM     13  C   UNL     1      17.480  10.291  37.484  0.00  0.00    +0.000 A 
ATOM     14  C   UNL     1      18.712  10.084  38.097  0.00  0.00    +0.000 A 
ATOM     15  C   UNL     1      19.538  11.128  38.341  0.00  0.00    +0.000 A 
ATOM     16  C   UNL     1      20.920  10.887  39.039  0.00  0.00    +0.000 C 
ATOM     17  C   UNL     1      21.296   9.556  38.212  0.00  0.00    +0.000 C 
ATOM     18  C   UNL     1      22.778   9.260  38.508  0.00  0.00    +0.000 C 
ATOM     19  C   UNL     1      23.520  10.302  37.797  0.00  0.00    +0.000 C 
ATOM     20  C   UNL     1      23.028  10.456  36.420  0.00  0.00    +0.000 C 
ENDROOT
BRANCH   1  22
ATOM     21  C   UNL     1      26.147   8.555  39.392  0.00  0.00    +0.000 C 
ATOM     22  C   UNL     1      25.615   9.339  38.662  0.00  0.00    +0.000 C 
ENDBRANCH   1  22
TORSDOF 1
ENDMDL
MODEL 6
REMARK VINA RESULT:      -6.5     17.455     18.817
REMARK  Name = 
REMARK  1 active torsions:
REMARK  status: ('A' for Active; 'I' for Inactive)
REMARK    1  A    between atoms: C_2  and  C_3
REMARK                            x       y       z     vdW  Elec       q    Type
REMARK                         _______ _______ _______ _____ _____    ______ ____
ROOT
ATOM      1  C   UNL     1      19.608  10.058  37.690  0.00  0.00    +0.000 C 
ATOM      2  O   UNL     1      19.106   9.155  38.650  0.00  0.00    +0.000 OA
ATOM      3  C   UNL     1      19.257  11.434  38.229  0.00  0.00    +0.000 C 
ATOM      4  C   UNL     1      20.545  11.897  38.911  0.00  0.00    +0.000 C 
ATOM      5  C   UNL     1      21.450  11.608  37.612  0.00  0.00    +0.000 C 
ATOM      6  C   UNL     1      22.897  11.428  38.413  0.00  0.00    +0.000 C 
ATOM      7  C   UNL     1      23.241  13.005  38.412  0.00  0.00    +0.000 C 
ATOM      8  C   UNL     1      24.614  12.960  39.105  0.00  0.00    +0.000 C 
ATOM      9  C   UNL     1      25.408  11.814  38.604  0.00  0.00    +0.000 A 
ATOM     10  C   UNL     1      26.647  11.627  39.224  0.00  0.00    +0.000 A 
ATOM     11  C   UNL     1      27.497  10.606  38.862  0.00  0.00    +0.000 A 
ATOM     12  O   UNL     1      28.745  10.417  39.485  0.00  0.00    +0.000 OA
ATOM     13  C   UNL     1      27.119   9.738  37.857  0.00  0.00    +0.000 A 
ATOM     14  C   UNL     1      25.883   9.932  37.246  0.00  0.00    +0.000 A 
ATOM     15  C   UNL     1      25.080  10.951  37.635  0.00  0.00    +0.000 A 
ATOM     16  C   UNL     1      23.695  11.166  36.936  0.00  0.00    +0.000 C 
ATOM     17  C   UNL     1      23.289   9.607  36.883  0.00  0.00    +0.000 C 
ATOM     18  C   UNL     1      21.802   9.555  36.488  0.00  0.00    +0.000 C 
ATOM     19  C   UNL     1      21.081  10.037  37.667  0.00  0.00    +0.000 C 
ATOM     20  C   UNL     1      21.574   9.387  38.891  0.00  0.00    +0.000 C 
ENDROOT
BRANCH   1  22
ATOM     21  C   UNL     1      18.416   9.514  35.402  0.00  0.00    +0.000 C 
ATOM     22  C   UNL     1      18.967   9.760  36.434  0.00  0.00    +0.000 C 
ENDBRANCH   1  22
TORSDOF 1
ENDMDL
MODEL 7
REMARK VINA RESULT:      -6.5      2.324      6.572
REMARK  Name = 
REMARK  1 active torsions:
REMARK  status: ('A' for Active; 'I' for Inactive)
REMARK    1  A    between atoms: C_2  and  C_3
REMARK                            x       y       z     vdW  Elec       q    Type
REMARK                         _______ _______ _______ _____ _____    ______ ____
ROOT
ATOM      1  C   UNL     1      27.577  24.026  23.908  0.00  0.00    +0.000 C 
ATOM      2  O   UNL     1      27.640  25.381  23.520  0.00  0.00    +0.000 OA
ATOM      3  C   UNL     1      28.805  23.385  23.286  0.00  0.00    +0.000 C 
ATOM      4  C   UNL     1      29.822  23.363  24.428  0.00  0.00    +0.000 C 
ATOM      5  C   UNL     1      28.806  22.638  25.445  0.00  0.00    +0.000 C 
ATOM      6  C   UNL     1      29.527  23.159  26.852  0.00  0.00    +0.000 C 
ATOM      7  C   UNL     1      30.591  21.946  26.909  0.00  0.00    +0.000 C 
ATOM      8  C   UNL     1      31.304  22.302  28.223  0.00  0.00    +0.000 C 
ATOM      9  C   UNL     1      30.323  22.754  29.238  0.00  0.00    +0.000 A 
ATOM     10  C   UNL     1      30.869  23.181  30.451  0.00  0.00    +0.000 A 
ATOM     11  C   UNL     1      30.082  23.625  31.490  0.00  0.00    +0.000 A 
ATOM     12  O   UNL     1      30.631  24.056  32.712  0.00  0.00    +0.000 OA
ATOM     13  C   UNL     1      28.711  23.651  31.332  0.00  0.00    +0.000 A 
ATOM     14  C   UNL     1      28.176  23.224  30.120  0.00  0.00    +0.000 A 
ATOM     15  C   UNL     1      28.990  22.795  29.127  0.00  0.00    +0.000 A 
ATOM     16  C   UNL     1      28.378  22.308  27.769  0.00  0.00    +0.000 C 
ATOM     17  C   UNL     1      27.276  23.479  27.652  0.00  0.00    +0.000 C 
ATOM     18  C   UNL     1      26.706  23.401  26.224  0.00  0.00    +0.000 C 
ATOM     19  C   UNL     1      27.785  23.885  25.360  0.00  0.00    +0.000 C 
ATOM     20  C   UNL     1      28.368  25.127  25.888  0.00  0.00    +0.000 C 
ENDROOT
BRANCH   1  22
ATOM     21  C   UNL     1      25.305  23.058  22.985  0.00  0.00    +0.000 C 
ATOM     22  C   UNL     1      26.339  23.486  23.406  0.00  0.00    +0.000 C 
ENDBRANCH   1  22
TORSDOF 1
ENDMDL
MODEL 8
REMARK VINA RESULT:      -6.3      1.503      6.648
REMARK  Name = 
REMARK  1 active torsions:
REMARK  status: ('A' for Active; 'I' for Inactive)
REMARK    1  A    between atoms: C_2  and  C_3
REMARK                            x       y       z     vdW  Elec       q    Type
REMARK                         _______ _______ _______ _____ _____    ______ ____
ROOT
ATOM      1  C   UNL     1      28.542  26.521  22.526  0.00  0.00    +0.000 C 
ATOM      2  O   UNL     1      29.584  27.441  22.765  0.00  0.00    +0.000 OA
ATOM      3  C   UNL     1      29.241  25.243  22.096  0.00  0.00    +0.000 C 
ATOM      4  C   UNL     1      29.293  24.407  23.375  0.00  0.00    +0.000 C 
ATOM      5  C   UNL     1      27.714  24.558  23.650  0.00  0.00    +0.000 C 
ATOM      6  C   UNL     1      27.770  24.290  25.291  0.00  0.00    +0.000 C 
ATOM      7  C   UNL     1      27.685  22.683  25.162  0.00  0.00    +0.000 C 
ATOM      8  C   UNL     1      27.685  22.314  26.655  0.00  0.00    +0.000 C 
ATOM      9  C   UNL     1      26.830  23.252  27.419  0.00  0.00    +0.000 A 
ATOM     10  C   UNL     1      26.818  23.060  28.804  0.00  0.00    +0.000 A 
ATOM     11  C   UNL     1      26.068  23.852  29.644  0.00  0.00    +0.000 A 
ATOM     12  O   UNL     1      26.056  23.659  31.038  0.00  0.00    +0.000 OA
ATOM     13  C   UNL     1      25.303  24.868  29.108  0.00  0.00    +0.000 A 
ATOM     14  C   UNL     1      25.322  25.052  27.728  0.00  0.00    +0.000 A 
ATOM     15  C   UNL     1      26.074  24.248  26.941  0.00  0.00    +0.000 A 
ATOM     16  C   UNL     1      26.082  24.457  25.388  0.00  0.00    +0.000 C 
ATOM     17  C   UNL     1      26.149  26.067  25.436  0.00  0.00    +0.000 C 
ATOM     18  C   UNL     1      26.462  26.535  24.003  0.00  0.00    +0.000 C 
ATOM     19  C   UNL     1      27.859  26.161  23.781  0.00  0.00    +0.000 C 
ATOM     20  C   UNL     1      28.701  26.558  24.920  0.00  0.00    +0.000 C 
ENDROOT
BRANCH   1  22
ATOM     21  C   UNL     1      27.002  27.559  20.654  0.00  0.00    +0.000 C 
ATOM     22  C   UNL     1      27.696  27.078  21.501  0.00  0.00    +0.000 C 
ENDBRANCH   1  22
TORSDOF 1
ENDMDL
MODEL 9
REMARK VINA RESULT:      -6.3      1.792      6.564
REMARK  Name = 
REMARK  1 active torsions:
REMARK  status: ('A' for Active; 'I' for Inactive)
REMARK    1  A    between atoms: C_2  and  C_3
REMARK                            x       y       z     vdW  Elec       q    Type
REMARK                         _______ _______ _______ _____ _____    ______ ____
ROOT
ATOM      1  C   UNL     1      28.696  24.798  21.990  0.00  0.00    +0.000 C 
ATOM      2  O   UNL     1      29.372  23.808  21.246  0.00  0.00    +0.000 OA
ATOM      3  C   UNL     1      27.230  24.412  21.910  0.00  0.00    +0.000 C 
ATOM      4  C   UNL     1      26.977  23.667  23.221  0.00  0.00    +0.000 C 
ATOM      5  C   UNL     1      27.580  24.856  24.123  0.00  0.00    +0.000 C 
ATOM      6  C   UNL     1      27.974  23.924  25.444  0.00  0.00    +0.000 C 
ATOM      7  C   UNL     1      26.511  24.033  26.119  0.00  0.00    +0.000 C 
ATOM      8  C   UNL     1      26.769  23.226  27.402  0.00  0.00    +0.000 C 
ATOM      9  C   UNL     1      28.101  23.557  27.962  0.00  0.00    +0.000 A 
ATOM     10  C   UNL     1      28.477  22.822  29.090  0.00  0.00    +0.000 A 
ATOM     11  C   UNL     1      29.684  23.021  29.722  0.00  0.00    +0.000 A 
ATOM     12  O   UNL     1      30.063  22.281  30.857  0.00  0.00    +0.000 OA
ATOM     13  C   UNL     1      30.552  23.975  29.230  0.00  0.00    +0.000 A 
ATOM     14  C   UNL     1      30.169  24.702  28.106  0.00  0.00    +0.000 A 
ATOM     15  C   UNL     1      28.972  24.471  27.518  0.00  0.00    +0.000 A 
ATOM     16  C   UNL     1      28.546  25.300  26.259  0.00  0.00    +0.000 C 
ATOM     17  C   UNL     1      29.983  25.251  25.531  0.00  0.00    +0.000 C 
ATOM     18  C   UNL     1      29.765  25.764  24.096  0.00  0.00    +0.000 C 
ATOM     19  C   UNL     1      29.025  24.695  23.422  0.00  0.00    +0.000 C 
ATOM     20  C   UNL     1      29.635  23.383  23.685  0.00  0.00    +0.000 C 
ENDROOT
BRANCH   1  22
ATOM     21  C   UNL     1      29.200  27.129  20.866  0.00  0.00    +0.000 C 
ATOM     22  C   UNL     1      28.982  26.072  21.381  0.00  0.00    +0.000 C 
ENDBRANCH   1  22
TORSDOF 1
ENDMDL
MODEL 10
REMARK VINA RESULT:      -6.2      2.971      6.488
REMARK  Name = 
REMARK  1 active torsions:
REMARK  status: ('A' for Active; 'I' for Inactive)
REMARK    1  A    between atoms: C_2  and  C_3
REMARK                            x       y       z     vdW  Elec       q    Type
REMARK                         _______ _______ _______ _____ _____    ______ ____
ROOT
ATOM      1  C   UNL     1      27.627  23.807  24.227  0.00  0.00    +0.000 C 
ATOM      2  O   UNL     1      26.535  22.924  24.089  0.00  0.00    +0.000 OA
ATOM      3  C   UNL     1      27.025  25.087  24.778  0.00  0.00    +0.000 C 
ATOM      4  C   UNL     1      27.284  24.994  26.282  0.00  0.00    +0.000 C 
ATOM      5  C   UNL     1      28.857  24.711  26.091  0.00  0.00    +0.000 C 
ATOM      6  C   UNL     1      29.101  23.946  27.548  0.00  0.00    +0.000 C 
ATOM      7  C   UNL     1      29.356  25.313  28.369  0.00  0.00    +0.000 C 
ATOM      8  C   UNL     1      29.644  24.719  29.758  0.00  0.00    +0.000 C 
ATOM      9  C   UNL     1      30.493  23.510  29.637  0.00  0.00    +0.000 A 
ATOM     10  C   UNL     1      30.753  22.838  30.834  0.00  0.00    +0.000 A 
ATOM     11  C   UNL     1      31.530  21.702  30.880  0.00  0.00    +0.000 A 
ATOM     12  O   UNL     1      31.792  21.025  32.086  0.00  0.00    +0.000 OA
ATOM     13  C   UNL     1      32.070  21.208  29.710  0.00  0.00    +0.000 A 
ATOM     14  C   UNL     1      31.805  21.884  28.522  0.00  0.00    +0.000 A 
ATOM     15  C   UNL     1      31.036  22.998  28.526  0.00  0.00    +0.000 A 
ATOM     16  C   UNL     1      30.750  23.757  27.185  0.00  0.00    +0.000 C 
ATOM     17  C   UNL     1      30.499  22.436  26.295  0.00  0.00    +0.000 C 
ATOM     18  C   UNL     1      29.903  22.915  24.959  0.00  0.00    +0.000 C 
ATOM     19  C   UNL     1      28.543  23.347  25.286  0.00  0.00    +0.000 C 
ATOM     20  C   UNL     1      27.857  22.348  26.119  0.00  0.00    +0.000 C 
ENDROOT
BRANCH   1  22
ATOM     21  C   UNL     1      28.700  24.124  21.840  0.00  0.00    +0.000 C 
ATOM     22  C   UNL     1      28.222  23.973  22.925  0.00  0.00    +0.000 C 
ENDBRANCH   1  22
TORSDOF 1
ENDMDL
