MODEL 1
REMARK VINA RESULT:      -7.5      0.000      0.000
REMARK  Name = 
REMARK  8 active torsions:
REMARK  status: ('A' for Active; 'I' for Inactive)
REMARK    1  A    between atoms: C_2  and  C_3
REMARK    2  A    between atoms: C_3  and  C_5
REMARK    3  A    between atoms: C_5  and  O_6
REMARK    4  A    between atoms: O_6  and  C_7
REMARK    5  A    between atoms: C_7  and  C_9
REMARK    6  A    between atoms: N_12  and  C_13
REMARK    7  A    between atoms: C_13  and  C_14
REMARK    8  A    between atoms: C_19  and  O_20
REMARK                            x       y       z     vdW  Elec       q    Type
REMARK                         _______ _______ _______ _____ _____    ______ ____
ROOT
ATOM      1  C   UNL     1      36.030   0.019  16.489  0.00  0.00    +0.000 A 
ATOM      2  C   UNL     1      35.744   1.364  16.212  0.00  0.00    +0.000 A 
ATOM      3  N   UNL     1      34.532   1.973  16.583  0.00  0.00    +0.000 NA
ATOM      4  N   UNL     1      36.760   1.925  15.554  0.00  0.00    +0.000 N 
ATOM      5  C   UNL     1      37.727   0.961  15.382  0.00  0.00    +0.000 A 
ATOM      6  N   UNL     1      38.931   1.023  14.777  0.00  0.00    +0.000 NA
ATOM      7  C   UNL     1      39.718  -0.066  14.725  0.00  0.00    +0.000 A 
ATOM      8  C   UNL     1      40.947   0.013  14.101  0.00  0.00    +0.000 A 
ATOM      9  C   UNL     1      41.692  -1.147  14.088  0.00  0.00    +0.000 A 
ATOM     10  C   UNL     1      41.302  -2.333  14.640  0.00  0.00    +0.000 A 
ATOM     11  C   UNL     1      40.047  -2.353  15.259  0.00  0.00    +0.000 A 
ATOM     12  C   UNL     1      39.263  -1.220  15.298  0.00  0.00    +0.000 A 
ATOM     13  N   UNL     1      38.072  -1.319  15.909  0.00  0.00    +0.000 NA
ATOM     14  C   UNL     1      37.278  -0.208  15.957  0.00  0.00    +0.000 A 
ENDROOT
BRANCH   1  15
ATOM     15  C   UNL     1      35.201  -0.946  17.207  0.00  0.00    +0.000 C 
ATOM     16  O   UNL     1      34.966  -0.763  18.423  0.00  0.00    +0.000 OA
BRANCH  15  17
ATOM     17  O   UNL     1      34.677  -2.024  16.611  0.00  0.00    +0.000 OA
BRANCH  17  18
ATOM     18  C   UNL     1      35.011  -3.248  16.242  0.00  0.00    +0.000 C 
BRANCH  18  19
ATOM     19  C   UNL     1      35.129  -3.588  14.712  0.00  0.00    +0.000 C 
ATOM     20  C   UNL     1      34.271  -4.935  14.685  0.00  0.00    +0.000 C 
BRANCH  19  22
ATOM     21  C   UNL     1      36.642  -4.821  16.247  0.00  0.00    +0.000 C 
ATOM     22  C   UNL     1      36.575  -4.342  14.804  0.00  0.00    +0.000 C 
ENDBRANCH  19  22
ENDBRANCH  18  19
ENDBRANCH  17  18
ENDBRANCH  15  17
ENDBRANCH   1  15
BRANCH   4  23
ATOM     23  C   UNL     1      36.998   3.263  15.054  0.00  0.00    +0.000 C 
BRANCH  23  24
ATOM     24  C   UNL     1      37.955   4.023  15.888  0.00  0.00    +0.000 A 
ATOM     25  C   UNL     1      37.733   4.065  17.267  0.00  0.00    +0.000 A 
ATOM     26  C   UNL     1      38.569   4.805  18.037  0.00  0.00    +0.000 A 
ATOM     27  C   UNL     1      39.611   5.495  17.453  0.00  0.00    +0.000 A 
ATOM     28  C   UNL     1      39.810   5.439  16.107  0.00  0.00    +0.000 A 
ATOM     29  C   UNL     1      38.984   4.697  15.279  0.00  0.00    +0.000 A 
BRANCH  29  30
ATOM     30  O   UNL     1      39.204   4.647  13.937  0.00  0.00    +0.000 OA
ATOM     31  C   UNL     1      40.393   3.998  13.456  0.00  0.00    +0.000 C 
ENDBRANCH  29  30
ENDBRANCH  23  24
ENDBRANCH   4  23
TORSDOF 8
ENDMDL
MODEL 2
REMARK VINA RESULT:      -7.5      1.731      7.067
REMARK  Name = 
REMARK  8 active torsions:
REMARK  status: ('A' for Active; 'I' for Inactive)
REMARK    1  A    between atoms: C_2  and  C_3
REMARK    2  A    between atoms: C_3  and  C_5
REMARK    3  A    between atoms: C_5  and  O_6
REMARK    4  A    between atoms: O_6  and  C_7
REMARK    5  A    between atoms: C_7  and  C_9
REMARK    6  A    between atoms: N_12  and  C_13
REMARK    7  A    between atoms: C_13  and  C_14
REMARK    8  A    between atoms: C_19  and  O_20
REMARK                            x       y       z     vdW  Elec       q    Type
REMARK                         _______ _______ _______ _____ _____    ______ ____
ROOT
ATOM      1  C   UNL     1      36.626   0.802  15.940  0.00  0.00    +0.000 A 
ATOM      2  C   UNL     1      35.860  -0.122  16.665  0.00  0.00    +0.000 A 
ATOM      3  N   UNL     1      34.606   0.200  17.216  0.00  0.00    +0.000 NA
ATOM      4  N   UNL     1      36.504  -1.287  16.753  0.00  0.00    +0.000 N 
ATOM      5  C   UNL     1      37.704  -1.149  16.093  0.00  0.00    +0.000 A 
ATOM      6  N   UNL     1      38.708  -2.030  15.903  0.00  0.00    +0.000 NA
ATOM      7  C   UNL     1      39.806  -1.665  15.219  0.00  0.00    +0.000 A 
ATOM      8  C   UNL     1      40.826  -2.577  15.035  0.00  0.00    +0.000 A 
ATOM      9  C   UNL     1      41.918  -2.125  14.325  0.00  0.00    +0.000 A 
ATOM     10  C   UNL     1      42.048  -0.869  13.807  0.00  0.00    +0.000 A 
ATOM     11  C   UNL     1      40.983   0.012  14.024  0.00  0.00    +0.000 A 
ATOM     12  C   UNL     1      39.869  -0.391  14.729  0.00  0.00    +0.000 A 
ATOM     13  N   UNL     1      38.889   0.512  14.897  0.00  0.00    +0.000 NA
ATOM     14  C   UNL     1      37.777   0.133  15.594  0.00  0.00    +0.000 A 
ENDROOT
BRANCH   1  15
ATOM     15  C   UNL     1      36.283   2.180  15.596  0.00  0.00    +0.000 C 
ATOM     16  O   UNL     1      35.367   2.393  14.770  0.00  0.00    +0.000 OA
BRANCH  15  17
ATOM     17  O   UNL     1      36.913   3.231  16.135  0.00  0.00    +0.000 OA
BRANCH  17  18
ATOM     18  C   UNL     1      38.061   3.881  16.059  0.00  0.00    +0.000 C 
BRANCH  18  19
ATOM     19  C   UNL     1      38.206   5.277  16.766  0.00  0.00    +0.000 C 
ATOM     20  C   UNL     1      39.712   5.615  16.352  0.00  0.00    +0.000 C 
BRANCH  19  22
ATOM     21  C   UNL     1      39.527   5.751  18.815  0.00  0.00    +0.000 C 
ATOM     22  C   UNL     1      38.591   4.695  18.242  0.00  0.00    +0.000 C 
ENDBRANCH  19  22
ENDBRANCH  18  19
ENDBRANCH  17  18
ENDBRANCH  15  17
ENDBRANCH   1  15
BRANCH   4  23
ATOM     23  C   UNL     1      36.169  -2.561  17.356  0.00  0.00    +0.000 C 
BRANCH  23  24
ATOM     24  C   UNL     1      35.486  -3.476  16.415  0.00  0.00    +0.000 A 
ATOM     25  C   UNL     1      34.200  -3.137  15.988  0.00  0.00    +0.000 A 
ATOM     26  C   UNL     1      33.539  -3.994  15.172  0.00  0.00    +0.000 A 
ATOM     27  C   UNL     1      34.140  -5.172  14.782  0.00  0.00    +0.000 A 
ATOM     28  C   UNL     1      35.396  -5.483  15.209  0.00  0.00    +0.000 A 
ATOM     29  C   UNL     1      36.111  -4.640  16.042  0.00  0.00    +0.000 A 
BRANCH  29  30
ATOM     30  O   UNL     1      37.368  -4.965  16.452  0.00  0.00    +0.000 OA
ATOM     31  C   UNL     1      37.562  -6.191  17.178  0.00  0.00    +0.000 C 
ENDBRANCH  29  30
ENDBRANCH  23  24
ENDBRANCH   4  23
TORSDOF 8
ENDMDL
MODEL 3
REMARK VINA RESULT:      -7.2      2.512      5.699
REMARK  Name = 
REMARK  8 active torsions:
REMARK  status: ('A' for Active; 'I' for Inactive)
REMARK    1  A    between atoms: C_2  and  C_3
REMARK    2  A    between atoms: C_3  and  C_5
REMARK    3  A    between atoms: C_5  and  O_6
REMARK    4  A    between atoms: O_6  and  C_7
REMARK    5  A    between atoms: C_7  and  C_9
REMARK    6  A    between atoms: N_12  and  C_13
REMARK    7  A    between atoms: C_13  and  C_14
REMARK    8  A    between atoms: C_19  and  O_20
REMARK                            x       y       z     vdW  Elec       q    Type
REMARK                         _______ _______ _______ _____ _____    ______ ____
ROOT
ATOM      1  C   UNL     1      38.308  -2.326  16.505  0.00  0.00    +0.000 A 
ATOM      2  C   UNL     1      39.504  -2.369  15.776  0.00  0.00    +0.000 A 
ATOM      3  N   UNL     1      40.393  -3.459  15.841  0.00  0.00    +0.000 NA
ATOM      4  N   UNL     1      39.654  -1.249  15.067  0.00  0.00    +0.000 N 
ATOM      5  C   UNL     1      38.563  -0.449  15.320  0.00  0.00    +0.000 A 
ATOM      6  N   UNL     1      38.248   0.778  14.856  0.00  0.00    +0.000 NA
ATOM      7  C   UNL     1      37.113   1.378  15.252  0.00  0.00    +0.000 A 
ATOM      8  C   UNL     1      36.804   2.635  14.770  0.00  0.00    +0.000 A 
ATOM      9  C   UNL     1      35.625   3.183  15.226  0.00  0.00    +0.000 A 
ATOM     10  C   UNL     1      34.767   2.577  16.098  0.00  0.00    +0.000 A 
ATOM     11  C   UNL     1      35.131   1.305  16.553  0.00  0.00    +0.000 A 
ATOM     12  C   UNL     1      36.301   0.714  16.127  0.00  0.00    +0.000 A 
ATOM     13  N   UNL     1      36.582  -0.507  16.610  0.00  0.00    +0.000 NA
ATOM     14  C   UNL     1      37.737  -1.111  16.202  0.00  0.00    +0.000 A 
ENDROOT
BRANCH   1  15
ATOM     15  C   UNL     1      37.755  -3.350  17.388  0.00  0.00    +0.000 C 
ATOM     16  O   UNL     1      38.268  -3.525  18.517  0.00  0.00    +0.000 OA
BRANCH  15  17
ATOM     17  O   UNL     1      36.713  -4.114  17.035  0.00  0.00    +0.000 OA
BRANCH  17  18
ATOM     18  C   UNL     1      36.268  -4.822  16.013  0.00  0.00    +0.000 C 
BRANCH  18  19
ATOM     19  C   UNL     1      35.422  -4.113  14.894  0.00  0.00    +0.000 C 
ATOM     20  C   UNL     1      34.542  -3.149  15.816  0.00  0.00    +0.000 C 
BRANCH  19  22
ATOM     21  C   UNL     1      32.990  -4.553  15.145  0.00  0.00    +0.000 C 
ATOM     22  C   UNL     1      34.278  -5.272  14.769  0.00  0.00    +0.000 C 
ENDBRANCH  19  22
ENDBRANCH  18  19
ENDBRANCH  17  18
ENDBRANCH  15  17
ENDBRANCH   1  15
BRANCH   4  23
ATOM     23  C   UNL     1      40.672  -0.789  14.145  0.00  0.00    +0.000 C 
BRANCH  23  24
ATOM     24  C   UNL     1      40.832  -1.684  12.977  0.00  0.00    +0.000 A 
ATOM     25  C   UNL     1      41.936  -2.539  12.953  0.00  0.00    +0.000 A 
ATOM     26  C   UNL     1      42.126  -3.322  11.864  0.00  0.00    +0.000 A 
ATOM     27  C   UNL     1      41.237  -3.263  10.810  0.00  0.00    +0.000 A 
ATOM     28  C   UNL     1      40.166  -2.423  10.856  0.00  0.00    +0.000 A 
ATOM     29  C   UNL     1      39.928  -1.604  11.946  0.00  0.00    +0.000 A 
BRANCH  29  30
ATOM     30  O   UNL     1      38.848  -0.777  11.976  0.00  0.00    +0.000 OA
ATOM     31  C   UNL     1      38.842   0.381  11.124  0.00  0.00    +0.000 C 
ENDBRANCH  29  30
ENDBRANCH  23  24
ENDBRANCH   4  23
TORSDOF 8
ENDMDL
MODEL 4
REMARK VINA RESULT:      -7.2      1.411      6.536
REMARK  Name = 
REMARK  8 active torsions:
REMARK  status: ('A' for Active; 'I' for Inactive)
REMARK    1  A    between atoms: C_2  and  C_3
REMARK    2  A    between atoms: C_3  and  C_5
REMARK    3  A    between atoms: C_5  and  O_6
REMARK    4  A    between atoms: O_6  and  C_7
REMARK    5  A    between atoms: C_7  and  C_9
REMARK    6  A    between atoms: N_12  and  C_13
REMARK    7  A    between atoms: C_13  and  C_14
REMARK    8  A    between atoms: C_19  and  O_20
REMARK                            x       y       z     vdW  Elec       q    Type
REMARK                         _______ _______ _______ _____ _____    ______ ____
ROOT
ATOM      1  C   UNL     1      38.636   3.006  14.634  0.00  0.00    +0.000 A 
ATOM      2  C   UNL     1      37.284   2.792  14.936  0.00  0.00    +0.000 A 
ATOM      3  N   UNL     1      36.375   3.847  15.137  0.00  0.00    +0.000 NA
ATOM      4  N   UNL     1      37.031   1.484  15.016  0.00  0.00    +0.000 N 
ATOM      5  C   UNL     1      38.209   0.817  14.773  0.00  0.00    +0.000 A 
ATOM      6  N   UNL     1      38.481  -0.504  14.746  0.00  0.00    +0.000 NA
ATOM      7  C   UNL     1      39.729  -0.931  14.488  0.00  0.00    +0.000 A 
ATOM      8  C   UNL     1      39.992  -2.287  14.465  0.00  0.00    +0.000 A 
ATOM      9  C   UNL     1      41.296  -2.644  14.196  0.00  0.00    +0.000 A 
ATOM     10  C   UNL     1      42.313  -1.766  13.956  0.00  0.00    +0.000 A 
ATOM     11  C   UNL     1      41.987  -0.406  13.991  0.00  0.00    +0.000 A 
ATOM     12  C   UNL     1      40.698   0.003  14.257  0.00  0.00    +0.000 A 
ATOM     13  N   UNL     1      40.465   1.325  14.275  0.00  0.00    +0.000 NA
ATOM     14  C   UNL     1      39.194   1.752  14.538  0.00  0.00    +0.000 A 
ENDROOT
BRANCH   1  15
ATOM     15  C   UNL     1      39.322   4.281  14.438  0.00  0.00    +0.000 C 
ATOM     16  O   UNL     1      39.495   4.707  13.274  0.00  0.00    +0.000 OA
BRANCH  15  17
ATOM     17  O   UNL     1      39.774   5.016  15.461  0.00  0.00    +0.000 OA
BRANCH  17  18
ATOM     18  C   UNL     1      39.332   5.809  16.421  0.00  0.00    +0.000 C 
BRANCH  18  19
ATOM     19  C   UNL     1      39.652   5.459  17.920  0.00  0.00    +0.000 C 
ATOM     20  C   UNL     1      38.441   4.458  18.210  0.00  0.00    +0.000 C 
BRANCH  19  22
ATOM     21  C   UNL     1      39.568   6.898  19.942  0.00  0.00    +0.000 C 
ATOM     22  C   UNL     1      38.917   6.764  18.572  0.00  0.00    +0.000 C 
ENDBRANCH  19  22
ENDBRANCH  18  19
ENDBRANCH  17  18
ENDBRANCH  15  17
ENDBRANCH   1  15
BRANCH   4  23
ATOM     23  C   UNL     1      35.825   0.723  15.273  0.00  0.00    +0.000 C 
BRANCH  23  24
ATOM     24  C   UNL     1      35.813   0.110  16.620  0.00  0.00    +0.000 A 
ATOM     25  C   UNL     1      35.924   0.955  17.726  0.00  0.00    +0.000 A 
ATOM     26  C   UNL     1      35.972   0.403  18.963  0.00  0.00    +0.000 A 
ATOM     27  C   UNL     1      35.911  -0.967  19.107  0.00  0.00    +0.000 A 
ATOM     28  C   UNL     1      35.802  -1.773  18.014  0.00  0.00    +0.000 A 
ATOM     29  C   UNL     1      35.748  -1.258  16.731  0.00  0.00    +0.000 A 
BRANCH  29  30
ATOM     30  O   UNL     1      35.631  -2.079  15.652  0.00  0.00    +0.000 OA
ATOM     31  C   UNL     1      34.755  -3.215  15.742  0.00  0.00    +0.000 C 
ENDBRANCH  29  30
ENDBRANCH  23  24
ENDBRANCH   4  23
TORSDOF 8
ENDMDL
MODEL 5
REMARK VINA RESULT:      -7.1      2.307      7.258
REMARK  Name = 
REMARK  8 active torsions:
REMARK  status: ('A' for Active; 'I' for Inactive)
REMARK    1  A    between atoms: C_2  and  C_3
REMARK    2  A    between atoms: C_3  and  C_5
REMARK    3  A    between atoms: C_5  and  O_6
REMARK    4  A    between atoms: O_6  and  C_7
REMARK    5  A    between atoms: C_7  and  C_9
REMARK    6  A    between atoms: N_12  and  C_13
REMARK    7  A    between atoms: C_13  and  C_14
REMARK    8  A    between atoms: C_19  and  O_20
REMARK                            x       y       z     vdW  Elec       q    Type
REMARK                         _______ _______ _______ _____ _____    ______ ____
ROOT
ATOM      1  C   UNL     1      38.225   2.997  15.502  0.00  0.00    +0.000 A 
ATOM      2  C   UNL     1      39.038   2.741  14.388  0.00  0.00    +0.000 A 
ATOM      3  N   UNL     1      39.930   3.696  13.866  0.00  0.00    +0.000 NA
ATOM      4  N   UNL     1      38.812   1.510  13.926  0.00  0.00    +0.000 N 
ATOM      5  C   UNL     1      37.846   0.938  14.721  0.00  0.00    +0.000 A 
ATOM      6  N   UNL     1      37.271  -0.281  14.665  0.00  0.00    +0.000 NA
ATOM      7  C   UNL     1      36.330  -0.625  15.560  0.00  0.00    +0.000 A 
ATOM      8  C   UNL     1      35.749  -1.876  15.489  0.00  0.00    +0.000 A 
ATOM      9  C   UNL     1      34.790  -2.151  16.441  0.00  0.00    +0.000 A 
ATOM     10  C   UNL     1      34.393  -1.289  17.422  0.00  0.00    +0.000 A 
ATOM     11  C   UNL     1      35.017  -0.037  17.445  0.00  0.00    +0.000 A 
ATOM     12  C   UNL     1      35.980   0.287  16.515  0.00  0.00    +0.000 A 
ATOM     13  N   UNL     1      36.531   1.509  16.602  0.00  0.00    +0.000 NA
ATOM     14  C   UNL     1      37.487   1.851  15.689  0.00  0.00    +0.000 A 
ENDROOT
BRANCH   1  15
ATOM     15  C   UNL     1      38.173   4.208  16.317  0.00  0.00    +0.000 C 
ATOM     16  O   UNL     1      37.599   5.225  15.863  0.00  0.00    +0.000 OA
BRANCH  15  17
ATOM     17  O   UNL     1      38.716   4.274  17.539  0.00  0.00    +0.000 OA
BRANCH  17  18
ATOM     18  C   UNL     1      38.913   5.135  18.522  0.00  0.00    +0.000 C 
BRANCH  18  19
ATOM     19  C   UNL     1      39.997   6.261  18.356  0.00  0.00    +0.000 C 
ATOM     20  C   UNL     1      40.672   6.176  19.801  0.00  0.00    +0.000 C 
BRANCH  19  22
ATOM     21  C   UNL     1      39.082   7.582  20.250  0.00  0.00    +0.000 C 
ATOM     22  C   UNL     1      39.017   7.513  18.730  0.00  0.00    +0.000 C 
ENDBRANCH  19  22
ENDBRANCH  18  19
ENDBRANCH  17  18
ENDBRANCH  15  17
ENDBRANCH   1  15
BRANCH   4  23
ATOM     23  C   UNL     1      39.379   0.743  12.836  0.00  0.00    +0.000 C 
BRANCH  23  24
ATOM     24  C   UNL     1      40.458  -0.169  13.280  0.00  0.00    +0.000 A 
ATOM     25  C   UNL     1      41.588   0.395  13.877  0.00  0.00    +0.000 A 
ATOM     26  C   UNL     1      42.607  -0.422  14.236  0.00  0.00    +0.000 A 
ATOM     27  C   UNL     1      42.514  -1.779  14.009  0.00  0.00    +0.000 A 
ATOM     28  C   UNL     1      41.402  -2.308  13.426  0.00  0.00    +0.000 A 
ATOM     29  C   UNL     1      40.334  -1.515  13.043  0.00  0.00    +0.000 A 
BRANCH  29  30
ATOM     30  O   UNL     1      39.228  -2.064  12.469  0.00  0.00    +0.000 OA
ATOM     31  C   UNL     1      38.504  -3.073  13.193  0.00  0.00    +0.000 C 
ENDBRANCH  29  30
ENDBRANCH  23  24
ENDBRANCH   4  23
TORSDOF 8
ENDMDL
MODEL 6
REMARK VINA RESULT:      -6.9      1.179      1.372
REMARK  Name = 
REMARK  8 active torsions:
REMARK  status: ('A' for Active; 'I' for Inactive)
REMARK    1  A    between atoms: C_2  and  C_3
REMARK    2  A    between atoms: C_3  and  C_5
REMARK    3  A    between atoms: C_5  and  O_6
REMARK    4  A    between atoms: O_6  and  C_7
REMARK    5  A    between atoms: C_7  and  C_9
REMARK    6  A    between atoms: N_12  and  C_13
REMARK    7  A    between atoms: C_13  and  C_14
REMARK    8  A    between atoms: C_19  and  O_20
REMARK                            x       y       z     vdW  Elec       q    Type
REMARK                         _______ _______ _______ _____ _____    ______ ____
ROOT
ATOM      1  C   UNL     1      36.239   0.621  16.184  0.00  0.00    +0.000 A 
ATOM      2  C   UNL     1      36.033   1.978  15.900  0.00  0.00    +0.000 A 
ATOM      3  N   UNL     1      34.839   2.648  16.225  0.00  0.00    +0.000 NA
ATOM      4  N   UNL     1      37.100   2.488  15.282  0.00  0.00    +0.000 N 
ATOM      5  C   UNL     1      38.023   1.476  15.146  0.00  0.00    +0.000 A 
ATOM      6  N   UNL     1      39.251   1.478  14.588  0.00  0.00    +0.000 NA
ATOM      7  C   UNL     1      39.983   0.351  14.564  0.00  0.00    +0.000 A 
ATOM      8  C   UNL     1      41.238   0.368  13.988  0.00  0.00    +0.000 A 
ATOM      9  C   UNL     1      41.924  -0.828  14.000  0.00  0.00    +0.000 A 
ATOM     10  C   UNL     1      41.453  -1.993  14.534  0.00  0.00    +0.000 A 
ATOM     11  C   UNL     1      40.177  -1.950  15.104  0.00  0.00    +0.000 A 
ATOM     12  C   UNL     1      39.450  -0.779  15.116  0.00  0.00    +0.000 A 
ATOM     13  N   UNL     1      38.232  -0.818  15.680  0.00  0.00    +0.000 NA
ATOM     14  C   UNL     1      37.494   0.331  15.700  0.00  0.00    +0.000 A 
ENDROOT
BRANCH   1  15
ATOM     15  C   UNL     1      35.336  -0.302  16.867  0.00  0.00    +0.000 C 
ATOM     16  O   UNL     1      34.951  -0.032  18.028  0.00  0.00    +0.000 OA
BRANCH  15  17
ATOM     17  O   UNL     1      34.898  -1.430  16.296  0.00  0.00    +0.000 OA
BRANCH  17  18
ATOM     18  C   UNL     1      35.136  -2.730  16.292  0.00  0.00    +0.000 C 
BRANCH  18  19
ATOM     19  C   UNL     1      35.321  -3.476  14.921  0.00  0.00    +0.000 C 
ATOM     20  C   UNL     1      33.915  -4.231  14.853  0.00  0.00    +0.000 C 
BRANCH  19  22
ATOM     21  C   UNL     1      37.096  -4.134  16.529  0.00  0.00    +0.000 C 
ATOM     22  C   UNL     1      36.142  -4.756  15.518  0.00  0.00    +0.000 C 
ENDBRANCH  19  22
ENDBRANCH  18  19
ENDBRANCH  17  18
ENDBRANCH  15  17
ENDBRANCH   1  15
BRANCH   4  23
ATOM     23  C   UNL     1      37.424   3.813  14.796  0.00  0.00    +0.000 C 
BRANCH  23  24
ATOM     24  C   UNL     1      37.903   4.714  15.867  0.00  0.00    +0.000 A 
ATOM     25  C   UNL     1      38.340   4.138  17.062  0.00  0.00    +0.000 A 
ATOM     26  C   UNL     1      38.726   4.953  18.073  0.00  0.00    +0.000 A 
ATOM     27  C   UNL     1      38.683   6.322  17.908  0.00  0.00    +0.000 A 
ATOM     28  C   UNL     1      38.255   6.863  16.733  0.00  0.00    +0.000 A 
ATOM     29  C   UNL     1      37.850   6.072  15.671  0.00  0.00    +0.000 A 
BRANCH  29  30
ATOM     30  O   UNL     1      37.433   6.632  14.503  0.00  0.00    +0.000 OA
ATOM     31  C   UNL     1      36.231   7.421  14.506  0.00  0.00    +0.000 C 
ENDBRANCH  29  30
ENDBRANCH  23  24
ENDBRANCH   4  23
TORSDOF 8
ENDMDL
MODEL 7
REMARK VINA RESULT:      -6.8      2.287      5.248
REMARK  Name = 
REMARK  8 active torsions:
REMARK  status: ('A' for Active; 'I' for Inactive)
REMARK    1  A    between atoms: C_2  and  C_3
REMARK    2  A    between atoms: C_3  and  C_5
REMARK    3  A    between atoms: C_5  and  O_6
REMARK    4  A    between atoms: O_6  and  C_7
REMARK    5  A    between atoms: C_7  and  C_9
REMARK    6  A    between atoms: N_12  and  C_13
REMARK    7  A    between atoms: C_13  and  C_14
REMARK    8  A    between atoms: C_19  and  O_20
REMARK                            x       y       z     vdW  Elec       q    Type
REMARK                         _______ _______ _______ _____ _____    ______ ____
ROOT
ATOM      1  C   UNL     1      36.573   2.282  15.747  0.00  0.00    +0.000 A 
ATOM      2  C   UNL     1      36.903   1.995  14.415  0.00  0.00    +0.000 A 
ATOM      3  N   UNL     1      36.195   1.054  13.644  0.00  0.00    +0.000 NA
ATOM      4  N   UNL     1      37.961   2.715  14.037  0.00  0.00    +0.000 N 
ATOM      5  C   UNL     1      38.347   3.483  15.111  0.00  0.00    +0.000 A 
ATOM      6  N   UNL     1      39.357   4.366  15.240  0.00  0.00    +0.000 NA
ATOM      7  C   UNL     1      39.549   5.006  16.407  0.00  0.00    +0.000 A 
ATOM      8  C   UNL     1      40.589   5.907  16.525  0.00  0.00    +0.000 A 
ATOM      9  C   UNL     1      40.721   6.519  17.753  0.00  0.00    +0.000 A 
ATOM     10  C   UNL     1      39.909   6.298  18.828  0.00  0.00    +0.000 A 
ATOM     11  C   UNL     1      38.872   5.376  18.649  0.00  0.00    +0.000 A 
ATOM     12  C   UNL     1      38.699   4.736  17.441  0.00  0.00    +0.000 A 
ATOM     13  N   UNL     1      37.682   3.864  17.348  0.00  0.00    +0.000 NA
ATOM     14  C   UNL     1      37.494   3.217  16.160  0.00  0.00    +0.000 A 
ENDROOT
BRANCH   1  15
ATOM     15  C   UNL     1      35.475   1.733  16.539  0.00  0.00    +0.000 C 
ATOM     16  O   UNL     1      34.364   2.311  16.526  0.00  0.00    +0.000 OA
BRANCH  15  17
ATOM     17  O   UNL     1      35.610   0.628  17.282  0.00  0.00    +0.000 OA
BRANCH  17  18
ATOM     18  C   UNL     1      36.450  -0.373  17.477  0.00  0.00    +0.000 C 
BRANCH  18  19
ATOM     19  C   UNL     1      36.668  -1.431  16.335  0.00  0.00    +0.000 C 
ATOM     20  C   UNL     1      36.284  -2.756  17.141  0.00  0.00    +0.000 C 
BRANCH  19  22
ATOM     21  C   UNL     1      38.860  -1.242  15.184  0.00  0.00    +0.000 C 
ATOM     22  C   UNL     1      38.279  -1.598  16.545  0.00  0.00    +0.000 C 
ENDBRANCH  19  22
ENDBRANCH  18  19
ENDBRANCH  17  18
ENDBRANCH  15  17
ENDBRANCH   1  15
BRANCH   4  23
ATOM     23  C   UNL     1      38.689   2.824  12.789  0.00  0.00    +0.000 C 
BRANCH  23  24
ATOM     24  C   UNL     1      39.530   1.638  12.513  0.00  0.00    +0.000 A 
ATOM     25  C   UNL     1      40.671   1.447  13.294  0.00  0.00    +0.000 A 
ATOM     26  C   UNL     1      41.481   0.397  13.015  0.00  0.00    +0.000 A 
ATOM     27  C   UNL     1      41.168  -0.456  11.976  0.00  0.00    +0.000 A 
ATOM     28  C   UNL     1      40.049  -0.251  11.227  0.00  0.00    +0.000 A 
ATOM     29  C   UNL     1      39.190   0.806  11.474  0.00  0.00    +0.000 A 
BRANCH  29  30
ATOM     30  O   UNL     1      38.072   0.989  10.720  0.00  0.00    +0.000 OA
ATOM     31  C   UNL     1      38.224   1.375   9.343  0.00  0.00    +0.000 C 
ENDBRANCH  29  30
ENDBRANCH  23  24
ENDBRANCH   4  23
TORSDOF 8
ENDMDL
MODEL 8
REMARK VINA RESULT:      -6.8      2.610      6.005
REMARK  Name = 
REMARK  8 active torsions:
REMARK  status: ('A' for Active; 'I' for Inactive)
REMARK    1  A    between atoms: C_2  and  C_3
REMARK    2  A    between atoms: C_3  and  C_5
REMARK    3  A    between atoms: C_5  and  O_6
REMARK    4  A    between atoms: O_6  and  C_7
REMARK    5  A    between atoms: C_7  and  C_9
REMARK    6  A    between atoms: N_12  and  C_13
REMARK    7  A    between atoms: C_13  and  C_14
REMARK    8  A    between atoms: C_19  and  O_20
REMARK                            x       y       z     vdW  Elec       q    Type
REMARK                         _______ _______ _______ _____ _____    ______ ____
ROOT
ATOM      1  C   UNL     1      36.276   0.845  15.902  0.00  0.00    +0.000 A 
ATOM      2  C   UNL     1      36.583   0.555  14.565  0.00  0.00    +0.000 A 
ATOM      3  N   UNL     1      36.169   1.373  13.497  0.00  0.00    +0.000 NA
ATOM      4  N   UNL     1      37.278  -0.581  14.487  0.00  0.00    +0.000 N 
ATOM      5  C   UNL     1      37.436  -1.060  15.768  0.00  0.00    +0.000 A 
ATOM      6  N   UNL     1      38.055  -2.170  16.219  0.00  0.00    +0.000 NA
ATOM      7  C   UNL     1      38.079  -2.440  17.536  0.00  0.00    +0.000 A 
ATOM      8  C   UNL     1      38.714  -3.582  17.984  0.00  0.00    +0.000 A 
ATOM      9  C   UNL     1      38.693  -3.790  19.346  0.00  0.00    +0.000 A 
ATOM     10  C   UNL     1      38.101  -2.959  20.254  0.00  0.00    +0.000 A 
ATOM     11  C   UNL     1      37.474  -1.818  19.743  0.00  0.00    +0.000 A 
ATOM     12  C   UNL     1      37.466  -1.566  18.388  0.00  0.00    +0.000 A 
ATOM     13  N   UNL     1      36.842  -0.451  17.974  0.00  0.00    +0.000 NA
ATOM     14  C   UNL     1      36.822  -0.183  16.636  0.00  0.00    +0.000 A 
ENDROOT
BRANCH   1  15
ATOM     15  C   UNL     1      35.550   1.999  16.428  0.00  0.00    +0.000 C 
ATOM     16  O   UNL     1      34.308   1.926  16.570  0.00  0.00    +0.000 OA
BRANCH  15  17
ATOM     17  O   UNL     1      36.166   3.139  16.768  0.00  0.00    +0.000 OA
BRANCH  17  18
ATOM     18  C   UNL     1      37.380   3.643  16.895  0.00  0.00    +0.000 C 
BRANCH  18  19
ATOM     19  C   UNL     1      38.010   4.450  15.703  0.00  0.00    +0.000 C 
ATOM     20  C   UNL     1      38.905   3.294  15.060  0.00  0.00    +0.000 C 
BRANCH  19  22
ATOM     21  C   UNL     1      39.514   6.423  15.830  0.00  0.00    +0.000 C 
ATOM     22  C   UNL     1      39.231   5.116  16.559  0.00  0.00    +0.000 C 
ENDBRANCH  19  22
ENDBRANCH  18  19
ENDBRANCH  17  18
ENDBRANCH  15  17
ENDBRANCH   1  15
BRANCH   4  23
ATOM     23  C   UNL     1      37.856  -1.314  13.380  0.00  0.00    +0.000 C 
BRANCH  23  24
ATOM     24  C   UNL     1      38.929  -0.560  12.694  0.00  0.00    +0.000 A 
ATOM     25  C   UNL     1      38.618   0.070  11.486  0.00  0.00    +0.000 A 
ATOM     26  C   UNL     1      39.604   0.716  10.818  0.00  0.00    +0.000 A 
ATOM     27  C   UNL     1      40.883   0.740  11.335  0.00  0.00    +0.000 A 
ATOM     28  C   UNL     1      41.164   0.120  12.514  0.00  0.00    +0.000 A 
ATOM     29  C   UNL     1      40.191  -0.552  13.234  0.00  0.00    +0.000 A 
BRANCH  29  30
ATOM     30  O   UNL     1      40.490  -1.159  14.415  0.00  0.00    +0.000 OA
ATOM     31  C   UNL     1      41.276  -2.362  14.393  0.00  0.00    +0.000 C 
ENDBRANCH  29  30
ENDBRANCH  23  24
ENDBRANCH   4  23
TORSDOF 8
ENDMDL
MODEL 9
REMARK VINA RESULT:      -6.7      2.499      7.597
REMARK  Name = 
REMARK  8 active torsions:
REMARK  status: ('A' for Active; 'I' for Inactive)
REMARK    1  A    between atoms: C_2  and  C_3
REMARK    2  A    between atoms: C_3  and  C_5
REMARK    3  A    between atoms: C_5  and  O_6
REMARK    4  A    between atoms: O_6  and  C_7
REMARK    5  A    between atoms: C_7  and  C_9
REMARK    6  A    between atoms: N_12  and  C_13
REMARK    7  A    between atoms: C_13  and  C_14
REMARK    8  A    between atoms: C_19  and  O_20
REMARK                            x       y       z     vdW  Elec       q    Type
REMARK                         _______ _______ _______ _____ _____    ______ ____
ROOT
ATOM      1  C   UNL     1      39.341   1.277  14.608  0.00  0.00    +0.000 A 
ATOM      2  C   UNL     1      40.372   0.416  14.205  0.00  0.00    +0.000 A 
ATOM      3  N   UNL     1      41.542   0.878  13.574  0.00  0.00    +0.000 NA
ATOM      4  N   UNL     1      40.056  -0.848  14.491  0.00  0.00    +0.000 N 
ATOM      5  C   UNL     1      38.812  -0.842  15.080  0.00  0.00    +0.000 A 
ATOM      6  N   UNL     1      38.055  -1.859  15.541  0.00  0.00    +0.000 NA
ATOM      7  C   UNL     1      36.849  -1.610  16.083  0.00  0.00    +0.000 A 
ATOM      8  C   UNL     1      36.084  -2.661  16.549  0.00  0.00    +0.000 A 
ATOM      9  C   UNL     1      34.861  -2.324  17.087  0.00  0.00    +0.000 A 
ATOM     10  C   UNL     1      34.374  -1.052  17.186  0.00  0.00    +0.000 A 
ATOM     11  C   UNL     1      35.193  -0.029  16.697  0.00  0.00    +0.000 A 
ATOM     12  C   UNL     1      36.425  -0.313  16.149  0.00  0.00    +0.000 A 
ATOM     13  N   UNL     1      37.152   0.723  15.701  0.00  0.00    +0.000 NA
ATOM     14  C   UNL     1      38.375   0.462  15.152  0.00  0.00    +0.000 A 
ENDROOT
BRANCH   1  15
ATOM     15  C   UNL     1      39.293   2.733  14.500  0.00  0.00    +0.000 C 
ATOM     16  O   UNL     1      39.381   3.264  13.370  0.00  0.00    +0.000 OA
BRANCH  15  17
ATOM     17  O   UNL     1      39.154   3.526  15.570  0.00  0.00    +0.000 OA
BRANCH  17  18
ATOM     18  C   UNL     1      38.213   4.100  16.298  0.00  0.00    +0.000 C 
BRANCH  18  19
ATOM     19  C   UNL     1      38.503   5.487  16.979  0.00  0.00    +0.000 C 
ATOM     20  C   UNL     1      40.017   5.687  16.510  0.00  0.00    +0.000 C 
BRANCH  19  22
ATOM     21  C   UNL     1      39.741   5.988  19.073  0.00  0.00    +0.000 C 
ATOM     22  C   UNL     1      38.886   4.892  18.451  0.00  0.00    +0.000 C 
ENDBRANCH  19  22
ENDBRANCH  18  19
ENDBRANCH  17  18
ENDBRANCH  15  17
ENDBRANCH   1  15
BRANCH   4  23
ATOM     23  C   UNL     1      40.751  -2.107  14.315  0.00  0.00    +0.000 C 
BRANCH  23  24
ATOM     24  C   UNL     1      40.994  -2.432  12.892  0.00  0.00    +0.000 A 
ATOM     25  C   UNL     1      39.900  -2.434  12.024  0.00  0.00    +0.000 A 
ATOM     26  C   UNL     1      40.099  -2.786  10.730  0.00  0.00    +0.000 A 
ATOM     27  C   UNL     1      41.363  -3.131  10.298  0.00  0.00    +0.000 A 
ATOM     28  C   UNL     1      42.416  -3.121  11.162  0.00  0.00    +0.000 A 
ATOM     29  C   UNL     1      42.264  -2.768  12.492  0.00  0.00    +0.000 A 
BRANCH  29  30
ATOM     30  O   UNL     1      43.330  -2.756  13.337  0.00  0.00    +0.000 OA
ATOM     31  C   UNL     1      44.588  -3.271  12.869  0.00  0.00    +0.000 C 
ENDBRANCH  29  30
ENDBRANCH  23  24
ENDBRANCH   4  23
TORSDOF 8
ENDMDL
MODEL 10
REMARK VINA RESULT:      -6.6      2.262      6.436
REMARK  Name = 
REMARK  8 active torsions:
REMARK  status: ('A' for Active; 'I' for Inactive)
REMARK    1  A    between atoms: C_2  and  C_3
REMARK    2  A    between atoms: C_3  and  C_5
REMARK    3  A    between atoms: C_5  and  O_6
REMARK    4  A    between atoms: O_6  and  C_7
REMARK    5  A    between atoms: C_7  and  C_9
REMARK    6  A    between atoms: N_12  and  C_13
REMARK    7  A    between atoms: C_13  and  C_14
REMARK    8  A    between atoms: C_19  and  O_20
REMARK                            x       y       z     vdW  Elec       q    Type
REMARK                         _______ _______ _______ _____ _____    ______ ____
ROOT
ATOM      1  C   UNL     1      36.112   1.688  15.094  0.00  0.00    +0.000 A 
ATOM      2  C   UNL     1      35.477   0.827  15.999  0.00  0.00    +0.000 A 
ATOM      3  N   UNL     1      34.596   1.288  16.995  0.00  0.00    +0.000 NA
ATOM      4  N   UNL     1      35.852  -0.435  15.776  0.00  0.00    +0.000 N 
ATOM      5  C   UNL     1      36.741  -0.424  14.726  0.00  0.00    +0.000 A 
ATOM      6  N   UNL     1      37.405  -1.435  14.128  0.00  0.00    +0.000 NA
ATOM      7  C   UNL     1      38.240  -1.181  13.106  0.00  0.00    +0.000 A 
ATOM      8  C   UNL     1      38.915  -2.226  12.505  0.00  0.00    +0.000 A 
ATOM      9  C   UNL     1      39.754  -1.884  11.466  0.00  0.00    +0.000 A 
ATOM     10  C   UNL     1      39.952  -0.614  11.007  0.00  0.00    +0.000 A 
ATOM     11  C   UNL     1      39.242   0.403  11.653  0.00  0.00    +0.000 A 
ATOM     12  C   UNL     1      38.391   0.114  12.698  0.00  0.00    +0.000 A 
ATOM     13  N   UNL     1      37.746   1.144  13.269  0.00  0.00    +0.000 NA
ATOM     14  C   UNL     1      36.900   0.879  14.307  0.00  0.00    +0.000 A 
ENDROOT
BRANCH   1  15
ATOM     15  C   UNL     1      35.966   3.137  14.979  0.00  0.00    +0.000 C 
ATOM     16  O   UNL     1      35.165   3.605  14.138  0.00  0.00    +0.000 OA
BRANCH  15  17
ATOM     17  O   UNL     1      36.658   3.990  15.744  0.00  0.00    +0.000 OA
BRANCH  17  18
ATOM     18  C   UNL     1      37.650   4.859  15.662  0.00  0.00    +0.000 C 
BRANCH  18  19
ATOM     19  C   UNL     1      39.133   4.339  15.662  0.00  0.00    +0.000 C 
ATOM     20  C   UNL     1      39.840   5.592  16.356  0.00  0.00    +0.000 C 
BRANCH  19  22
ATOM     21  C   UNL     1      40.237   3.607  13.561  0.00  0.00    +0.000 C 
ATOM     22  C   UNL     1      39.489   4.802  14.137  0.00  0.00    +0.000 C 
ENDBRANCH  19  22
ENDBRANCH  18  19
ENDBRANCH  17  18
ENDBRANCH  15  17
ENDBRANCH   1  15
BRANCH   4  23
ATOM     23  C   UNL     1      35.494  -1.697  16.389  0.00  0.00    +0.000 C 
BRANCH  23  24
ATOM     24  C   UNL     1      36.502  -2.163  17.368  0.00  0.00    +0.000 A 
ATOM     25  C   UNL     1      36.760  -1.356  18.478  0.00  0.00    +0.000 A 
ATOM     26  C   UNL     1      37.720  -1.741  19.353  0.00  0.00    +0.000 A 
ATOM     27  C   UNL     1      38.419  -2.910  19.135  0.00  0.00    +0.000 A 
ATOM     28  C   UNL     1      38.151  -3.684  18.045  0.00  0.00    +0.000 A 
ATOM     29  C   UNL     1      37.179  -3.333  17.125  0.00  0.00    +0.000 A 
BRANCH  29  30
ATOM     30  O   UNL     1      36.920  -4.122  16.047  0.00  0.00    +0.000 OA
ATOM     31  C   UNL     1      36.138  -5.314  16.237  0.00  0.00    +0.000 C 
ENDBRANCH  29  30
ENDBRANCH  23  24
ENDBRANCH   4  23
TORSDOF 8
ENDMDL
