MODEL 1
REMARK VINA RESULT:      -7.8      0.000      0.000
REMARK  Name = 
REMARK  9 active torsions:
REMARK  status: ('A' for Active; 'I' for Inactive)
REMARK    1  A    between atoms: C_2  and  C_3
REMARK    2  A    between atoms: C_3  and  C_4
REMARK    3  A    between atoms: C_3  and  C_6
REMARK    4  A    between atoms: C_6  and  O_7
REMARK    5  A    between atoms: O_7  and  C_8
REMARK    6  A    between atoms: C_8  and  C_10
REMARK    7  A    between atoms: N_13  and  C_14
REMARK    8  A    between atoms: C_14  and  C_15
REMARK    9  A    between atoms: C_18  and  O_19
REMARK                            x       y       z     vdW  Elec       q    Type
REMARK                         _______ _______ _______ _____ _____    ______ ____
ROOT
ATOM      1  C   UNL     1      36.172   0.294  16.323  0.00  0.00    +0.000 A 
ATOM      2  C   UNL     1      35.996   1.634  16.084  0.00  0.00    +0.000 A 
ATOM      3  N   UNL     1      34.848   2.403  16.431  0.00  0.00    +0.000 NA
ATOM      4  N   UNL     1      37.066   2.141  15.469  0.00  0.00    +0.000 N 
ATOM      5  C   UNL     1      37.961   1.147  15.294  0.00  0.00    +0.000 A 
ATOM      6  N   UNL     1      39.175   1.086  14.747  0.00  0.00    +0.000 NA
ATOM      7  C   UNL     1      39.877  -0.045  14.693  0.00  0.00    +0.000 A 
ATOM      8  C   UNL     1      41.137  -0.075  14.118  0.00  0.00    +0.000 A 
ATOM      9  C   UNL     1      41.849  -1.241  14.067  0.00  0.00    +0.000 A 
ATOM     10  C   UNL     1      41.294  -2.378  14.596  0.00  0.00    +0.000 A 
ATOM     11  C   UNL     1      40.043  -2.364  15.171  0.00  0.00    +0.000 A 
ATOM     12  C   UNL     1      39.339  -1.198  15.217  0.00  0.00    +0.000 A 
ATOM     13  N   UNL     1      38.109  -1.171  15.778  0.00  0.00    +0.000 NA
ATOM     14  C   UNL     1      37.418  -0.010  15.820  0.00  0.00    +0.000 A 
ENDROOT
BRANCH   1  15
ATOM     15  C   UNL     1      35.245  -0.644  16.975  0.00  0.00    +0.000 C 
ATOM     16  O   UNL     1      34.944  -0.492  18.162  0.00  0.00    +0.000 OA
BRANCH  15  17
ATOM     17  O   UNL     1      34.688  -1.707  16.295  0.00  0.00    +0.000 OA
BRANCH  17  18
ATOM     18  C   UNL     1      35.043  -3.041  16.369  0.00  0.00    +0.000 C 
BRANCH  18  19
ATOM     19  C   UNL     1      35.253  -3.827  15.198  0.00  0.00    +0.000 C 
BRANCH  19  21
ATOM     20  C   UNL     1      32.931  -4.572  15.210  0.00  0.00    +0.000 C 
ATOM     21  C   UNL     1      34.211  -4.427  14.389  0.00  0.00    +0.000 C 
ENDBRANCH  19  21
BRANCH  19  22
ATOM     22  C   UNL     1      36.602  -4.364  14.987  0.00  0.00    +0.000 C 
ATOM     23  C   UNL     1      37.250  -4.684  16.335  0.00  0.00    +0.000 C 
ENDBRANCH  19  22
ENDBRANCH  18  19
ENDBRANCH  17  18
ENDBRANCH  15  17
ENDBRANCH   1  15
BRANCH   4  24
ATOM     24  C   UNL     1      37.317   3.504  15.027  0.00  0.00    +0.000 C 
BRANCH  24  25
ATOM     25  C   UNL     1      38.189   4.244  15.969  0.00  0.00    +0.000 A 
ATOM     26  C   UNL     1      39.245   4.977  15.502  0.00  0.00    +0.000 A 
ATOM     27  C   UNL     1      40.053   5.668  16.415  0.00  0.00    +0.000 A 
ATOM     28  C   UNL     1      39.799   5.617  17.757  0.00  0.00    +0.000 A 
ATOM     29  C   UNL     1      38.747   4.887  18.228  0.00  0.00    +0.000 A 
ATOM     30  C   UNL     1      37.945   4.200  17.309  0.00  0.00    +0.000 A 
BRANCH  28  31
ATOM     31  O   UNL     1      40.613   6.308  18.635  0.00  0.00    +0.000 OA
ATOM     32  C   UNL     1      40.249   6.671  19.934  0.00  0.00    +0.000 C 
ENDBRANCH  28  31
ENDBRANCH  24  25
ENDBRANCH   4  24
TORSDOF 9
ENDMDL
MODEL 2
REMARK VINA RESULT:      -7.4      2.418      7.686
REMARK  Name = 
REMARK  9 active torsions:
REMARK  status: ('A' for Active; 'I' for Inactive)
REMARK    1  A    between atoms: C_2  and  C_3
REMARK    2  A    between atoms: C_3  and  C_4
REMARK    3  A    between atoms: C_3  and  C_6
REMARK    4  A    between atoms: C_6  and  O_7
REMARK    5  A    between atoms: O_7  and  C_8
REMARK    6  A    between atoms: C_8  and  C_10
REMARK    7  A    between atoms: N_13  and  C_14
REMARK    8  A    between atoms: C_14  and  C_15
REMARK    9  A    between atoms: C_18  and  O_19
REMARK                            x       y       z     vdW  Elec       q    Type
REMARK                         _______ _______ _______ _____ _____    ______ ____
ROOT
ATOM      1  C   UNL     1      38.255   2.874  15.482  0.00  0.00    +0.000 A 
ATOM      2  C   UNL     1      39.140   2.606  14.467  0.00  0.00    +0.000 A 
ATOM      3  N   UNL     1      40.100   3.511  13.932  0.00  0.00    +0.000 NA
ATOM      4  N   UNL     1      38.983   1.353  14.033  0.00  0.00    +0.000 N 
ATOM      5  C   UNL     1      37.998   0.780  14.752  0.00  0.00    +0.000 A 
ATOM      6  N   UNL     1      37.436  -0.429  14.744  0.00  0.00    +0.000 NA
ATOM      7  C   UNL     1      36.450  -0.763  15.576  0.00  0.00    +0.000 A 
ATOM      8  C   UNL     1      35.887  -2.029  15.543  0.00  0.00    +0.000 A 
ATOM      9  C   UNL     1      34.875  -2.361  16.401  0.00  0.00    +0.000 A 
ATOM     10  C   UNL     1      34.430  -1.420  17.293  0.00  0.00    +0.000 A 
ATOM     11  C   UNL     1      34.979  -0.158  17.338  0.00  0.00    +0.000 A 
ATOM     12  C   UNL     1      35.986   0.166  16.479  0.00  0.00    +0.000 A 
ATOM     13  N   UNL     1      36.534   1.402  16.513  0.00  0.00    +0.000 NA
ATOM     14  C   UNL     1      37.533   1.714  15.658  0.00  0.00    +0.000 A 
ENDROOT
BRANCH   1  15
ATOM     15  C   UNL     1      38.090   4.125  16.238  0.00  0.00    +0.000 C 
ATOM     16  O   UNL     1      37.526   5.092  15.720  0.00  0.00    +0.000 OA
BRANCH  15  17
ATOM     17  O   UNL     1      38.553   4.259  17.531  0.00  0.00    +0.000 OA
BRANCH  17  18
ATOM     18  C   UNL     1      38.714   5.425  18.257  0.00  0.00    +0.000 C 
BRANCH  18  19
ATOM     19  C   UNL     1      40.006   5.912  18.615  0.00  0.00    +0.000 C 
BRANCH  19  21
ATOM     20  C   UNL     1      39.319   7.464  20.366  0.00  0.00    +0.000 C 
ATOM     21  C   UNL     1      40.372   6.457  19.906  0.00  0.00    +0.000 C 
ENDBRANCH  19  21
BRANCH  19  22
ATOM     22  C   UNL     1      40.933   6.215  17.518  0.00  0.00    +0.000 C 
ATOM     23  C   UNL     1      42.306   6.579  18.085  0.00  0.00    +0.000 C 
ENDBRANCH  19  22
ENDBRANCH  18  19
ENDBRANCH  17  18
ENDBRANCH  15  17
ENDBRANCH   1  15
BRANCH   4  24
ATOM     24  C   UNL     1      39.697   0.646  12.982  0.00  0.00    +0.000 C 
BRANCH  24  25
ATOM     25  C   UNL     1      40.917  -0.025  13.490  0.00  0.00    +0.000 A 
ATOM     26  C   UNL     1      42.115   0.634  13.496  0.00  0.00    +0.000 A 
ATOM     27  C   UNL     1      43.253  -0.024  13.983  0.00  0.00    +0.000 A 
ATOM     28  C   UNL     1      43.178  -1.308  14.446  0.00  0.00    +0.000 A 
ATOM     29  C   UNL     1      41.985  -1.970  14.440  0.00  0.00    +0.000 A 
ATOM     30  C   UNL     1      40.854  -1.305  13.953  0.00  0.00    +0.000 A 
BRANCH  28  31
ATOM     31  O   UNL     1      44.317  -1.933  14.920  0.00  0.00    +0.000 OA
ATOM     32  C   UNL     1      45.247  -2.598  14.117  0.00  0.00    +0.000 C 
ENDBRANCH  28  31
ENDBRANCH  24  25
ENDBRANCH   4  24
TORSDOF 9
ENDMDL
MODEL 3
REMARK VINA RESULT:      -7.3      2.762      6.447
REMARK  Name = 
REMARK  9 active torsions:
REMARK  status: ('A' for Active; 'I' for Inactive)
REMARK    1  A    between atoms: C_2  and  C_3
REMARK    2  A    between atoms: C_3  and  C_4
REMARK    3  A    between atoms: C_3  and  C_6
REMARK    4  A    between atoms: C_6  and  O_7
REMARK    5  A    between atoms: O_7  and  C_8
REMARK    6  A    between atoms: C_8  and  C_10
REMARK    7  A    between atoms: N_13  and  C_14
REMARK    8  A    between atoms: C_14  and  C_15
REMARK    9  A    between atoms: C_18  and  O_19
REMARK                            x       y       z     vdW  Elec       q    Type
REMARK                         _______ _______ _______ _____ _____    ______ ____
ROOT
ATOM      1  C   UNL     1      38.087   2.682  13.570  0.00  0.00    +0.000 A 
ATOM      2  C   UNL     1      37.012   1.899  13.908  0.00  0.00    +0.000 A 
ATOM      3  N   UNL     1      36.338   0.985  13.049  0.00  0.00    +0.000 NA
ATOM      4  N   UNL     1      36.668   2.106  15.181  0.00  0.00    +0.000 N 
ATOM      5  C   UNL     1      37.507   3.025  15.699  0.00  0.00    +0.000 A 
ATOM      6  N   UNL     1      37.621   3.596  16.898  0.00  0.00    +0.000 NA
ATOM      7  C   UNL     1      38.559   4.503  17.170  0.00  0.00    +0.000 A 
ATOM      8  C   UNL     1      38.652   5.078  18.428  0.00  0.00    +0.000 A 
ATOM      9  C   UNL     1      39.617   6.008  18.696  0.00  0.00    +0.000 A 
ATOM     10  C   UNL     1      40.491   6.359  17.700  0.00  0.00    +0.000 A 
ATOM     11  C   UNL     1      40.412   5.798  16.445  0.00  0.00    +0.000 A 
ATOM     12  C   UNL     1      39.446   4.872  16.185  0.00  0.00    +0.000 A 
ATOM     13  N   UNL     1      39.357   4.313  14.957  0.00  0.00    +0.000 NA
ATOM     14  C   UNL     1      38.397   3.395  14.708  0.00  0.00    +0.000 A 
ENDROOT
BRANCH   1  15
ATOM     15  C   UNL     1      38.781   2.765  12.276  0.00  0.00    +0.000 C 
ATOM     16  O   UNL     1      38.606   3.740  11.541  0.00  0.00    +0.000 OA
BRANCH  15  17
ATOM     17  O   UNL     1      39.639   1.773  11.846  0.00  0.00    +0.000 OA
BRANCH  17  18
ATOM     18  C   UNL     1      40.472   0.980  12.614  0.00  0.00    +0.000 C 
BRANCH  18  19
ATOM     19  C   UNL     1      40.025  -0.252  13.177  0.00  0.00    +0.000 C 
BRANCH  19  21
ATOM     20  C   UNL     1      39.904  -1.744  11.252  0.00  0.00    +0.000 C 
ATOM     21  C   UNL     1      39.196  -1.232  12.505  0.00  0.00    +0.000 C 
ENDBRANCH  19  21
BRANCH  19  22
ATOM     22  C   UNL     1      40.104  -0.388  14.636  0.00  0.00    +0.000 C 
ATOM     23  C   UNL     1      40.297  -1.859  15.010  0.00  0.00    +0.000 C 
ENDBRANCH  19  22
ENDBRANCH  18  19
ENDBRANCH  17  18
ENDBRANCH  15  17
ENDBRANCH   1  15
BRANCH   4  24
ATOM     24  C   UNL     1      35.598   1.500  15.958  0.00  0.00    +0.000 C 
BRANCH  24  25
ATOM     25  C   UNL     1      36.103   0.465  16.890  0.00  0.00    +0.000 A 
ATOM     26  C   UNL     1      35.843   0.557  18.230  0.00  0.00    +0.000 A 
ATOM     27  C   UNL     1      36.333  -0.436  19.089  0.00  0.00    +0.000 A 
ATOM     28  C   UNL     1      37.061  -1.488  18.606  0.00  0.00    +0.000 A 
ATOM     29  C   UNL     1      37.322  -1.583  17.270  0.00  0.00    +0.000 A 
ATOM     30  C   UNL     1      36.830  -0.587  16.419  0.00  0.00    +0.000 A 
BRANCH  28  31
ATOM     31  O   UNL     1      37.531  -2.453  19.477  0.00  0.00    +0.000 OA
ATOM     32  C   UNL     1      38.646  -3.259  19.238  0.00  0.00    +0.000 C 
ENDBRANCH  28  31
ENDBRANCH  24  25
ENDBRANCH   4  24
TORSDOF 9
ENDMDL
MODEL 4
REMARK VINA RESULT:      -7.3      1.899      7.740
REMARK  Name = 
REMARK  9 active torsions:
REMARK  status: ('A' for Active; 'I' for Inactive)
REMARK    1  A    between atoms: C_2  and  C_3
REMARK    2  A    between atoms: C_3  and  C_4
REMARK    3  A    between atoms: C_3  and  C_6
REMARK    4  A    between atoms: C_6  and  O_7
REMARK    5  A    between atoms: O_7  and  C_8
REMARK    6  A    between atoms: C_8  and  C_10
REMARK    7  A    between atoms: N_13  and  C_14
REMARK    8  A    between atoms: C_14  and  C_15
REMARK    9  A    between atoms: C_18  and  O_19
REMARK                            x       y       z     vdW  Elec       q    Type
REMARK                         _______ _______ _______ _____ _____    ______ ____
ROOT
ATOM      1  C   UNL     1      36.587   0.920  15.812  0.00  0.00    +0.000 A 
ATOM      2  C   UNL     1      35.841   0.056  16.574  0.00  0.00    +0.000 A 
ATOM      3  N   UNL     1      34.552   0.321  17.120  0.00  0.00    +0.000 NA
ATOM      4  N   UNL     1      36.492  -1.096  16.745  0.00  0.00    +0.000 N 
ATOM      5  C   UNL     1      37.673  -1.010  16.100  0.00  0.00    +0.000 A 
ATOM      6  N   UNL     1      38.698  -1.847  15.942  0.00  0.00    +0.000 NA
ATOM      7  C   UNL     1      39.783  -1.521  15.241  0.00  0.00    +0.000 A 
ATOM      8  C   UNL     1      40.833  -2.414  15.094  0.00  0.00    +0.000 A 
ATOM      9  C   UNL     1      41.942  -2.069  14.373  0.00  0.00    +0.000 A 
ATOM     10  C   UNL     1      41.996  -0.825  13.798  0.00  0.00    +0.000 A 
ATOM     11  C   UNL     1      40.962   0.074  13.935  0.00  0.00    +0.000 A 
ATOM     12  C   UNL     1      39.860  -0.278  14.656  0.00  0.00    +0.000 A 
ATOM     13  N   UNL     1      38.837   0.596  14.798  0.00  0.00    +0.000 NA
ATOM     14  C   UNL     1      37.748   0.239  15.514  0.00  0.00    +0.000 A 
ENDROOT
BRANCH   1  15
ATOM     15  C   UNL     1      36.247   2.286  15.387  0.00  0.00    +0.000 C 
ATOM     16  O   UNL     1      35.836   2.494  14.242  0.00  0.00    +0.000 OA
BRANCH  15  17
ATOM     17  O   UNL     1      36.372   3.365  16.238  0.00  0.00    +0.000 OA
BRANCH  17  18
ATOM     18  C   UNL     1      37.525   3.855  16.823  0.00  0.00    +0.000 C 
BRANCH  18  19
ATOM     19  C   UNL     1      38.134   5.065  16.379  0.00  0.00    +0.000 C 
BRANCH  19  21
ATOM     20  C   UNL     1      39.529   4.107  14.622  0.00  0.00    +0.000 C 
ATOM     21  C   UNL     1      38.676   5.298  15.055  0.00  0.00    +0.000 C 
ENDBRANCH  19  21
BRANCH  19  22
ATOM     22  C   UNL     1      38.565   6.014  17.412  0.00  0.00    +0.000 C 
ATOM     23  C   UNL     1      39.083   5.253  18.633  0.00  0.00    +0.000 C 
ENDBRANCH  19  22
ENDBRANCH  18  19
ENDBRANCH  17  18
ENDBRANCH  15  17
ENDBRANCH   1  15
BRANCH   4  24
ATOM     24  C   UNL     1      36.086  -2.285  17.477  0.00  0.00    +0.000 C 
BRANCH  24  25
ATOM     25  C   UNL     1      35.551  -3.337  16.580  0.00  0.00    +0.000 A 
ATOM     26  C   UNL     1      36.257  -4.489  16.368  0.00  0.00    +0.000 A 
ATOM     27  C   UNL     1      35.727  -5.466  15.516  0.00  0.00    +0.000 A 
ATOM     28  C   UNL     1      34.522  -5.282  14.897  0.00  0.00    +0.000 A 
ATOM     29  C   UNL     1      33.814  -4.133  15.105  0.00  0.00    +0.000 A 
ATOM     30  C   UNL     1      34.351  -3.162  15.958  0.00  0.00    +0.000 A 
BRANCH  28  31
ATOM     31  O   UNL     1      34.023  -6.263  14.061  0.00  0.00    +0.000 OA
ATOM     32  C   UNL     1      33.847  -7.600  14.426  0.00  0.00    +0.000 C 
ENDBRANCH  28  31
ENDBRANCH  24  25
ENDBRANCH   4  24
TORSDOF 9
ENDMDL
MODEL 5
REMARK VINA RESULT:      -7.2      2.323      5.800
REMARK  Name = 
REMARK  9 active torsions:
REMARK  status: ('A' for Active; 'I' for Inactive)
REMARK    1  A    between atoms: C_2  and  C_3
REMARK    2  A    between atoms: C_3  and  C_4
REMARK    3  A    between atoms: C_3  and  C_6
REMARK    4  A    between atoms: C_6  and  O_7
REMARK    5  A    between atoms: O_7  and  C_8
REMARK    6  A    between atoms: C_8  and  C_10
REMARK    7  A    between atoms: N_13  and  C_14
REMARK    8  A    between atoms: C_14  and  C_15
REMARK    9  A    between atoms: C_18  and  O_19
REMARK                            x       y       z     vdW  Elec       q    Type
REMARK                         _______ _______ _______ _____ _____    ______ ____
ROOT
ATOM      1  C   UNL     1      36.672   2.177  16.073  0.00  0.00    +0.000 A 
ATOM      2  C   UNL     1      36.928   1.823  14.772  0.00  0.00    +0.000 A 
ATOM      3  N   UNL     1      36.236   0.827  14.024  0.00  0.00    +0.000 NA
ATOM      4  N   UNL     1      37.935   2.548  14.281  0.00  0.00    +0.000 N 
ATOM      5  C   UNL     1      38.357   3.389  15.247  0.00  0.00    +0.000 A 
ATOM      6  N   UNL     1      39.312   4.317  15.308  0.00  0.00    +0.000 NA
ATOM      7  C   UNL     1      39.539   5.035  16.407  0.00  0.00    +0.000 A 
ATOM      8  C   UNL     1      40.540   5.993  16.438  0.00  0.00    +0.000 A 
ATOM      9  C   UNL     1      40.765   6.725  17.571  0.00  0.00    +0.000 A 
ATOM     10  C   UNL     1      39.984   6.494  18.673  0.00  0.00    +0.000 A 
ATOM     11  C   UNL     1      38.986   5.545  18.658  0.00  0.00    +0.000 A 
ATOM     12  C   UNL     1      38.768   4.820  17.525  0.00  0.00    +0.000 A 
ATOM     13  N   UNL     1      37.790   3.884  17.497  0.00  0.00    +0.000 NA
ATOM     14  C   UNL     1      37.581   3.170  16.369  0.00  0.00    +0.000 A 
ENDROOT
BRANCH   1  15
ATOM     15  C   UNL     1      35.653   1.632  16.981  0.00  0.00    +0.000 C 
ATOM     16  O   UNL     1      34.455   1.790  16.734  0.00  0.00    +0.000 OA
BRANCH  15  17
ATOM     17  O   UNL     1      35.993   0.935  18.123  0.00  0.00    +0.000 OA
BRANCH  17  18
ATOM     18  C   UNL     1      36.100  -0.434  18.281  0.00  0.00    +0.000 C 
BRANCH  18  19
ATOM     19  C   UNL     1      36.465  -1.288  17.199  0.00  0.00    +0.000 C 
BRANCH  19  21
ATOM     20  C   UNL     1      34.155  -2.039  16.988  0.00  0.00    +0.000 C 
ATOM     21  C   UNL     1      35.542  -2.009  16.347  0.00  0.00    +0.000 C 
ENDBRANCH  19  21
BRANCH  19  22
ATOM     22  C   UNL     1      37.857  -1.752  17.156  0.00  0.00    +0.000 C 
ATOM     23  C   UNL     1      38.506  -1.323  15.839  0.00  0.00    +0.000 C 
ENDBRANCH  19  22
ENDBRANCH  18  19
ENDBRANCH  17  18
ENDBRANCH  15  17
ENDBRANCH   1  15
BRANCH   4  24
ATOM     24  C   UNL     1      38.540   2.511  12.959  0.00  0.00    +0.000 C 
BRANCH  24  25
ATOM     25  C   UNL     1      39.408   1.324  12.775  0.00  0.00    +0.000 A 
ATOM     26  C   UNL     1      39.128   0.409  11.798  0.00  0.00    +0.000 A 
ATOM     27  C   UNL     1      39.966  -0.704  11.646  0.00  0.00    +0.000 A 
ATOM     28  C   UNL     1      41.051  -0.884  12.459  0.00  0.00    +0.000 A 
ATOM     29  C   UNL     1      41.332   0.025  13.436  0.00  0.00    +0.000 A 
ATOM     30  C   UNL     1      40.491   1.134  13.581  0.00  0.00    +0.000 A 
BRANCH  28  31
ATOM     31  O   UNL     1      41.859  -1.992  12.287  0.00  0.00    +0.000 OA
ATOM     32  C   UNL     1      41.571  -3.267  12.780  0.00  0.00    +0.000 C 
ENDBRANCH  28  31
ENDBRANCH  24  25
ENDBRANCH   4  24
TORSDOF 9
ENDMDL
MODEL 6
REMARK VINA RESULT:      -7.1      2.729      4.899
REMARK  Name = 
REMARK  9 active torsions:
REMARK  status: ('A' for Active; 'I' for Inactive)
REMARK    1  A    between atoms: C_2  and  C_3
REMARK    2  A    between atoms: C_3  and  C_4
REMARK    3  A    between atoms: C_3  and  C_6
REMARK    4  A    between atoms: C_6  and  O_7
REMARK    5  A    between atoms: O_7  and  C_8
REMARK    6  A    between atoms: C_8  and  C_10
REMARK    7  A    between atoms: N_13  and  C_14
REMARK    8  A    between atoms: C_14  and  C_15
REMARK    9  A    between atoms: C_18  and  O_19
REMARK                            x       y       z     vdW  Elec       q    Type
REMARK                         _______ _______ _______ _____ _____    ______ ____
ROOT
ATOM      1  C   UNL     1      39.883   2.238  13.945  0.00  0.00    +0.000 A 
ATOM      2  C   UNL     1      39.994   3.593  14.134  0.00  0.00    +0.000 A 
ATOM      3  N   UNL     1      41.010   4.433  13.595  0.00  0.00    +0.000 NA
ATOM      4  N   UNL     1      39.001   4.038  14.907  0.00  0.00    +0.000 N 
ATOM      5  C   UNL     1      38.224   2.987  15.239  0.00  0.00    +0.000 A 
ATOM      6  N   UNL     1      37.121   2.854  15.976  0.00  0.00    +0.000 NA
ATOM      7  C   UNL     1      36.524   1.677  16.159  0.00  0.00    +0.000 A 
ATOM      8  C   UNL     1      35.378   1.572  16.931  0.00  0.00    +0.000 A 
ATOM      9  C   UNL     1      34.773   0.360  17.112  0.00  0.00    +0.000 A 
ATOM     10  C   UNL     1      35.319  -0.748  16.517  0.00  0.00    +0.000 A 
ATOM     11  C   UNL     1      36.458  -0.660  15.747  0.00  0.00    +0.000 A 
ATOM     12  C   UNL     1      37.055   0.552  15.571  0.00  0.00    +0.000 A 
ATOM     13  N   UNL     1      38.174   0.653  14.818  0.00  0.00    +0.000 NA
ATOM     14  C   UNL     1      38.760   1.859  14.648  0.00  0.00    +0.000 A 
ENDROOT
BRANCH   1  15
ATOM     15  C   UNL     1      40.761   1.352  13.165  0.00  0.00    +0.000 C 
ATOM     16  O   UNL     1      40.785   1.432  11.935  0.00  0.00    +0.000 OA
BRANCH  15  17
ATOM     17  O   UNL     1      41.576   0.418  13.772  0.00  0.00    +0.000 OA
BRANCH  17  18
ATOM     18  C   UNL     1      41.671  -0.933  13.493  0.00  0.00    +0.000 C 
BRANCH  18  19
ATOM     19  C   UNL     1      40.668  -1.856  13.911  0.00  0.00    +0.000 C 
BRANCH  19  21
ATOM     20  C   UNL     1      39.068  -1.651  12.081  0.00  0.00    +0.000 C 
ATOM     21  C   UNL     1      39.794  -2.604  13.030  0.00  0.00    +0.000 C 
ENDBRANCH  19  21
BRANCH  19  22
ATOM     22  C   UNL     1      40.243  -1.793  15.314  0.00  0.00    +0.000 C 
ATOM     23  C   UNL     1      39.834  -3.186  15.796  0.00  0.00    +0.000 C 
ENDBRANCH  19  22
ENDBRANCH  18  19
ENDBRANCH  17  18
ENDBRANCH  15  17
ENDBRANCH   1  15
BRANCH   4  24
ATOM     24  C   UNL     1      38.724   5.390  15.364  0.00  0.00    +0.000 C 
BRANCH  24  25
ATOM     25  C   UNL     1      39.350   5.674  16.678  0.00  0.00    +0.000 A 
ATOM     26  C   UNL     1      38.627   5.536  17.831  0.00  0.00    +0.000 A 
ATOM     27  C   UNL     1      39.245   5.811  19.059  0.00  0.00    +0.000 A 
ATOM     28  C   UNL     1      40.550   6.213  19.115  0.00  0.00    +0.000 A 
ATOM     29  C   UNL     1      41.274   6.353  17.967  0.00  0.00    +0.000 A 
ATOM     30  C   UNL     1      40.650   6.076  16.745  0.00  0.00    +0.000 A 
BRANCH  28  31
ATOM     31  O   UNL     1      41.133   6.478  20.340  0.00  0.00    +0.000 OA
ATOM     32  C   UNL     1      42.499   6.365  20.608  0.00  0.00    +0.000 C 
ENDBRANCH  28  31
ENDBRANCH  24  25
ENDBRANCH   4  24
TORSDOF 9
ENDMDL
MODEL 7
REMARK VINA RESULT:      -7.0      2.818      5.004
REMARK  Name = 
REMARK  9 active torsions:
REMARK  status: ('A' for Active; 'I' for Inactive)
REMARK    1  A    between atoms: C_2  and  C_3
REMARK    2  A    between atoms: C_3  and  C_4
REMARK    3  A    between atoms: C_3  and  C_6
REMARK    4  A    between atoms: C_6  and  O_7
REMARK    5  A    between atoms: O_7  and  C_8
REMARK    6  A    between atoms: C_8  and  C_10
REMARK    7  A    between atoms: N_13  and  C_14
REMARK    8  A    between atoms: C_14  and  C_15
REMARK    9  A    between atoms: C_18  and  O_19
REMARK                            x       y       z     vdW  Elec       q    Type
REMARK                         _______ _______ _______ _____ _____    ______ ____
ROOT
ATOM      1  C   UNL     1      37.755  -1.133  13.873  0.00  0.00    +0.000 A 
ATOM      2  C   UNL     1      36.946  -0.037  13.703  0.00  0.00    +0.000 A 
ATOM      3  N   UNL     1      36.654   0.604  12.465  0.00  0.00    +0.000 NA
ATOM      4  N   UNL     1      36.454   0.364  14.877  0.00  0.00    +0.000 N 
ATOM      5  C   UNL     1      36.927  -0.458  15.834  0.00  0.00    +0.000 A 
ATOM      6  N   UNL     1      36.766  -0.521  17.156  0.00  0.00    +0.000 NA
ATOM      7  C   UNL     1      37.358  -1.453  17.903  0.00  0.00    +0.000 A 
ATOM      8  C   UNL     1      37.170  -1.492  19.275  0.00  0.00    +0.000 A 
ATOM      9  C   UNL     1      37.782  -2.452  20.032  0.00  0.00    +0.000 A 
ATOM     10  C   UNL     1      38.582  -3.374  19.409  0.00  0.00    +0.000 A 
ATOM     11  C   UNL     1      38.780  -3.348  18.046  0.00  0.00    +0.000 A 
ATOM     12  C   UNL     1      38.167  -2.388  17.299  0.00  0.00    +0.000 A 
ATOM     13  N   UNL     1      38.352  -2.351  15.959  0.00  0.00    +0.000 NA
ATOM     14  C   UNL     1      37.740  -1.395  15.225  0.00  0.00    +0.000 A 
ENDROOT
BRANCH   1  15
ATOM     15  C   UNL     1      38.492  -1.887  12.849  0.00  0.00    +0.000 C 
ATOM     16  O   UNL     1      38.430  -3.119  12.821  0.00  0.00    +0.000 OA
BRANCH  15  17
ATOM     17  O   UNL     1      39.268  -1.255  11.897  0.00  0.00    +0.000 OA
BRANCH  17  18
ATOM     18  C   UNL     1      40.541  -0.739  12.048  0.00  0.00    +0.000 C 
BRANCH  18  19
ATOM     19  C   UNL     1      40.849   0.215  13.063  0.00  0.00    +0.000 C 
BRANCH  19  21
ATOM     20  C   UNL     1      39.793   1.975  14.380  0.00  0.00    +0.000 C 
ATOM     21  C   UNL     1      40.457   1.609  13.054  0.00  0.00    +0.000 C 
ENDBRANCH  19  21
BRANCH  19  22
ATOM     22  C   UNL     1      41.921  -0.133  14.004  0.00  0.00    +0.000 C 
ATOM     23  C   UNL     1      41.723  -1.562  14.512  0.00  0.00    +0.000 C 
ENDBRANCH  19  22
ENDBRANCH  18  19
ENDBRANCH  17  18
ENDBRANCH  15  17
ENDBRANCH   1  15
BRANCH   4  24
ATOM     24  C   UNL     1      35.562   1.475  15.172  0.00  0.00    +0.000 C 
BRANCH  24  25
ATOM     25  C   UNL     1      36.296   2.751  15.339  0.00  0.00    +0.000 A 
ATOM     26  C   UNL     1      36.904   3.047  16.528  0.00  0.00    +0.000 A 
ATOM     27  C   UNL     1      37.592   4.261  16.659  0.00  0.00    +0.000 A 
ATOM     28  C   UNL     1      37.661   5.145  15.619  0.00  0.00    +0.000 A 
ATOM     29  C   UNL     1      37.055   4.855  14.431  0.00  0.00    +0.000 A 
ATOM     30  C   UNL     1      36.370   3.640  14.309  0.00  0.00    +0.000 A 
BRANCH  28  31
ATOM     31  O   UNL     1      38.346   6.335  15.776  0.00  0.00    +0.000 OA
ATOM     32  C   UNL     1      39.471   6.500  16.587  0.00  0.00    +0.000 C 
ENDBRANCH  28  31
ENDBRANCH  24  25
ENDBRANCH   4  24
TORSDOF 9
ENDMDL
MODEL 8
REMARK VINA RESULT:      -6.9      2.323      4.997
REMARK  Name = 
REMARK  9 active torsions:
REMARK  status: ('A' for Active; 'I' for Inactive)
REMARK    1  A    between atoms: C_2  and  C_3
REMARK    2  A    between atoms: C_3  and  C_4
REMARK    3  A    between atoms: C_3  and  C_6
REMARK    4  A    between atoms: C_6  and  O_7
REMARK    5  A    between atoms: O_7  and  C_8
REMARK    6  A    between atoms: C_8  and  C_10
REMARK    7  A    between atoms: N_13  and  C_14
REMARK    8  A    between atoms: C_14  and  C_15
REMARK    9  A    between atoms: C_18  and  O_19
REMARK                            x       y       z     vdW  Elec       q    Type
REMARK                         _______ _______ _______ _____ _____    ______ ____
ROOT
ATOM      1  C   UNL     1      38.030   1.232  13.027  0.00  0.00    +0.000 A 
ATOM      2  C   UNL     1      37.960   2.587  13.232  0.00  0.00    +0.000 A 
ATOM      3  N   UNL     1      38.636   3.584  12.472  0.00  0.00    +0.000 NA
ATOM      4  N   UNL     1      37.156   2.861  14.261  0.00  0.00    +0.000 N 
ATOM      5  C   UNL     1      36.685   1.696  14.748  0.00  0.00    +0.000 A 
ATOM      6  N   UNL     1      35.863   1.382  15.750  0.00  0.00    +0.000 NA
ATOM      7  C   UNL     1      35.543   0.121  16.041  0.00  0.00    +0.000 A 
ATOM      8  C   UNL     1      34.685  -0.173  17.088  0.00  0.00    +0.000 A 
ATOM      9  C   UNL     1      34.363  -1.469  17.379  0.00  0.00    +0.000 A 
ATOM     10  C   UNL     1      34.903  -2.472  16.614  0.00  0.00    +0.000 A 
ATOM     11  C   UNL     1      35.758  -2.196  15.570  0.00  0.00    +0.000 A 
ATOM     12  C   UNL     1      36.074  -0.900  15.288  0.00  0.00    +0.000 A 
ATOM     13  N   UNL     1      36.912  -0.616  14.265  0.00  0.00    +0.000 NA
ATOM     14  C   UNL     1      37.220   0.671  13.991  0.00  0.00    +0.000 A 
ENDROOT
BRANCH   1  15
ATOM     15  C   UNL     1      38.796   0.504  12.005  0.00  0.00    +0.000 C 
ATOM     16  O   UNL     1      38.473   0.580  10.817  0.00  0.00    +0.000 OA
BRANCH  15  17
ATOM     17  O   UNL     1      39.887  -0.276  12.332  0.00  0.00    +0.000 OA
BRANCH  17  18
ATOM     18  C   UNL     1      40.944   0.049  13.161  0.00  0.00    +0.000 C 
BRANCH  18  19
ATOM     19  C   UNL     1      41.321  -0.783  14.256  0.00  0.00    +0.000 C 
BRANCH  19  21
ATOM     20  C   UNL     1      43.716  -0.512  14.628  0.00  0.00    +0.000 C 
ATOM     21  C   UNL     1      42.575  -1.497  14.378  0.00  0.00    +0.000 C 
ENDBRANCH  19  21
BRANCH  19  22
ATOM     22  C   UNL     1      40.249  -1.235  15.152  0.00  0.00    +0.000 C 
ATOM     23  C   UNL     1      40.060  -2.746  15.014  0.00  0.00    +0.000 C 
ENDBRANCH  19  22
ENDBRANCH  18  19
ENDBRANCH  17  18
ENDBRANCH  15  17
ENDBRANCH   1  15
BRANCH   4  24
ATOM     24  C   UNL     1      36.792   4.150  14.830  0.00  0.00    +0.000 C 
BRANCH  24  25
ATOM     25  C   UNL     1      37.780   4.616  15.832  0.00  0.00    +0.000 A 
ATOM     26  C   UNL     1      38.796   5.453  15.463  0.00  0.00    +0.000 A 
ATOM     27  C   UNL     1      39.715   5.878  16.432  0.00  0.00    +0.000 A 
ATOM     28  C   UNL     1      39.607   5.468  17.731  0.00  0.00    +0.000 A 
ATOM     29  C   UNL     1      38.595   4.632  18.104  0.00  0.00    +0.000 A 
ATOM     30  C   UNL     1      37.682   4.212  17.130  0.00  0.00    +0.000 A 
BRANCH  28  31
ATOM     31  O   UNL     1      40.528   5.903  18.666  0.00  0.00    +0.000 OA
ATOM     32  C   UNL     1      40.201   6.560  19.854  0.00  0.00    +0.000 C 
ENDBRANCH  28  31
ENDBRANCH  24  25
ENDBRANCH   4  24
TORSDOF 9
ENDMDL
MODEL 9
REMARK VINA RESULT:      -6.9     24.156     27.813
REMARK  Name = 
REMARK  9 active torsions:
REMARK  status: ('A' for Active; 'I' for Inactive)
REMARK    1  A    between atoms: C_2  and  C_3
REMARK    2  A    between atoms: C_3  and  C_4
REMARK    3  A    between atoms: C_3  and  C_6
REMARK    4  A    between atoms: C_6  and  O_7
REMARK    5  A    between atoms: O_7  and  C_8
REMARK    6  A    between atoms: C_8  and  C_10
REMARK    7  A    between atoms: N_13  and  C_14
REMARK    8  A    between atoms: C_14  and  C_15
REMARK    9  A    between atoms: C_18  and  O_19
REMARK                            x       y       z     vdW  Elec       q    Type
REMARK                         _______ _______ _______ _____ _____    ______ ____
ROOT
ATOM      1  C   UNL     1      27.248  15.455  34.879  0.00  0.00    +0.000 A 
ATOM      2  C   UNL     1      28.598  15.678  34.977  0.00  0.00    +0.000 A 
ATOM      3  N   UNL     1      29.510  15.789  33.888  0.00  0.00    +0.000 NA
ATOM      4  N   UNL     1      28.961  15.783  36.257  0.00  0.00    +0.000 N 
ATOM      5  C   UNL     1      27.860  15.631  37.020  0.00  0.00    +0.000 A 
ATOM      6  N   UNL     1      27.641  15.641  38.335  0.00  0.00    +0.000 NA
ATOM      7  C   UNL     1      26.429  15.462  38.857  0.00  0.00    +0.000 A 
ATOM      8  C   UNL     1      26.234  15.479  40.229  0.00  0.00    +0.000 A 
ATOM      9  C   UNL     1      24.986  15.294  40.756  0.00  0.00    +0.000 A 
ATOM     10  C   UNL     1      23.932  15.093  39.902  0.00  0.00    +0.000 A 
ATOM     11  C   UNL     1      24.109  15.073  38.537  0.00  0.00    +0.000 A 
ATOM     12  C   UNL     1      25.356  15.258  38.020  0.00  0.00    +0.000 A 
ATOM     13  N   UNL     1      25.544  15.240  36.680  0.00  0.00    +0.000 NA
ATOM     14  C   UNL     1      26.784  15.425  36.176  0.00  0.00    +0.000 A 
ENDROOT
BRANCH   1  15
ATOM     15  C   UNL     1      26.440  15.280  33.663  0.00  0.00    +0.000 C 
ATOM     16  O   UNL     1      26.171  14.147  33.256  0.00  0.00    +0.000 OA
BRANCH  15  17
ATOM     17  O   UNL     1      25.963  16.358  32.945  0.00  0.00    +0.000 OA
BRANCH  17  18
ATOM     18  C   UNL     1      24.760  17.020  33.109  0.00  0.00    +0.000 C 
BRANCH  18  19
ATOM     19  C   UNL     1      24.662  18.437  32.993  0.00  0.00    +0.000 C 
BRANCH  19  21
ATOM     20  C   UNL     1      24.697  18.616  35.425  0.00  0.00    +0.000 C 
ATOM     21  C   UNL     1      24.666  19.374  34.098  0.00  0.00    +0.000 C 
ENDBRANCH  19  21
BRANCH  19  22
ATOM     22  C   UNL     1      24.175  18.972  31.716  0.00  0.00    +0.000 C 
ATOM     23  C   UNL     1      22.760  19.527  31.892  0.00  0.00    +0.000 C 
ENDBRANCH  19  22
ENDBRANCH  18  19
ENDBRANCH  17  18
ENDBRANCH  15  17
ENDBRANCH   1  15
BRANCH   4  24
ATOM     24  C   UNL     1      30.279  16.017  36.827  0.00  0.00    +0.000 C 
BRANCH  24  25
ATOM     25  C   UNL     1      31.094  14.780  36.873  0.00  0.00    +0.000 A 
ATOM     26  C   UNL     1      32.019  14.526  35.898  0.00  0.00    +0.000 A 
ATOM     27  C   UNL     1      32.777  13.349  35.968  0.00  0.00    +0.000 A 
ATOM     28  C   UNL     1      32.601  12.459  36.991  0.00  0.00    +0.000 A 
ATOM     29  C   UNL     1      31.679  12.708  37.964  0.00  0.00    +0.000 A 
ATOM     30  C   UNL     1      30.927  13.886  37.888  0.00  0.00    +0.000 A 
BRANCH  28  31
ATOM     31  O   UNL     1      33.362  11.306  37.033  0.00  0.00    +0.000 OA
ATOM     32  C   UNL     1      34.745  11.262  36.840  0.00  0.00    +0.000 C 
ENDBRANCH  28  31
ENDBRANCH  24  25
ENDBRANCH   4  24
TORSDOF 9
ENDMDL
MODEL 10
REMARK VINA RESULT:      -6.8     24.842     27.791
REMARK  Name = 
REMARK  9 active torsions:
REMARK  status: ('A' for Active; 'I' for Inactive)
REMARK    1  A    between atoms: C_2  and  C_3
REMARK    2  A    between atoms: C_3  and  C_4
REMARK    3  A    between atoms: C_3  and  C_6
REMARK    4  A    between atoms: C_6  and  O_7
REMARK    5  A    between atoms: O_7  and  C_8
REMARK    6  A    between atoms: C_8  and  C_10
REMARK    7  A    between atoms: N_13  and  C_14
REMARK    8  A    between atoms: C_14  and  C_15
REMARK    9  A    between atoms: C_18  and  O_19
REMARK                            x       y       z     vdW  Elec       q    Type
REMARK                         _______ _______ _______ _____ _____    ______ ____
ROOT
ATOM      1  C   UNL     1      27.136  15.440  35.068  0.00  0.00    +0.000 A 
ATOM      2  C   UNL     1      26.568  15.566  36.311  0.00  0.00    +0.000 A 
ATOM      3  N   UNL     1      25.183  15.434  36.617  0.00  0.00    +0.000 NA
ATOM      4  N   UNL     1      27.503  15.837  37.224  0.00  0.00    +0.000 N 
ATOM      5  C   UNL     1      28.697  15.891  36.600  0.00  0.00    +0.000 A 
ATOM      6  N   UNL     1      29.943  16.122  37.013  0.00  0.00    +0.000 NA
ATOM      7  C   UNL     1      30.982  16.123  36.180  0.00  0.00    +0.000 A 
ATOM      8  C   UNL     1      32.266  16.366  36.641  0.00  0.00    +0.000 A 
ATOM      9  C   UNL     1      33.325  16.365  35.777  0.00  0.00    +0.000 A 
ATOM     10  C   UNL     1      33.095  16.119  34.448  0.00  0.00    +0.000 A 
ATOM     11  C   UNL     1      31.825  15.876  33.974  0.00  0.00    +0.000 A 
ATOM     12  C   UNL     1      30.774  15.879  34.842  0.00  0.00    +0.000 A 
ATOM     13  N   UNL     1      29.521  15.642  34.389  0.00  0.00    +0.000 NA
ATOM     14  C   UNL     1      28.485  15.647  35.256  0.00  0.00    +0.000 A 
ENDROOT
BRANCH   1  15
ATOM     15  C   UNL     1      26.471  15.145  33.790  0.00  0.00    +0.000 C 
ATOM     16  O   UNL     1      26.288  13.976  33.441  0.00  0.00    +0.000 OA
BRANCH  15  17
ATOM     17  O   UNL     1      26.034  16.149  32.949  0.00  0.00    +0.000 OA
BRANCH  17  18
ATOM     18  C   UNL     1      24.786  16.743  32.914  0.00  0.00    +0.000 C 
BRANCH  18  19
ATOM     19  C   UNL     1      24.632  18.156  32.799  0.00  0.00    +0.000 C 
BRANCH  19  21
ATOM     20  C   UNL     1      22.808  19.507  31.907  0.00  0.00    +0.000 C 
ATOM     21  C   UNL     1      24.162  18.858  31.622  0.00  0.00    +0.000 C 
ENDBRANCH  19  21
BRANCH  19  22
ATOM     22  C   UNL     1      25.317  18.987  33.796  0.00  0.00    +0.000 C 
ATOM     23  C   UNL     1      24.703  18.751  35.178  0.00  0.00    +0.000 C 
ENDBRANCH  19  22
ENDBRANCH  18  19
ENDBRANCH  17  18
ENDBRANCH  15  17
ENDBRANCH   1  15
BRANCH   4  24
ATOM     24  C   UNL     1      27.360  16.051  38.656  0.00  0.00    +0.000 C 
BRANCH  24  25
ATOM     25  C   UNL     1      27.418  14.781  39.418  0.00  0.00    +0.000 A 
ATOM     26  C   UNL     1      26.273  14.077  39.674  0.00  0.00    +0.000 A 
ATOM     27  C   UNL     1      26.357  12.879  40.397  0.00  0.00    +0.000 A 
ATOM     28  C   UNL     1      27.561  12.411  40.845  0.00  0.00    +0.000 A 
ATOM     29  C   UNL     1      28.705  13.111  40.593  0.00  0.00    +0.000 A 
ATOM     30  C   UNL     1      28.612  14.306  39.870  0.00  0.00    +0.000 A 
BRANCH  28  31
ATOM     31  O   UNL     1      27.614  11.227  41.556  0.00  0.00    +0.000 OA
ATOM     32  C   UNL     1      27.201   9.987  41.062  0.00  0.00    +0.000 C 
ENDBRANCH  28  31
ENDBRANCH  24  25
ENDBRANCH   4  24
TORSDOF 9
ENDMDL
