MODEL 1
REMARK VINA RESULT:      -5.9      0.000      0.000
REMARK  Name = 
REMARK  6 active torsions:
REMARK  status: ('A' for Active; 'I' for Inactive)
REMARK    1  A    between atoms: O_2  and  C_3
REMARK    2  A    between atoms: C_5  and  C_6
REMARK    3  A    between atoms: C_6  and  N_7
REMARK    4  A    between atoms: N_7  and  C_8
REMARK    5  A    between atoms: C_14  and  N_15
REMARK    6  A    between atoms: C_19  and  O_20
REMARK                            x       y       z     vdW  Elec       q    Type
REMARK                         _______ _______ _______ _____ _____    ______ ____
ROOT
ATOM      1  C   UNL     1      28.389  22.891  26.662  0.00  0.00    +0.000 A 
ATOM      2  C   UNL     1      28.945  22.499  27.837  0.00  0.00    +0.000 A 
ATOM      3  C   UNL     1      28.164  22.634  28.957  0.00  0.00    +0.000 A 
ATOM      4  C   UNL     1      26.893  23.095  29.012  0.00  0.00    +0.000 A 
ATOM      5  C   UNL     1      26.317  23.508  27.798  0.00  0.00    +0.000 A 
ATOM      6  C   UNL     1      27.093  23.397  26.688  0.00  0.00    +0.000 A 
ENDROOT
BRANCH   4   7
ATOM      7  N   UNL     1      26.146  22.942  30.223  0.00  0.00    +0.000 N 
ATOM      8  O   UNL     1      25.795  24.007  30.809  0.00  0.00    +0.000 OA
ATOM      9  O   UNL     1      25.799  21.776  30.805  0.00  0.00    +0.000 OA
ENDBRANCH   4   7
BRANCH   1  11
ATOM     10  C   UNL     1      30.519  22.540  25.497  0.00  0.00    +0.000 C 
ATOM     11  O   UNL     1      29.094  22.729  25.424  0.00  0.00    +0.000 OA
ENDBRANCH   1  11
BRANCH   6  12
ATOM     12  O   UNL     1      26.655  23.852  25.424  0.00  0.00    +0.000 OA
ATOM     13  C   UNL     1      25.669  23.024  24.760  0.00  0.00    +0.000 C 
ENDBRANCH   6  12
BRANCH   3  14
ATOM     14  C   UNL     1      28.818  22.617  30.413  0.00  0.00    +0.000 C 
BRANCH  14  15
ATOM     15  N   UNL     1      30.157  22.564  30.003  0.00  0.00    +0.000 NA
BRANCH  15  16
ATOM     16  C   UNL     1      31.398  22.134  30.405  0.00  0.00    +0.000 A 
ATOM     17  C   UNL     1      31.733  21.612  31.637  0.00  0.00    +0.000 A 
ATOM     18  C   UNL     1      33.035  21.233  31.873  0.00  0.00    +0.000 A 
ATOM     19  C   UNL     1      34.051  21.330  30.974  0.00  0.00    +0.000 A 
ATOM     20  C   UNL     1      33.699  21.860  29.732  0.00  0.00    +0.000 A 
ATOM     21  C   UNL     1      32.451  22.248  29.432  0.00  0.00    +0.000 A 
ENDBRANCH  15  16
ENDBRANCH  14  15
ENDBRANCH   3  14
TORSDOF 6
ENDMDL
MODEL 2
REMARK VINA RESULT:      -5.8     17.035     18.443
REMARK  Name = 
REMARK  6 active torsions:
REMARK  status: ('A' for Active; 'I' for Inactive)
REMARK    1  A    between atoms: O_2  and  C_3
REMARK    2  A    between atoms: C_5  and  C_6
REMARK    3  A    between atoms: C_6  and  N_7
REMARK    4  A    between atoms: N_7  and  C_8
REMARK    5  A    between atoms: C_14  and  N_15
REMARK    6  A    between atoms: C_19  and  O_20
REMARK                            x       y       z     vdW  Elec       q    Type
REMARK                         _______ _______ _______ _____ _____    ______ ____
ROOT
ATOM      1  C   UNL     1      17.030  10.526  36.403  0.00  0.00    +0.000 A 
ATOM      2  C   UNL     1      18.185   9.897  36.737  0.00  0.00    +0.000 A 
ATOM      3  C   UNL     1      18.347   9.579  38.062  0.00  0.00    +0.000 A 
ATOM      4  C   UNL     1      17.470   9.808  39.066  0.00  0.00    +0.000 A 
ATOM      5  C   UNL     1      16.275  10.466  38.725  0.00  0.00    +0.000 A 
ATOM      6  C   UNL     1      16.118  10.802  37.418  0.00  0.00    +0.000 A 
ENDROOT
BRANCH   4   7
ATOM      7  N   UNL     1      17.692   9.198  40.342  0.00  0.00    +0.000 N 
ATOM      8  O   UNL     1      17.277   8.012  40.482  0.00  0.00    +0.000 OA
ATOM      9  O   UNL     1      18.284   9.773  41.408  0.00  0.00    +0.000 OA
ENDBRANCH   4   7
BRANCH   1  11
ATOM     10  C   UNL     1      17.517  10.186  34.023  0.00  0.00    +0.000 C 
ATOM     11  O   UNL     1      16.731  10.840  35.036  0.00  0.00    +0.000 OA
ENDBRANCH   1  11
BRANCH   6  12
ATOM     12  O   UNL     1      14.997  11.534  36.965  0.00  0.00    +0.000 OA
ATOM     13  C   UNL     1      13.768  11.331  37.704  0.00  0.00    +0.000 C 
ENDBRANCH   6  12
BRANCH   3  14
ATOM     14  C   UNL     1      19.792   9.237  38.648  0.00  0.00    +0.000 C 
BRANCH  14  15
ATOM     15  N   UNL     1      20.500  10.232  37.960  0.00  0.00    +0.000 NA
BRANCH  15  16
ATOM     16  C   UNL     1      21.758  10.558  37.517  0.00  0.00    +0.000 A 
ATOM     17  C   UNL     1      22.590  11.530  38.031  0.00  0.00    +0.000 A 
ATOM     18  C   UNL     1      23.826  11.728  37.459  0.00  0.00    +0.000 A 
ATOM     19  C   UNL     1      24.315  11.031  36.399  0.00  0.00    +0.000 A 
ATOM     20  C   UNL     1      23.463  10.051  35.886  0.00  0.00    +0.000 A 
ATOM     21  C   UNL     1      22.248   9.802  36.395  0.00  0.00    +0.000 A 
ENDBRANCH  15  16
ENDBRANCH  14  15
ENDBRANCH   3  14
TORSDOF 6
ENDMDL
MODEL 3
REMARK VINA RESULT:      -5.8      3.567      5.694
REMARK  Name = 
REMARK  6 active torsions:
REMARK  status: ('A' for Active; 'I' for Inactive)
REMARK    1  A    between atoms: O_2  and  C_3
REMARK    2  A    between atoms: C_5  and  C_6
REMARK    3  A    between atoms: C_6  and  N_7
REMARK    4  A    between atoms: N_7  and  C_8
REMARK    5  A    between atoms: C_14  and  N_15
REMARK    6  A    between atoms: C_19  and  O_20
REMARK                            x       y       z     vdW  Elec       q    Type
REMARK                         _______ _______ _______ _____ _____    ______ ____
ROOT
ATOM      1  C   UNL     1      25.920  23.770  29.586  0.00  0.00    +0.000 A 
ATOM      2  C   UNL     1      26.227  23.295  28.352  0.00  0.00    +0.000 A 
ATOM      3  C   UNL     1      25.947  24.121  27.293  0.00  0.00    +0.000 A 
ATOM      4  C   UNL     1      25.417  25.365  27.349  0.00  0.00    +0.000 A 
ATOM      5  C   UNL     1      25.092  25.857  28.625  0.00  0.00    +0.000 A 
ATOM      6  C   UNL     1      25.347  25.036  29.677  0.00  0.00    +0.000 A 
ENDROOT
BRANCH   4   7
ATOM      7  N   UNL     1      25.416  26.178  26.171  0.00  0.00    +0.000 N 
ATOM      8  O   UNL     1      26.518  26.708  25.848  0.00  0.00    +0.000 OA
ATOM      9  O   UNL     1      24.352  26.444  25.387  0.00  0.00    +0.000 OA
ENDBRANCH   4   7
BRANCH   1  11
ATOM     10  C   UNL     1      26.340  21.588  30.624  0.00  0.00    +0.000 C 
ATOM     11  O   UNL     1      26.235  23.016  30.764  0.00  0.00    +0.000 OA
ENDBRANCH   1  11
BRANCH   6  12
ATOM     12  O   UNL     1      24.993  25.384  30.999  0.00  0.00    +0.000 OA
ATOM     13  C   UNL     1      25.683  26.529  31.558  0.00  0.00    +0.000 C 
ENDBRANCH   6  12
BRANCH   3  14
ATOM     14  C   UNL     1      25.860  23.541  25.808  0.00  0.00    +0.000 C 
BRANCH  14  15
ATOM     15  N   UNL     1      27.056  22.812  25.834  0.00  0.00    +0.000 NA
BRANCH  15  16
ATOM     16  C   UNL     1      28.363  22.857  25.415  0.00  0.00    +0.000 A 
ATOM     17  C   UNL     1      28.823  23.273  24.183  0.00  0.00    +0.000 A 
ATOM     18  C   UNL     1      30.175  23.249  23.928  0.00  0.00    +0.000 A 
ATOM     19  C   UNL     1      31.127  22.839  24.808  0.00  0.00    +0.000 A 
ATOM     20  C   UNL     1      30.649  22.420  26.050  0.00  0.00    +0.000 A 
ATOM     21  C   UNL     1      29.347  22.419  26.368  0.00  0.00    +0.000 A 
ENDBRANCH  15  16
ENDBRANCH  14  15
ENDBRANCH   3  14
TORSDOF 6
ENDMDL
MODEL 4
REMARK VINA RESULT:      -5.7      2.214      6.058
REMARK  Name = 
REMARK  6 active torsions:
REMARK  status: ('A' for Active; 'I' for Inactive)
REMARK    1  A    between atoms: O_2  and  C_3
REMARK    2  A    between atoms: C_5  and  C_6
REMARK    3  A    between atoms: C_6  and  N_7
REMARK    4  A    between atoms: N_7  and  C_8
REMARK    5  A    between atoms: C_14  and  N_15
REMARK    6  A    between atoms: C_19  and  O_20
REMARK                            x       y       z     vdW  Elec       q    Type
REMARK                         _______ _______ _______ _____ _____    ______ ____
ROOT
ATOM      1  C   UNL     1      30.455  23.086  29.181  0.00  0.00    +0.000 A 
ATOM      2  C   UNL     1      29.391  23.180  28.344  0.00  0.00    +0.000 A 
ATOM      3  C   UNL     1      28.161  22.902  28.885  0.00  0.00    +0.000 A 
ATOM      4  C   UNL     1      27.895  22.564  30.167  0.00  0.00    +0.000 A 
ATOM      5  C   UNL     1      28.995  22.458  31.035  0.00  0.00    +0.000 A 
ATOM      6  C   UNL     1      30.218  22.712  30.501  0.00  0.00    +0.000 A 
ENDROOT
BRANCH   4   7
ATOM      7  N   UNL     1      26.536  22.545  30.617  0.00  0.00    +0.000 N 
ATOM      8  O   UNL     1      25.981  23.668  30.788  0.00  0.00    +0.000 OA
ATOM      9  O   UNL     1      25.802  21.447  30.891  0.00  0.00    +0.000 OA
ENDBRANCH   4   7
BRANCH   1  11
ATOM     10  C   UNL     1      31.929  23.798  27.354  0.00  0.00    +0.000 C 
ATOM     11  O   UNL     1      31.775  23.422  28.735  0.00  0.00    +0.000 OA
ENDBRANCH   1  11
BRANCH   6  12
ATOM     12  O   UNL     1      31.406  22.562  31.251  0.00  0.00    +0.000 OA
ATOM     13  C   UNL     1      31.869  21.203  31.438  0.00  0.00    +0.000 C 
ENDBRANCH   6  12
BRANCH   3  14
ATOM     14  C   UNL     1      26.915  22.566  27.946  0.00  0.00    +0.000 C 
BRANCH  14  15
ATOM     15  N   UNL     1      27.562  22.764  26.718  0.00  0.00    +0.000 NA
BRANCH  15  16
ATOM     16  C   UNL     1      27.317  23.025  25.393  0.00  0.00    +0.000 A 
ATOM     17  C   UNL     1      28.254  23.265  24.410  0.00  0.00    +0.000 A 
ATOM     18  C   UNL     1      27.830  23.515  23.124  0.00  0.00    +0.000 A 
ATOM     19  C   UNL     1      26.532  23.550  22.725  0.00  0.00    +0.000 A 
ATOM     20  C   UNL     1      25.592  23.308  23.729  0.00  0.00    +0.000 A 
ATOM     21  C   UNL     1      25.933  23.054  25.000  0.00  0.00    +0.000 A 
ENDBRANCH  15  16
ENDBRANCH  14  15
ENDBRANCH   3  14
TORSDOF 6
ENDMDL
MODEL 5
REMARK VINA RESULT:      -5.6     26.082     27.854
REMARK  Name = 
REMARK  6 active torsions:
REMARK  status: ('A' for Active; 'I' for Inactive)
REMARK    1  A    between atoms: O_2  and  C_3
REMARK    2  A    between atoms: C_5  and  C_6
REMARK    3  A    between atoms: C_6  and  N_7
REMARK    4  A    between atoms: N_7  and  C_8
REMARK    5  A    between atoms: C_14  and  N_15
REMARK    6  A    between atoms: C_19  and  O_20
REMARK                            x       y       z     vdW  Elec       q    Type
REMARK                         _______ _______ _______ _____ _____    ______ ____
ROOT
ATOM      1  C   UNL     1      33.191  -1.627  33.990  0.00  0.00    +0.000 A 
ATOM      2  C   UNL     1      33.658  -2.650  33.232  0.00  0.00    +0.000 A 
ATOM      3  C   UNL     1      33.431  -3.917  33.709  0.00  0.00    +0.000 A 
ATOM      4  C   UNL     1      32.775  -4.253  34.843  0.00  0.00    +0.000 A 
ATOM      5  C   UNL     1      32.297  -3.195  35.635  0.00  0.00    +0.000 A 
ATOM      6  C   UNL     1      32.535  -1.938  35.178  0.00  0.00    +0.000 A 
ENDROOT
BRANCH   4   7
ATOM      7  N   UNL     1      32.421  -5.622  35.065  0.00  0.00    +0.000 N 
ATOM      8  O   UNL     1      33.041  -6.224  35.989  0.00  0.00    +0.000 OA
ATOM      9  O   UNL     1      31.506  -6.332  34.375  0.00  0.00    +0.000 OA
ENDBRANCH   4   7
BRANCH   1  11
ATOM     10  C   UNL     1      34.387   0.035  32.639  0.00  0.00    +0.000 C 
ATOM     11  O   UNL     1      33.314  -0.268  33.549  0.00  0.00    +0.000 OA
ENDBRANCH   1  11
BRANCH   6  12
ATOM     12  O   UNL     1      32.173  -0.793  35.922  0.00  0.00    +0.000 OA
ATOM     13  C   UNL     1      33.025  -0.476  37.051  0.00  0.00    +0.000 C 
ENDBRANCH   6  12
BRANCH   3  14
ATOM     14  C   UNL     1      34.271  -5.157  33.158  0.00  0.00    +0.000 C 
BRANCH  14  15
ATOM     15  N   UNL     1      33.876  -5.056  31.818  0.00  0.00    +0.000 NA
BRANCH  15  16
ATOM     16  C   UNL     1      33.979  -5.693  30.605  0.00  0.00    +0.000 A 
ATOM     17  C   UNL     1      33.411  -5.297  29.412  0.00  0.00    +0.000 A 
ATOM     18  C   UNL     1      33.615  -6.061  28.286  0.00  0.00    +0.000 A 
ATOM     19  C   UNL     1      34.346  -7.205  28.241  0.00  0.00    +0.000 A 
ATOM     20  C   UNL     1      34.914  -7.597  29.455  0.00  0.00    +0.000 A 
ATOM     21  C   UNL     1      34.761  -6.900  30.590  0.00  0.00    +0.000 A 
ENDBRANCH  15  16
ENDBRANCH  14  15
ENDBRANCH   3  14
TORSDOF 6
ENDMDL
MODEL 6
REMARK VINA RESULT:      -5.5     17.805     20.120
REMARK  Name = 
REMARK  6 active torsions:
REMARK  status: ('A' for Active; 'I' for Inactive)
REMARK    1  A    between atoms: O_2  and  C_3
REMARK    2  A    between atoms: C_5  and  C_6
REMARK    3  A    between atoms: C_6  and  N_7
REMARK    4  A    between atoms: N_7  and  C_8
REMARK    5  A    between atoms: C_14  and  N_15
REMARK    6  A    between atoms: C_19  and  O_20
REMARK                            x       y       z     vdW  Elec       q    Type
REMARK                         _______ _______ _______ _____ _____    ______ ____
ROOT
ATOM      1  C   UNL     1      17.652   8.900  39.994  0.00  0.00    +0.000 A 
ATOM      2  C   UNL     1      17.428   9.906  39.111  0.00  0.00    +0.000 A 
ATOM      3  C   UNL     1      18.510  10.334  38.385  0.00  0.00    +0.000 A 
ATOM      4  C   UNL     1      19.771   9.847  38.441  0.00  0.00    +0.000 A 
ATOM      5  C   UNL     1      20.009   8.810  39.359  0.00  0.00    +0.000 A 
ATOM      6  C   UNL     1      18.945   8.395  40.096  0.00  0.00    +0.000 A 
ENDROOT
BRANCH   4   7
ATOM      7  N   UNL     1      20.719  10.245  37.444  0.00  0.00    +0.000 N 
ATOM      8  O   UNL     1      20.655   9.647  36.332  0.00  0.00    +0.000 OA
ATOM      9  O   UNL     1      21.680  11.179  37.587  0.00  0.00    +0.000 OA
ENDBRANCH   4   7
BRANCH   1  11
ATOM     10  C   UNL     1      15.505   9.213  41.137  0.00  0.00    +0.000 C 
ATOM     11  O   UNL     1      16.576   8.333  40.752  0.00  0.00    +0.000 OA
ENDBRANCH   1  11
BRANCH   6  12
ATOM     12  O   UNL     1      19.074   7.415  41.106  0.00  0.00    +0.000 OA
ATOM     13  C   UNL     1      19.270   6.055  40.647  0.00  0.00    +0.000 C 
ENDBRANCH   6  12
BRANCH   3  14
ATOM     14  C   UNL     1      18.489  11.749  37.647  0.00  0.00    +0.000 C 
BRANCH  14  15
ATOM     15  N   UNL     1      17.339  11.528  36.877  0.00  0.00    +0.000 NA
BRANCH  15  16
ATOM     16  C   UNL     1      16.927  11.267  35.593  0.00  0.00    +0.000 A 
ATOM     17  C   UNL     1      17.545  10.440  34.678  0.00  0.00    +0.000 A 
ATOM     18  C   UNL     1      16.995  10.295  33.425  0.00  0.00    +0.000 A 
ATOM     19  C   UNL     1      15.863  10.912  32.995  0.00  0.00    +0.000 A 
ATOM     20  C   UNL     1      15.247  11.747  33.929  0.00  0.00    +0.000 A 
ATOM     21  C   UNL     1      15.726  11.933  35.167  0.00  0.00    +0.000 A 
ENDBRANCH  15  16
ENDBRANCH  14  15
ENDBRANCH   3  14
TORSDOF 6
ENDMDL
MODEL 7
REMARK VINA RESULT:      -5.5      4.095      6.178
REMARK  Name = 
REMARK  6 active torsions:
REMARK  status: ('A' for Active; 'I' for Inactive)
REMARK    1  A    between atoms: O_2  and  C_3
REMARK    2  A    between atoms: C_5  and  C_6
REMARK    3  A    between atoms: C_6  and  N_7
REMARK    4  A    between atoms: N_7  and  C_8
REMARK    5  A    between atoms: C_14  and  N_15
REMARK    6  A    between atoms: C_19  and  O_20
REMARK                            x       y       z     vdW  Elec       q    Type
REMARK                         _______ _______ _______ _____ _____    ______ ____
ROOT
ATOM      1  C   UNL     1      24.735  25.708  28.145  0.00  0.00    +0.000 A 
ATOM      2  C   UNL     1      25.338  24.664  27.523  0.00  0.00    +0.000 A 
ATOM      3  C   UNL     1      26.033  23.794  28.323  0.00  0.00    +0.000 A 
ATOM      4  C   UNL     1      26.163  23.854  29.669  0.00  0.00    +0.000 A 
ATOM      5  C   UNL     1      25.547  24.938  30.316  0.00  0.00    +0.000 A 
ATOM      6  C   UNL     1      24.874  25.816  29.526  0.00  0.00    +0.000 A 
ENDROOT
BRANCH   4   7
ATOM      7  N   UNL     1      26.718  22.735  30.368  0.00  0.00    +0.000 N 
ATOM      8  O   UNL     1      25.902  21.850  30.756  0.00  0.00    +0.000 OA
ATOM      9  O   UNL     1      28.019  22.546  30.666  0.00  0.00    +0.000 OA
ENDBRANCH   4   7
BRANCH   1  11
ATOM     10  C   UNL     1      22.606  26.208  27.034  0.00  0.00    +0.000 C 
ATOM     11  O   UNL     1      23.927  26.637  27.410  0.00  0.00    +0.000 OA
ENDBRANCH   1  11
BRANCH   6  12
ATOM     12  O   UNL     1      24.279  26.986  30.049  0.00  0.00    +0.000 OA
ATOM     13  C   UNL     1      23.061  26.792  30.808  0.00  0.00    +0.000 C 
ENDBRANCH   6  12
BRANCH   3  14
ATOM     14  C   UNL     1      27.112  22.797  27.700  0.00  0.00    +0.000 C 
BRANCH  14  15
ATOM     15  N   UNL     1      26.825  23.049  26.351  0.00  0.00    +0.000 NA
BRANCH  15  16
ATOM     16  C   UNL     1      27.424  23.192  25.124  0.00  0.00    +0.000 A 
ATOM     17  C   UNL     1      28.761  23.022  24.830  0.00  0.00    +0.000 A 
ATOM     18  C   UNL     1      29.194  23.210  23.537  0.00  0.00    +0.000 A 
ATOM     19  C   UNL     1      28.398  23.559  22.492  0.00  0.00    +0.000 A 
ATOM     20  C   UNL     1      27.047  23.728  22.801  0.00  0.00    +0.000 A 
ATOM     21  C   UNL     1      26.556  23.559  24.037  0.00  0.00    +0.000 A 
ENDBRANCH  15  16
ENDBRANCH  14  15
ENDBRANCH   3  14
TORSDOF 6
ENDMDL
MODEL 8
REMARK VINA RESULT:      -5.4      4.299      5.593
REMARK  Name = 
REMARK  6 active torsions:
REMARK  status: ('A' for Active; 'I' for Inactive)
REMARK    1  A    between atoms: O_2  and  C_3
REMARK    2  A    between atoms: C_5  and  C_6
REMARK    3  A    between atoms: C_6  and  N_7
REMARK    4  A    between atoms: N_7  and  C_8
REMARK    5  A    between atoms: C_14  and  N_15
REMARK    6  A    between atoms: C_19  and  O_20
REMARK                            x       y       z     vdW  Elec       q    Type
REMARK                         _______ _______ _______ _____ _____    ______ ____
ROOT
ATOM      1  C   UNL     1      29.444  23.965  22.809  0.00  0.00    +0.000 A 
ATOM      2  C   UNL     1      30.501  24.325  23.579  0.00  0.00    +0.000 A 
ATOM      3  C   UNL     1      30.429  23.993  24.909  0.00  0.00    +0.000 A 
ATOM      4  C   UNL     1      29.427  23.329  25.528  0.00  0.00    +0.000 A 
ATOM      5  C   UNL     1      28.327  22.961  24.735  0.00  0.00    +0.000 A 
ATOM      6  C   UNL     1      28.382  23.304  23.421  0.00  0.00    +0.000 A 
ENDROOT
BRANCH   4   7
ATOM      7  N   UNL     1      29.623  22.856  26.865  0.00  0.00    +0.000 N 
ATOM      8  O   UNL     1      28.938  23.416  27.769  0.00  0.00    +0.000 OA
ATOM      9  O   UNL     1      30.478  21.888  27.252  0.00  0.00    +0.000 OA
ENDBRANCH   4   7
BRANCH   1  11
ATOM     10  C   UNL     1      29.256  25.559  20.954  0.00  0.00    +0.000 C 
ATOM     11  O   UNL     1      29.448  24.202  21.395  0.00  0.00    +0.000 OA
ENDBRANCH   1  11
BRANCH   6  12
ATOM     12  O   UNL     1      27.306  23.060  22.539  0.00  0.00    +0.000 OA
ATOM     13  C   UNL     1      25.985  23.350  23.058  0.00  0.00    +0.000 C 
ENDBRANCH   6  12
BRANCH   3  14
ATOM     14  C   UNL     1      31.373  24.709  25.979  0.00  0.00    +0.000 C 
BRANCH  14  15
ATOM     15  N   UNL     1      32.590  24.468  25.329  0.00  0.00    +0.000 NA
BRANCH  15  16
ATOM     16  C   UNL     1      33.803  25.048  25.047  0.00  0.00    +0.000 A 
ATOM     17  C   UNL     1      34.185  26.343  25.328  0.00  0.00    +0.000 A 
ATOM     18  C   UNL     1      35.446  26.764  24.970  0.00  0.00    +0.000 A 
ATOM     19  C   UNL     1      36.376  25.994  24.345  0.00  0.00    +0.000 A 
ATOM     20  C   UNL     1      35.977  24.686  24.065  0.00  0.00    +0.000 A 
ATOM     21  C   UNL     1      34.766  24.209  24.387  0.00  0.00    +0.000 A 
ENDBRANCH  15  16
ENDBRANCH  14  15
ENDBRANCH   3  14
TORSDOF 6
ENDMDL
MODEL 9
REMARK VINA RESULT:      -5.4      3.062      4.059
REMARK  Name = 
REMARK  6 active torsions:
REMARK  status: ('A' for Active; 'I' for Inactive)
REMARK    1  A    between atoms: O_2  and  C_3
REMARK    2  A    between atoms: C_5  and  C_6
REMARK    3  A    between atoms: C_6  and  N_7
REMARK    4  A    between atoms: N_7  and  C_8
REMARK    5  A    between atoms: C_14  and  N_15
REMARK    6  A    between atoms: C_19  and  O_20
REMARK                            x       y       z     vdW  Elec       q    Type
REMARK                         _______ _______ _______ _____ _____    ______ ____
ROOT
ATOM      1  C   UNL     1      25.588  24.237  26.185  0.00  0.00    +0.000 A 
ATOM      2  C   UNL     1      26.562  23.358  26.533  0.00  0.00    +0.000 A 
ATOM      3  C   UNL     1      26.870  23.284  27.868  0.00  0.00    +0.000 A 
ATOM      4  C   UNL     1      26.292  23.979  28.875  0.00  0.00    +0.000 A 
ATOM      5  C   UNL     1      25.288  24.895  28.518  0.00  0.00    +0.000 A 
ATOM      6  C   UNL     1      24.993  24.988  27.195  0.00  0.00    +0.000 A 
ENDROOT
BRANCH   4   7
ATOM      7  N   UNL     1      26.566  23.605  30.229  0.00  0.00    +0.000 N 
ATOM      8  O   UNL     1      25.924  22.614  30.684  0.00  0.00    +0.000 OA
ATOM      9  O   UNL     1      27.427  24.217  31.067  0.00  0.00    +0.000 OA
ENDBRANCH   4   7
BRANCH   1  11
ATOM     10  C   UNL     1      25.973  23.748  23.812  0.00  0.00    +0.000 C 
ATOM     11  O   UNL     1      25.143  24.342  24.826  0.00  0.00    +0.000 OA
ENDBRANCH   1  11
BRANCH   6  12
ATOM     12  O   UNL     1      24.059  25.927  26.702  0.00  0.00    +0.000 OA
ATOM     13  C   UNL     1      23.000  26.305  27.616  0.00  0.00    +0.000 C 
ENDBRANCH   6  12
BRANCH   3  14
ATOM     14  C   UNL     1      28.243  22.632  28.353  0.00  0.00    +0.000 C 
BRANCH  14  15
ATOM     15  N   UNL     1      29.101  23.465  27.623  0.00  0.00    +0.000 NA
BRANCH  15  16
ATOM     16  C   UNL     1      30.026  23.448  26.609  0.00  0.00    +0.000 A 
ATOM     17  C   UNL     1      30.104  22.538  25.576  0.00  0.00    +0.000 A 
ATOM     18  C   UNL     1      31.105  22.668  24.640  0.00  0.00    +0.000 A 
ATOM     19  C   UNL     1      32.054  23.641  24.644  0.00  0.00    +0.000 A 
ATOM     20  C   UNL     1      31.966  24.555  25.695  0.00  0.00    +0.000 A 
ATOM     21  C   UNL     1      31.016  24.492  26.639  0.00  0.00    +0.000 A 
ENDBRANCH  15  16
ENDBRANCH  14  15
ENDBRANCH   3  14
TORSDOF 6
ENDMDL
MODEL 10
REMARK VINA RESULT:      -5.4     19.755     21.597
REMARK  Name = 
REMARK  6 active torsions:
REMARK  status: ('A' for Active; 'I' for Inactive)
REMARK    1  A    between atoms: O_2  and  C_3
REMARK    2  A    between atoms: C_5  and  C_6
REMARK    3  A    between atoms: C_6  and  N_7
REMARK    4  A    between atoms: N_7  and  C_8
REMARK    5  A    between atoms: C_14  and  N_15
REMARK    6  A    between atoms: C_19  and  O_20
REMARK                            x       y       z     vdW  Elec       q    Type
REMARK                         _______ _______ _______ _____ _____    ______ ____
ROOT
ATOM      1  C   UNL     1      28.613   6.428  14.713  0.00  0.00    +0.000 A 
ATOM      2  C   UNL     1      27.434   6.879  15.211  0.00  0.00    +0.000 A 
ATOM      3  C   UNL     1      27.272   6.793  16.570  0.00  0.00    +0.000 A 
ATOM      4  C   UNL     1      28.170   6.326  17.468  0.00  0.00    +0.000 A 
ATOM      5  C   UNL     1      29.390   5.852  16.955  0.00  0.00    +0.000 A 
ATOM      6  C   UNL     1      29.548   5.915  15.607  0.00  0.00    +0.000 A 
ENDROOT
BRANCH   4   7
ATOM      7  N   UNL     1      27.933   6.531  18.865  0.00  0.00    +0.000 N 
ATOM      8  O   UNL     1      28.101   7.707  19.300  0.00  0.00    +0.000 OA
ATOM      9  O   UNL     1      27.568   5.590  19.758  0.00  0.00    +0.000 OA
ENDBRANCH   4   7
BRANCH   1  11
ATOM     10  C   UNL     1      29.381   7.810  12.837  0.00  0.00    +0.000 C 
ATOM     11  O   UNL     1      28.911   6.536  13.315  0.00  0.00    +0.000 OA
ENDBRANCH   1  11
BRANCH   6  12
ATOM     12  O   UNL     1      30.697   5.399  14.966  0.00  0.00    +0.000 OA
ATOM     13  C   UNL     1      31.968   5.746  15.567  0.00  0.00    +0.000 C 
ENDBRANCH   6  12
BRANCH   3  14
ATOM     14  C   UNL     1      25.820   6.882  17.225  0.00  0.00    +0.000 C 
BRANCH  14  15
ATOM     15  N   UNL     1      25.359   5.627  16.805  0.00  0.00    +0.000 NA
BRANCH  15  16
ATOM     16  C   UNL     1      25.013   4.385  17.277  0.00  0.00    +0.000 A 
ATOM     17  C   UNL     1      23.916   4.071  18.051  0.00  0.00    +0.000 A 
ATOM     18  C   UNL     1      23.721   2.766  18.442  0.00  0.00    +0.000 A 
ATOM     19  C   UNL     1      24.539   1.727  18.126  0.00  0.00    +0.000 A 
ATOM     20  C   UNL     1      25.647   2.058  17.343  0.00  0.00    +0.000 A 
ATOM     21  C   UNL     1      25.897   3.306  16.924  0.00  0.00    +0.000 A 
ENDBRANCH  15  16
ENDBRANCH  14  15
ENDBRANCH   3  14
TORSDOF 6
ENDMDL
