REMARK  Name = 
REMARK  8 active torsions:
REMARK  status: ('A' for Active; 'I' for Inactive)
REMARK    1  A    between atoms: C_2  and  N_3
REMARK    2  A    between atoms: C_4  and  S_5
REMARK    3  A    between atoms: S_5  and  C_6
REMARK    4  A    between atoms: C_6  and  C_7
REMARK    5  A    between atoms: C_7  and  C_9
REMARK    6  A    between atoms: C_9  and  N_10
REMARK    7  A    between atoms: C_25  and  C_26
REMARK    8  A    between atoms: C_29  and  O_30
REMARK                            x       y       z     vdW  Elec       q    Type
REMARK                         _______ _______ _______ _____ _____    ______ ____
ROOT
ATOM      1  C   UNL     1      -1.498  -0.103   1.101  0.00  0.00    +0.000 C 
ENDROOT
BRANCH   1   2
ATOM      2  C   UNL     1      -1.339   1.432   0.561  0.00  0.00    +0.000 C 
ATOM      3  O   UNL     1      -2.470   1.930   1.464  0.00  0.00    +0.000 OA
BRANCH   2   4
ATOM      4  C   UNL     1      -2.300   1.210  -0.735  0.00  0.00    +0.000 C 
BRANCH   4   5
ATOM      5  N   UNL     1      -3.596   0.849  -0.368  0.00  0.00    +0.000 N 
ATOM      6  C   UNL     1      -4.599   1.713  -0.102  0.00  0.00    +0.000 A 
ATOM      7  C   UNL     1      -4.623   3.079  -0.106  0.00  0.00    +0.000 A 
ATOM      8  C   UNL     1      -5.772   3.752   0.201  0.00  0.00    +0.000 A 
ATOM      9  C   UNL     1      -6.904   3.043   0.514  0.00  0.00    +0.000 A 
ATOM     10  C   UNL     1      -6.877   1.682   0.517  0.00  0.00    +0.000 A 
ATOM     11  C   UNL     1      -5.726   0.993   0.209  0.00  0.00    +0.000 A 
ATOM     12  C   UNL     1      -5.420  -0.332   0.136  0.00  0.00    +0.000 A 
ATOM     13  C   UNL     1      -6.159  -1.468   0.342  0.00  0.00    +0.000 A 
ATOM     14  C   UNL     1      -5.565  -2.698   0.186  0.00  0.00    +0.000 A 
ATOM     15  C   UNL     1      -4.232  -2.811  -0.175  0.00  0.00    +0.000 A 
ATOM     16  C   UNL     1      -3.536  -1.662  -0.370  0.00  0.00    +0.000 A 
ATOM     17  C   UNL     1      -4.075  -0.394  -0.229  0.00  0.00    +0.000 A 
ENDBRANCH   4   5
ENDBRANCH   2   4
ENDBRANCH   1   2
BRANCH   1  18
ATOM     18  S   UNL     1      -0.208  -1.042   0.205  0.00  0.00    +0.000 S 
BRANCH  18  20
ATOM     19  N   UNL     1       2.533  -0.891   0.338  0.00  0.00    +0.000 N 
ATOM     20  C   UNL     1       1.361  -0.426   0.784  0.00  0.00    +0.000 A 
ATOM     21  N   UNL     1       1.671   0.519   1.682  0.00  0.00    +0.000 NA
ATOM     22  N   UNL     1       2.986   0.648   1.800  0.00  0.00    +0.000 NA
ATOM     23  C   UNL     1       3.533  -0.233   0.960  0.00  0.00    +0.000 A 
BRANCH  23  24
ATOM     24  C   UNL     1       4.971  -0.406   0.790  0.00  0.00    +0.000 A 
ATOM     25  C   UNL     1       5.396  -1.354  -0.117  0.00  0.00    +0.000 A 
ATOM     26  C   UNL     1       6.739  -1.562  -0.319  0.00  0.00    +0.000 A 
ATOM     27  C   UNL     1       7.704  -0.832   0.375  0.00  0.00    +0.000 A 
ATOM     28  C   UNL     1       7.267   0.094   1.260  0.00  0.00    +0.000 A 
ATOM     29  C   UNL     1       5.909   0.307   1.468  0.00  0.00    +0.000 A 
BRANCH  27  30
ATOM     30  O   UNL     1       8.984  -1.159   0.059  0.00  0.00    +0.000 OA
ATOM     31  C   UNL     1      10.179  -0.688   0.506  0.00  0.00    +0.000 C 
ENDBRANCH  27  30
ENDBRANCH  23  24
BRANCH  19  33
ATOM     32  C   UNL     1       2.872  -1.264  -2.011  0.00  0.00    +0.000 C 
ATOM     33  C   UNL     1       2.792  -1.925  -0.648  0.00  0.00    +0.000 C 
ENDBRANCH  19  33
ENDBRANCH  18  20
ENDBRANCH   1  18
TORSDOF 8
