REMARK  Name = 
REMARK  8 active torsions:
REMARK  status: ('A' for Active; 'I' for Inactive)
REMARK    1  A    between atoms: C_2  and  O_4
REMARK    2  A    between atoms: O_4  and  C_5
REMARK    3  A    between atoms: C_8  and  N_9
REMARK    4  A    between atoms: C_10  and  C_12
REMARK    5  A    between atoms: C_12  and  O_13
REMARK    6  A    between atoms: O_13  and  C_14
REMARK    7  A    between atoms: C_17  and  C_18
REMARK    8  A    between atoms: C_18  and  C_21
REMARK                            x       y       z     vdW  Elec       q    Type
REMARK                         _______ _______ _______ _____ _____    ______ ____
ROOT
ATOM      1  O   UNL     1      -0.563   2.340  -2.900  0.00  0.00    +0.000 OA
ENDROOT
BRANCH   1   2
ATOM      2  C   UNL     1      -1.509   1.485  -2.377  0.00  0.00    +0.000 A 
ATOM      3  C   UNL     1      -1.192   0.186  -2.110  0.00  0.00    +0.000 A 
ATOM      4  C   UNL     1      -2.093  -0.692  -1.592  0.00  0.00    +0.000 A 
ATOM      5  C   UNL     1      -3.371  -0.284  -1.318  0.00  0.00    +0.000 A 
ATOM      6  C   UNL     1      -3.712   1.027  -1.582  0.00  0.00    +0.000 A 
ATOM      7  C   UNL     1      -2.804   1.915  -2.105  0.00  0.00    +0.000 A 
BRANCH   5   8
ATOM      8  C   UNL     1      -4.389  -1.231  -0.725  0.00  0.00    +0.000 C 
ATOM      9  C   UNL     1      -5.708  -0.937  -1.363  0.00  0.00    +0.000 C 
ATOM     10  C   UNL     1      -3.998  -2.652  -1.007  0.00  0.00    +0.000 C 
BRANCH   8  11
ATOM     11  C   UNL     1      -4.411  -0.932   0.731  0.00  0.00    +0.000 A 
ATOM     12  C   UNL     1      -4.103  -1.844   1.707  0.00  0.00    +0.000 A 
ATOM     13  C   UNL     1      -4.152  -1.446   3.033  0.00  0.00    +0.000 A 
ATOM     14  C   UNL     1      -4.498  -0.176   3.390  0.00  0.00    +0.000 A 
ATOM     15  C   UNL     1      -4.812   0.762   2.425  0.00  0.00    +0.000 A 
ATOM     16  C   UNL     1      -4.759   0.350   1.108  0.00  0.00    +0.000 A 
ENDBRANCH   8  11
ENDBRANCH   5   8
ENDBRANCH   1   2
BRANCH   1  17
ATOM     17  C   UNL     1       0.725   1.930  -3.173  0.00  0.00    +0.000 C 
BRANCH  17  19
ATOM     18  N   UNL     1       2.818   0.937  -2.122  0.00  0.00    +0.000 NA
ATOM     19  C   UNL     1       1.487   1.413  -2.012  0.00  0.00    +0.000 C 
ATOM     20  O   UNL     1       0.936   1.397  -0.889  0.00  0.00    +0.000 OA
BRANCH  18  24
ATOM     21  C   UNL     1       5.261  -0.588   0.949  0.00  0.00    +0.000 A 
ATOM     22  C   UNL     1       5.690  -0.489  -0.355  0.00  0.00    +0.000 A 
ATOM     23  C   UNL     1       4.875   0.013  -1.349  0.00  0.00    +0.000 A 
ATOM     24  C   UNL     1       3.583   0.439  -1.057  0.00  0.00    +0.000 A 
ATOM     25  C   UNL     1       3.189   0.326   0.252  0.00  0.00    +0.000 A 
ATOM     26  C   UNL     1       3.984  -0.172   1.259  0.00  0.00    +0.000 A 
BRANCH  21  27
ATOM     27  O   UNL     1       6.084  -1.097   1.958  0.00  0.00    +0.000 OA
BRANCH  27  29
ATOM     28  C   UNL     1       6.683  -1.764   4.182  0.00  0.00    +0.000 C 
ATOM     29  C   UNL     1       5.603  -1.180   3.283  0.00  0.00    +0.000 C 
ATOM     30  C   UNL     1       5.157   0.187   3.758  0.00  0.00    +0.000 C 
ENDBRANCH  27  29
ENDBRANCH  21  27
ENDBRANCH  18  24
ENDBRANCH  17  19
ENDBRANCH   1  17
TORSDOF 8
