REMARK  Name = 
REMARK  6 active torsions:
REMARK  status: ('A' for Active; 'I' for Inactive)
REMARK    1  A    between atoms: C_2  and  C_3
REMARK    2  A    between atoms: C_8  and  O_9
REMARK    3  A    between atoms: O_9  and  C_10
REMARK    4  A    between atoms: C_10  and  C_11
REMARK    5  A    between atoms: C_11  and  C_13
REMARK    6  A    between atoms: C_13  and  N_14
REMARK                            x       y       z     vdW  Elec       q    Type
REMARK                         _______ _______ _______ _____ _____    ______ ____
ROOT
ATOM      1  C   UNL     1       0.107  -0.351   1.266  0.00  0.00    +0.000 C 
ENDROOT
BRANCH   1   2
ATOM      2  C   UNL     1      -0.051   1.160   1.836  0.00  0.00    +0.000 C 
ATOM      3  O   UNL     1      -0.590   1.756   0.559  0.00  0.00    +0.000 OA
BRANCH   2   4
ATOM      4  C   UNL     1      -1.516   0.873   2.545  0.00  0.00    +0.000 C 
BRANCH   4   5
ATOM      5  N   UNL     1      -2.446   0.471   1.547  0.00  0.00    +0.000 N 
ATOM      6  C   UNL     1      -2.677  -0.806   1.199  0.00  0.00    +0.000 A 
ATOM      7  C   UNL     1      -2.163  -2.031   1.642  0.00  0.00    +0.000 A 
ATOM      8  C   UNL     1      -2.577  -3.221   1.115  0.00  0.00    +0.000 A 
ATOM      9  C   UNL     1      -3.527  -3.229   0.118  0.00  0.00    +0.000 A 
ATOM     10  C   UNL     1      -4.045  -2.030  -0.330  0.00  0.00    +0.000 A 
ATOM     11  C   UNL     1      -3.627  -0.827   0.202  0.00  0.00    +0.000 A 
ATOM     12  C   UNL     1      -3.945   0.495  -0.022  0.00  0.00    +0.000 A 
ATOM     13  C   UNL     1      -4.827   1.099  -0.897  0.00  0.00    +0.000 A 
ATOM     14  C   UNL     1      -4.961   2.472  -0.925  0.00  0.00    +0.000 A 
ATOM     15  C   UNL     1      -4.213   3.259  -0.075  0.00  0.00    +0.000 A 
ATOM     16  C   UNL     1      -3.324   2.695   0.811  0.00  0.00    +0.000 A 
ATOM     17  C   UNL     1      -3.215   1.304   0.810  0.00  0.00    +0.000 A 
ENDBRANCH   4   5
ENDBRANCH   2   4
ENDBRANCH   1   2
BRANCH   1  18
ATOM     18  O   UNL     1       0.977  -0.450   0.262  0.00  0.00    +0.000 OA
BRANCH  18  24
ATOM     19  C   UNL     1       2.315  -0.427  -1.649  0.00  0.00    +0.000 A 
ATOM     20  C   UNL     1       2.516   0.010  -2.932  0.00  0.00    +0.000 A 
ATOM     21  C   UNL     1       1.652   0.835  -3.620  0.00  0.00    +0.000 A 
ATOM     22  C   UNL     1       0.510   1.243  -2.963  0.00  0.00    +0.000 A 
ATOM     23  C   UNL     1       0.272   0.837  -1.699  0.00  0.00    +0.000 A 
ATOM     24  C   UNL     1       1.139   0.001  -0.991  0.00  0.00    +0.000 A 
BRANCH  19  26
ATOM     25  O   UNL     1       3.058  -2.523  -1.029  0.00  0.00    +0.000 OA
ATOM     26  C   UNL     1       3.225  -1.291  -0.935  0.00  0.00    +0.000 C 
ATOM     27  N   UNL     1       4.254  -0.738  -0.167  0.00  0.00    +0.000 N 
ATOM     28  C   UNL     1       4.375   0.680  -0.112  0.00  0.00    +0.000 C 
ATOM     29  C   UNL     1       5.432   1.223   0.764  0.00  0.00    +0.000 C 
ATOM     30  C   UNL     1       6.261   0.222   1.484  0.00  0.00    +0.000 C 
ATOM     31  C   UNL     1       6.497  -1.030   0.667  0.00  0.00    +0.000 C 
ATOM     32  C   UNL     1       5.117  -1.680   0.514  0.00  0.00    +0.000 C 
ENDBRANCH  19  26
ENDBRANCH  18  24
ENDBRANCH   1  18
TORSDOF 6
