REMARK  Name = 
REMARK  7 active torsions:
REMARK  status: ('A' for Active; 'I' for Inactive)
REMARK    1  A    between atoms: C_7  and  N_8
REMARK    2  A    between atoms: C_9  and  C_11
REMARK    3  A    between atoms: C_11  and  C_12
REMARK    4  A    between atoms: C_11  and  C_19
REMARK    5  A    between atoms: C_12  and  C_13
REMARK    6  A    between atoms: C_19  and  C_20
REMARK    7  A    between atoms: C_26  and  C_27
REMARK                            x       y       z     vdW  Elec       q    Type
REMARK                         _______ _______ _______ _____ _____    ______ ____
ROOT
ATOM      1  N   UNL     1      -0.398   0.009   0.377  0.00  0.00    +0.000 NA
ATOM      2  C   UNL     1      -1.141  -1.143   0.745  0.00  0.00    +0.000 C 
ATOM      3  O   UNL     1      -0.577  -2.261   0.654  0.00  0.00    +0.000 OA
ENDROOT
BRANCH   1  10
ATOM      4  C   UNL     1       6.698   1.067  -1.267  0.00  0.00    +0.000 C 
ATOM      5  C   UNL     1       5.452   0.763  -0.206  0.00  0.00    +0.000 C 
ATOM      6  C   UNL     1       5.626  -0.854  -0.351  0.00  0.00    +0.000 C 
ATOM      7  C   UNL     1       4.667  -1.451  -1.251  0.00  0.00    +0.000 C 
ATOM      8  C   UNL     1       3.292  -1.042  -0.810  0.00  0.00    +0.000 A 
ATOM      9  S   UNL     1       1.816  -1.651  -0.238  0.00  0.00    +0.000 S 
ATOM     10  C   UNL     1       0.960  -0.177  -0.079  0.00  0.00    +0.000 A 
ATOM     11  C   UNL     1       1.872   0.765  -0.486  0.00  0.00    +0.000 A 
ATOM     12  C   UNL     1       3.089   0.295  -0.866  0.00  0.00    +0.000 A 
ATOM     13  C   UNL     1       4.314   1.020  -1.361  0.00  0.00    +0.000 C 
BRANCH  11  14
ATOM     14  C   UNL     1       1.466   2.186  -0.479  0.00  0.00    +0.000 C 
ATOM     15  N   UNL     1       1.168   3.306  -0.481  0.00  0.00    +0.000 NA
ENDBRANCH  11  14
ENDBRANCH   1  10
BRANCH   2  16
ATOM     16  C   UNL     1      -2.528  -1.064   1.221  0.00  0.00    +0.000 C 
BRANCH  16  17
ATOM     17  C   UNL     1      -3.370  -0.443   0.151  0.00  0.00    +0.000 C 
BRANCH  17  18
ATOM     18  C   UNL     1      -3.288  -1.288  -1.052  0.00  0.00    +0.000 A 
ATOM     19  C   UNL     1      -4.199  -2.301  -1.215  0.00  0.00    +0.000 A 
ATOM     20  C   UNL     1      -4.118  -3.086  -2.338  0.00  0.00    +0.000 A 
ATOM     21  C   UNL     1      -3.132  -2.835  -3.260  0.00  0.00    +0.000 A 
ATOM     22  C   UNL     1      -2.218  -1.816  -3.092  0.00  0.00    +0.000 A 
ATOM     23  C   UNL     1      -2.292  -1.022  -1.967  0.00  0.00    +0.000 A 
ENDBRANCH  17  18
ENDBRANCH  16  17
BRANCH  16  24
ATOM     24  C   UNL     1      -2.696  -0.442   2.560  0.00  0.00    +0.000 C 
BRANCH  24  25
ATOM     25  C   UNL     1      -2.185   0.939   2.542  0.00  0.00    +0.000 A 
ATOM     26  C   UNL     1      -0.872   1.254   2.845  0.00  0.00    +0.000 A 
ATOM     27  C   UNL     1      -0.433   2.544   2.819  0.00  0.00    +0.000 A 
ATOM     28  C   UNL     1      -1.284   3.552   2.493  0.00  0.00    +0.000 A 
ATOM     29  C   UNL     1      -2.607   3.233   2.188  0.00  0.00    +0.000 A 
ATOM     30  C   UNL     1      -3.081   1.944   2.205  0.00  0.00    +0.000 A 
ENDBRANCH  24  25
ENDBRANCH  16  24
ENDBRANCH   2  16
TORSDOF 7
