REMARK  Name = 
REMARK  6 active torsions:
REMARK  status: ('A' for Active; 'I' for Inactive)
REMARK    1  A    between atoms: C_13  and  N_14
REMARK    2  A    between atoms: N_14  and  C_15
REMARK    3  A    between atoms: C_15  and  C_16
REMARK    4  A    between atoms: C_16  and  C_17
REMARK    5  A    between atoms: C_24  and  N_25
REMARK    6  A    between atoms: N_25  and  C_26
REMARK                            x       y       z     vdW  Elec       q    Type
REMARK                         _______ _______ _______ _____ _____    ______ ____
ROOT
ATOM      1  O   UNL     1      -3.773  -0.701   1.046  0.00  0.00    +0.000 OA
ATOM      2  C   UNL     1      -2.808  -1.425   0.759  0.00  0.00    +0.000 C 
ATOM      3  C   UNL     1      -2.846  -2.905   0.809  0.00  0.00    +0.000 A 
ATOM      4  C   UNL     1      -4.004  -3.546   1.192  0.00  0.00    +0.000 A 
ATOM      5  C   UNL     1      -4.111  -4.919   1.261  0.00  0.00    +0.000 A 
ATOM      6  C   UNL     1      -3.011  -5.694   0.933  0.00  0.00    +0.000 A 
ATOM      7  C   UNL     1      -1.822  -5.063   0.541  0.00  0.00    +0.000 A 
ATOM      8  C   UNL     1      -1.762  -3.693   0.487  0.00  0.00    +0.000 A 
ATOM      9  C   UNL     1      -0.522  -3.008   0.077  0.00  0.00    +0.000 A 
ATOM     10  O   UNL     1       0.674  -3.393  -0.291  0.00  0.00    +0.000 OA
ATOM     11  N   UNL     1       1.438  -2.340  -0.560  0.00  0.00    +0.000 NA
ATOM     12  C   UNL     1       0.739  -1.208  -0.368  0.00  0.00    +0.000 A 
ATOM     13  C   UNL     1       0.915   0.157  -0.458  0.00  0.00    +0.000 A 
ATOM     14  C   UNL     1      -0.149   1.022  -0.144  0.00  0.00    +0.000 A 
ATOM     15  C   UNL     1      -1.385   0.566   0.258  0.00  0.00    +0.000 A 
ATOM     16  C   UNL     1      -1.551  -0.811   0.346  0.00  0.00    +0.000 A 
ATOM     17  C   UNL     1      -0.504  -1.642   0.036  0.00  0.00    +0.000 A 
ENDROOT
BRANCH  13  18
ATOM     18  N   UNL     1       2.173   0.625  -0.868  0.00  0.00    +0.000 NA
BRANCH  18  19
ATOM     19  C   UNL     1       2.386   2.057  -0.973  0.00  0.00    +0.000 C 
BRANCH  19  20
ATOM     20  C   UNL     1       3.810   2.282  -1.429  0.00  0.00    +0.000 C 
BRANCH  20  21
ATOM     21  C   UNL     1       4.710   1.668  -0.391  0.00  0.00    +0.000 C 
ATOM     22  C   UNL     1       5.572   2.447   0.235  0.00  0.00    +0.000 C 
ATOM     23  C   UNL     1       6.467   1.817   1.272  0.00  0.00    +0.000 C 
ATOM     24  C   UNL     1       5.587   0.867   2.059  0.00  0.00    +0.000 C 
ATOM     25  C   UNL     1       5.000  -0.217   1.214  0.00  0.00    +0.000 C 
ATOM     26  C   UNL     1       4.562   0.222  -0.143  0.00  0.00    +0.000 C 
ENDBRANCH  20  21
ENDBRANCH  19  20
ENDBRANCH  18  19
ENDBRANCH  13  18
BRANCH  15  27
ATOM     27  N   UNL     1      -2.447   1.444   0.571  0.00  0.00    +0.000 NA
BRANCH  27  28
ATOM     28  C   UNL     1      -2.355   2.848   0.506  0.00  0.00    +0.000 A 
ATOM     29  C   UNL     1      -3.398   3.692   0.815  0.00  0.00    +0.000 A 
ATOM     30  C   UNL     1      -3.308   5.065   0.751  0.00  0.00    +0.000 A 
ATOM     31  C   UNL     1      -2.086   5.595   0.351  0.00  0.00    +0.000 A 
ATOM     32  C   UNL     1      -1.027   4.776   0.037  0.00  0.00    +0.000 A 
ATOM     33  C   UNL     1      -1.162   3.414   0.115  0.00  0.00    +0.000 A 
ENDBRANCH  27  28
ENDBRANCH  15  27
TORSDOF 6
