REMARK  Name = 
REMARK  8 active torsions:
REMARK  status: ('A' for Active; 'I' for Inactive)
REMARK    1  A    between atoms: C_2  and  O_3
REMARK    2  A    between atoms: O_3  and  C_4
REMARK    3  A    between atoms: C_7  and  N_8
REMARK    4  A    between atoms: C_12  and  C_13
REMARK    5  A    between atoms: C_13  and  C_15
REMARK    6  A    between atoms: C_15  and  O_16
REMARK    7  A    between atoms: O_16  and  C_17
REMARK    8  A    between atoms: C_17  and  C_19
REMARK                            x       y       z     vdW  Elec       q    Type
REMARK                         _______ _______ _______ _____ _____    ______ ____
ROOT
ATOM      1  N   UNL     1       2.357   1.172   2.068  0.00  0.00    +0.000 N 
ATOM      2  C   UNL     1       2.669   2.300   1.410  0.00  0.00    +0.000 A 
ATOM      3  C   UNL     1       3.823   3.203   1.710  0.00  0.00    +0.000 C 
ATOM      4  C   UNL     1       1.770   2.526   0.397  0.00  0.00    +0.000 A 
ATOM      5  C   UNL     1       0.849   1.476   0.433  0.00  0.00    +0.000 A 
ATOM      6  C   UNL     1       1.269   0.684   1.481  0.00  0.00    +0.000 A 
ATOM      7  C   UNL     1       0.572  -0.568   1.893  0.00  0.00    +0.000 C 
ENDROOT
BRANCH   1  11
ATOM      8  C   UNL     1       4.416  -0.506   5.385  0.00  0.00    +0.000 A 
ATOM      9  C   UNL     1       3.898  -1.302   4.382  0.00  0.00    +0.000 A 
ATOM     10  C   UNL     1       3.228  -0.766   3.301  0.00  0.00    +0.000 A 
ATOM     11  C   UNL     1       3.051   0.598   3.186  0.00  0.00    +0.000 A 
ATOM     12  C   UNL     1       3.571   1.389   4.192  0.00  0.00    +0.000 A 
ATOM     13  C   UNL     1       4.246   0.865   5.283  0.00  0.00    +0.000 A 
BRANCH   8  14
ATOM     14  O   UNL     1       5.094  -1.013   6.485  0.00  0.00    +0.000 OA
BRANCH  14  16
ATOM     15  C   UNL     1       6.019  -2.855   5.289  0.00  0.00    +0.000 C 
ATOM     16  C   UNL     1       5.241  -2.439   6.540  0.00  0.00    +0.000 C 
ENDBRANCH  14  16
ENDBRANCH   8  14
ENDBRANCH   1  11
BRANCH   5  17
ATOM     17  C   UNL     1      -0.298   1.285  -0.458  0.00  0.00    +0.000 C 
ATOM     18  O   UNL     1      -0.515   2.119  -1.355  0.00  0.00    +0.000 OA
BRANCH  17  19
ATOM     19  C   UNL     1      -1.142   0.090  -0.230  0.00  0.00    +0.000 C 
BRANCH  19  20
ATOM     20  O   UNL     1      -2.208  -0.005  -1.127  0.00  0.00    +0.000 OA
BRANCH  20  21
ATOM     21  C   UNL     1      -2.075  -0.094  -2.500  0.00  0.00    +0.000 C 
ATOM     22  O   UNL     1      -0.907  -0.087  -2.962  0.00  0.00    +0.000 OA
BRANCH  21  23
ATOM     23  C   UNL     1      -3.211  -0.192  -3.406  0.00  0.00    +0.000 A 
ATOM     24  C   UNL     1      -3.108  -0.281  -4.778  0.00  0.00    +0.000 A 
ATOM     25  C   UNL     1      -4.362  -0.359  -5.326  0.00  0.00    +0.000 A 
ATOM     26  C   UNL     1      -4.776  -0.461  -6.637  0.00  0.00    +0.000 A 
ATOM     27  C   UNL     1      -6.120  -0.522  -6.898  0.00  0.00    +0.000 A 
ATOM     28  C   UNL     1      -7.014  -0.481  -5.859  0.00  0.00    +0.000 A 
ATOM     29  C   UNL     1      -6.589  -0.378  -4.543  0.00  0.00    +0.000 A 
ATOM     30  C   UNL     1      -5.225  -0.314  -4.250  0.00  0.00    +0.000 A 
ATOM     31  N   UNL     1      -4.524  -0.214  -3.107  0.00  0.00    +0.000 NA
ENDBRANCH  21  23
ENDBRANCH  20  21
ENDBRANCH  19  20
ENDBRANCH  17  19
ENDBRANCH   5  17
TORSDOF 8
