REMARK  Name = 
REMARK  5 active torsions:
REMARK  status: ('A' for Active; 'I' for Inactive)
REMARK    1  A    between atoms: O_2  and  C_3
REMARK    2  A    between atoms: C_6  and  C_7
REMARK    3  A    between atoms: C_11  and  C_12
REMARK    4  A    between atoms: N_15  and  C_16
REMARK    5  A    between atoms: C_16  and  C_18
REMARK                            x       y       z     vdW  Elec       q    Type
REMARK                         _______ _______ _______ _____ _____    ______ ____
ROOT
ATOM      1  C   UNL     1      -0.499  -0.159  -1.117  0.00  0.00    +0.000 A 
ATOM      2  C   UNL     1      -1.784  -0.639  -1.190  0.00  0.00    +0.000 A 
ATOM      3  C   UNL     1      -2.634  -0.402  -2.249  0.00  0.00    +0.000 A 
ATOM      4  N   UNL     1      -3.964  -0.882  -2.351  0.00  0.00    +0.000 NA
ATOM      5  N   UNL     1      -2.152   0.343  -3.251  0.00  0.00    +0.000 NA
ATOM      6  C   UNL     1      -0.889   0.833  -3.212  0.00  0.00    +0.000 A 
ATOM      7  C   UNL     1      -0.374   1.652  -4.327  0.00  0.00    +0.000 C 
ATOM      8  N   UNL     1      -0.071   0.581  -2.151  0.00  0.00    +0.000 NA
ENDROOT
BRANCH   1  13
ATOM      9  C   UNL     1       2.418  -0.265   1.226  0.00  0.00    +0.000 A 
ATOM     10  C   UNL     1       1.872  -1.036   2.227  0.00  0.00    +0.000 A 
ATOM     11  N   UNL     1       0.617  -1.508   2.162  0.00  0.00    +0.000 NA
ATOM     12  C   UNL     1      -0.114  -1.211   1.083  0.00  0.00    +0.000 A 
ATOM     13  C   UNL     1       0.374  -0.445   0.048  0.00  0.00    +0.000 A 
ATOM     14  C   UNL     1       1.648   0.029   0.122  0.00  0.00    +0.000 A 
BRANCH   9  18
ATOM     15  C   UNL     1       6.362   1.129   1.764  0.00  0.00    +0.000 A 
ATOM     16  C   UNL     1       5.550   0.948   2.859  0.00  0.00    +0.000 A 
ATOM     17  C   UNL     1       4.268   0.490   2.625  0.00  0.00    +0.000 A 
ATOM     18  C   UNL     1       3.803   0.220   1.363  0.00  0.00    +0.000 A 
ATOM     19  C   UNL     1       4.611   0.400   0.278  0.00  0.00    +0.000 A 
ATOM     20  C   UNL     1       5.893   0.857   0.493  0.00  0.00    +0.000 A 
BRANCH  15  22
ATOM     21  C   UNL     1       8.501   1.776   0.819  0.00  0.00    +0.000 C 
ATOM     22  O   UNL     1       7.675   1.594   1.952  0.00  0.00    +0.000 OA
ENDBRANCH  15  22
ENDBRANCH   9  18
ENDBRANCH   1  13
BRANCH   4  23
ATOM     23  C   UNL     1      -4.356  -1.738  -1.070  0.00  0.00    +0.000 C 
ATOM     24  C   UNL     1      -5.900  -2.047  -1.658  0.00  0.00    +0.000 C 
BRANCH  23  25
ATOM     25  C   UNL     1      -4.801  -0.499  -0.200  0.00  0.00    +0.000 A 
ATOM     26  C   UNL     1      -5.571   0.477  -0.713  0.00  0.00    +0.000 A 
ATOM     27  C   UNL     1      -5.938   1.549   0.092  0.00  0.00    +0.000 A 
ATOM     28  C   UNL     1      -5.489   1.548   1.375  0.00  0.00    +0.000 A 
ATOM     29  C   UNL     1      -4.704   0.570   1.926  0.00  0.00    +0.000 A 
ATOM     30  C   UNL     1      -4.352  -0.503   1.075  0.00  0.00    +0.000 A 
ENDBRANCH  23  25
ENDBRANCH   4  23
TORSDOF 5
