REMARK  Name = 
REMARK  7 active torsions:
REMARK  status: ('A' for Active; 'I' for Inactive)
REMARK    1  A    between atoms: C_5  and  N_6
REMARK    2  A    between atoms: C_7  and  C_9
REMARK    3  A    between atoms: C_9  and  O_10
REMARK    4  A    between atoms: O_10  and  C_11
REMARK    5  A    between atoms: C_11  and  C_13
REMARK    6  A    between atoms: C_13  and  C_14
REMARK    7  A    between atoms: C_14  and  N_15
REMARK                            x       y       z     vdW  Elec       q    Type
REMARK                         _______ _______ _______ _____ _____    ______ ____
ROOT
ATOM      1  C   UNL     1       1.385  -2.002  -1.190  0.00  0.00    +0.000 C 
ENDROOT
BRANCH   1   2
ATOM      2  C   UNL     1       0.388  -1.439  -0.261  0.00  0.00    +0.000 C 
ATOM      3  O   UNL     1      -0.488  -2.187   0.297  0.00  0.00    +0.000 OA
BRANCH   2   4
ATOM      4  O   UNL     1       0.299  -0.100   0.092  0.00  0.00    +0.000 OA
BRANCH   4   5
ATOM      5  C   UNL     1      -0.662   0.379   0.975  0.00  0.00    +0.000 C 
BRANCH   5   7
ATOM      6  N   UNL     1      -3.190   0.541   1.240  0.00  0.00    +0.000 NA
ATOM      7  C   UNL     1      -2.052   0.151   0.517  0.00  0.00    +0.000 C 
ATOM      8  O   UNL     1      -2.227  -0.426  -0.586  0.00  0.00    +0.000 OA
BRANCH   6  13
ATOM      9  C   UNL     1      -8.635  -0.277  -0.408  0.00  0.00    +0.000 C 
ATOM     10  C   UNL     1      -7.215  -0.070   0.010  0.00  0.00    +0.000 A 
ATOM     11  C   UNL     1      -6.164  -0.491  -0.778  0.00  0.00    +0.000 A 
ATOM     12  C   UNL     1      -4.846  -0.299  -0.389  0.00  0.00    +0.000 A 
ATOM     13  C   UNL     1      -4.525   0.322   0.801  0.00  0.00    +0.000 A 
ATOM     14  C   UNL     1      -5.577   0.743   1.587  0.00  0.00    +0.000 A 
ATOM     15  C   UNL     1      -5.245   1.421   2.886  0.00  0.00    +0.000 C 
ATOM     16  C   UNL     1      -6.891   0.551   1.199  0.00  0.00    +0.000 A 
ENDBRANCH   6  13
ENDBRANCH   5   7
ENDBRANCH   4   5
ENDBRANCH   2   4
ENDBRANCH   1   2
BRANCH   1  17
ATOM     17  C   UNL     1       2.335  -1.004  -1.775  0.00  0.00    +0.000 C 
BRANCH  17  18
ATOM     18  N   UNL     1       3.127  -0.303  -0.753  0.00  0.00    +0.000 N 
ATOM     19  C   UNL     1       3.892  -1.092   0.128  0.00  0.00    +0.000 A 
ATOM     20  C   UNL     1       3.837  -2.482  -0.034  0.00  0.00    +0.000 A 
ATOM     21  C   UNL     1       4.564  -3.325   0.792  0.00  0.00    +0.000 A 
ATOM     22  C   UNL     1       5.352  -2.808   1.787  0.00  0.00    +0.000 A 
ATOM     23  C   UNL     1       5.386  -1.438   1.922  0.00  0.00    +0.000 A 
ATOM     24  C   UNL     1       4.683  -0.588   1.125  0.00  0.00    +0.000 A 
ATOM     25  S   UNL     1       4.794   1.157   1.385  0.00  0.00    +0.000 S 
ATOM     26  C   UNL     1       3.740   1.928   0.141  0.00  0.00    +0.000 A 
ATOM     27  C   UNL     1       3.617   3.284   0.071  0.00  0.00    +0.000 A 
ATOM     28  C   UNL     1       2.833   3.905  -0.854  0.00  0.00    +0.000 A 
ATOM     29  C   UNL     1       2.142   3.105  -1.749  0.00  0.00    +0.000 A 
ATOM     30  C   UNL     1       2.268   1.740  -1.677  0.00  0.00    +0.000 A 
ATOM     31  C   UNL     1       3.076   1.105  -0.723  0.00  0.00    +0.000 A 
ENDBRANCH  17  18
ENDBRANCH   1  17
TORSDOF 7
