REMARK  Name = 
REMARK  9 active torsions:
REMARK  status: ('A' for Active; 'I' for Inactive)
REMARK    1  A    between atoms: C_2  and  O_3
REMARK    2  A    between atoms: O_3  and  C_4
REMARK    3  A    between atoms: C_4  and  C_6
REMARK    4  A    between atoms: C_9  and  N_10
REMARK    5  A    between atoms: C_11  and  C_13
REMARK    6  A    between atoms: C_16  and  C_17
REMARK    7  A    between atoms: C_17  and  S_18
REMARK    8  A    between atoms: S_18  and  C_19
REMARK    9  A    between atoms: C_19  and  C_20
REMARK                            x       y       z     vdW  Elec       q    Type
REMARK                         _______ _______ _______ _____ _____    ______ ____
ROOT
ATOM      1  C   UNL     1       0.487  -0.001   1.732  0.00  0.00    +0.000 A 
ATOM      2  C   UNL     1       0.830  -1.321   1.932  0.00  0.00    +0.000 A 
ATOM      3  C   UNL     1       2.060  -1.671   2.458  0.00  0.00    +0.000 A 
ATOM      4  C   UNL     1       2.995  -0.721   2.804  0.00  0.00    +0.000 A 
ATOM      5  C   UNL     1       2.661   0.602   2.607  0.00  0.00    +0.000 A 
ATOM      6  C   UNL     1       1.420   0.952   2.077  0.00  0.00    +0.000 A 
ENDROOT
BRANCH   1   8
ATOM      7  N   UNL     1      -1.762  -0.677   0.888  0.00  0.00    +0.000 NA
ATOM      8  C   UNL     1      -0.820   0.354   1.173  0.00  0.00    +0.000 C 
ATOM      9  O   UNL     1      -1.165   1.520   0.927  0.00  0.00    +0.000 OA
BRANCH   7  13
ATOM     10  C   UNL     1      -5.586   0.208  -0.744  0.00  0.00    +0.000 A 
ATOM     11  C   UNL     1      -4.681   1.214  -0.485  0.00  0.00    +0.000 A 
ATOM     12  C   UNL     1      -3.422   0.937   0.051  0.00  0.00    +0.000 A 
ATOM     13  C   UNL     1      -3.035  -0.352   0.343  0.00  0.00    +0.000 A 
ATOM     14  C   UNL     1      -3.942  -1.359   0.083  0.00  0.00    +0.000 A 
ATOM     15  C   UNL     1      -5.205  -1.081  -0.455  0.00  0.00    +0.000 A 
BRANCH  10  16
ATOM     16  C   UNL     1      -6.904   0.499  -1.307  0.00  0.00    +0.000 C 
ATOM     17  O   UNL     1      -7.267   1.669  -1.581  0.00  0.00    +0.000 OA
BRANCH  16  18
ATOM     18  O   UNL     1      -7.795  -0.523  -1.556  0.00  0.00    +0.000 OA
BRANCH  18  20
ATOM     19  C   UNL     1      -8.905   0.410  -3.471  0.00  0.00    +0.000 C 
ATOM     20  C   UNL     1      -9.094  -0.259  -2.110  0.00  0.00    +0.000 C 
ENDBRANCH  18  20
ENDBRANCH  16  18
ENDBRANCH  10  16
ENDBRANCH   7  13
ENDBRANCH   1   8
BRANCH   4  21
ATOM     21  C   UNL     1       4.320  -1.139   3.370  0.00  0.00    +0.000 C 
BRANCH  21  22
ATOM     22  S   UNL     1       5.433  -1.337   1.925  0.00  0.00    +0.000 S 
BRANCH  22  23
ATOM     23  C   UNL     1       5.643   0.339   1.225  0.00  0.00    +0.000 C 
BRANCH  23  24
ATOM     24  C   UNL     1       6.529   0.320   0.041  0.00  0.00    +0.000 A 
ATOM     25  C   UNL     1       7.896   0.478   0.102  0.00  0.00    +0.000 A 
ATOM     26  C   UNL     1       8.643   0.447  -1.061  0.00  0.00    +0.000 A 
ATOM     27  C   UNL     1       8.041   0.261  -2.269  0.00  0.00    +0.000 A 
ATOM     28  C   UNL     1       6.678   0.102  -2.347  0.00  0.00    +0.000 A 
ATOM     29  C   UNL     1       5.947   0.134  -1.198  0.00  0.00    +0.000 A 
ENDBRANCH  23  24
ENDBRANCH  22  23
ENDBRANCH  21  22
ENDBRANCH   4  21
TORSDOF 9
