REMARK  Name = 
REMARK  7 active torsions:
REMARK  status: ('A' for Active; 'I' for Inactive)
REMARK    1  A    between atoms: N_3  and  C_4
REMARK    2  A    between atoms: C_4  and  C_5
REMARK    3  A    between atoms: C_5  and  N_6
REMARK    4  A    between atoms: N_18  and  C_19
REMARK    5  A    between atoms: C_19  and  C_20
REMARK    6  A    between atoms: C_20  and  C_22
REMARK    7  A    between atoms: C_25  and  C_26
REMARK                            x       y       z     vdW  Elec       q    Type
REMARK                         _______ _______ _______ _____ _____    ______ ____
ROOT
ATOM      1  N   UNL     1      -0.931   1.015  -1.167  0.00  0.00    +0.000 NA
ATOM      2  C   UNL     1      -1.607   0.076  -0.603  0.00  0.00    +0.000 A 
ATOM      3  N   UNL     1      -2.824  -0.316  -0.957  0.00  0.00    +0.000 N 
ATOM      4  C   UNL     1      -3.145  -1.306  -0.111  0.00  0.00    +0.000 A 
ATOM      5  C   UNL     1      -4.300  -2.081  -0.033  0.00  0.00    +0.000 A 
ATOM      6  C   UNL     1      -4.380  -3.059   0.937  0.00  0.00    +0.000 A 
ATOM      7  C   UNL     1      -3.335  -3.252   1.805  0.00  0.00    +0.000 A 
ATOM      8  C   UNL     1      -2.191  -2.488   1.736  0.00  0.00    +0.000 A 
ATOM      9  C   UNL     1      -2.114  -1.507   0.758  0.00  0.00    +0.000 A 
ATOM     10  N   UNL     1      -1.135  -0.636   0.456  0.00  0.00    +0.000 N 
ENDROOT
BRANCH   3  11
ATOM     11  C   UNL     1      -3.689   0.161  -2.023  0.00  0.00    +0.000 C 
BRANCH  11  12
ATOM     12  C   UNL     1      -4.466   1.379  -1.594  0.00  0.00    +0.000 C 
BRANCH  12  13
ATOM     13  N   UNL     1      -5.292   1.248  -0.463  0.00  0.00    +0.000 NA
ATOM     14  C   UNL     1      -6.462   0.437  -0.566  0.00  0.00    +0.000 C 
ATOM     15  C   UNL     1      -7.246   0.415   0.740  0.00  0.00    +0.000 C 
ATOM     16  C   UNL     1      -6.923   1.568   1.644  0.00  0.00    +0.000 C 
ATOM     17  C   UNL     1      -5.457   1.807   1.851  0.00  0.00    +0.000 C 
ATOM     18  C   UNL     1      -4.596   1.164   0.797  0.00  0.00    +0.000 C 
ENDBRANCH  12  13
ENDBRANCH  11  12
ENDBRANCH   3  11
BRANCH  10  19
ATOM     19  C   UNL     1       0.116  -0.464   1.126  0.00  0.00    +0.000 C 
BRANCH  19  20
ATOM     20  C   UNL     1       1.186  -1.301   0.601  0.00  0.00    +0.000 C 
ATOM     21  O   UNL     1       1.001  -2.520   0.296  0.00  0.00    +0.000 OA
BRANCH  20  22
ATOM     22  C   UNL     1       2.517  -0.698   0.425  0.00  0.00    +0.000 A 
ATOM     23  C   UNL     1       3.573  -1.440  -0.014  0.00  0.00    +0.000 A 
ATOM     24  C   UNL     1       4.821  -0.826  -0.222  0.00  0.00    +0.000 A 
ATOM     25  C   UNL     1       5.015   0.508   0.003  0.00  0.00    +0.000 A 
ATOM     26  C   UNL     1       3.941   1.254   0.448  0.00  0.00    +0.000 A 
ATOM     27  C   UNL     1       2.698   0.653   0.659  0.00  0.00    +0.000 A 
BRANCH  25  28
ATOM     28  C   UNL     1       6.316   1.121  -0.248  0.00  0.00    +0.000 A 
ATOM     29  C   UNL     1       7.097   0.620  -1.236  0.00  0.00    +0.000 A 
ATOM     30  C   UNL     1       8.325   1.188  -1.516  0.00  0.00    +0.000 A 
ATOM     31  C   UNL     1       8.758   2.279  -0.782  0.00  0.00    +0.000 A 
ATOM     32  C   UNL     1       7.976   2.794   0.218  0.00  0.00    +0.000 A 
ATOM     33  C   UNL     1       6.753   2.206   0.480  0.00  0.00    +0.000 A 
ENDBRANCH  25  28
ENDBRANCH  20  22
ENDBRANCH  19  20
ENDBRANCH  10  19
TORSDOF 7
