REMARK  Name = 
REMARK  7 active torsions:
REMARK  status: ('A' for Active; 'I' for Inactive)
REMARK    1  A    between atoms: O_2  and  C_3
REMARK    2  A    between atoms: C_6  and  C_7
REMARK    3  A    between atoms: C_10  and  C_11
REMARK    4  A    between atoms: C_14  and  C_15
REMARK    5  A    between atoms: C_23  and  C_24
REMARK    6  A    between atoms: N_26  and  C_27
REMARK    7  A    between atoms: C_27  and  C_29
REMARK                            x       y       z     vdW  Elec       q    Type
REMARK                         _______ _______ _______ _____ _____    ______ ____
ROOT
ATOM      1  C   UNL     1       2.394   0.858   0.917  0.00  0.00    +0.000 A 
ATOM      2  N   UNL     1       1.945   1.859   1.740  0.00  0.00    +0.000 NA
ATOM      3  O   UNL     1       0.674   1.911   1.661  0.00  0.00    +0.000 OA
ATOM      4  C   UNL     1       0.195   0.973   0.804  0.00  0.00    +0.000 A 
ATOM      5  C   UNL     1       1.281   0.303   0.330  0.00  0.00    +0.000 A 
ENDROOT
BRANCH   1   9
ATOM      6  C   UNL     1       6.425  -0.136   0.375  0.00  0.00    +0.000 A 
ATOM      7  C   UNL     1       5.937  -0.025   1.656  0.00  0.00    +0.000 A 
ATOM      8  C   UNL     1       4.616   0.289   1.858  0.00  0.00    +0.000 A 
ATOM      9  C   UNL     1       3.795   0.489   0.743  0.00  0.00    +0.000 A 
ATOM     10  C   UNL     1       4.312   0.371  -0.526  0.00  0.00    +0.000 A 
ATOM     11  C   UNL     1       5.635   0.057  -0.727  0.00  0.00    +0.000 A 
BRANCH   6  13
ATOM     12  C   UNL     1       8.643  -0.669   1.246  0.00  0.00    +0.000 C 
ATOM     13  O   UNL     1       7.774  -0.457   0.127  0.00  0.00    +0.000 OA
ENDBRANCH   6  13
ENDBRANCH   1   9
BRANCH   4  14
ATOM     14  C   UNL     1      -1.225   0.842   0.552  0.00  0.00    +0.000 A 
ATOM     15  C   UNL     1      -2.109   1.700   1.202  0.00  0.00    +0.000 A 
ATOM     16  C   UNL     1      -3.462   1.576   0.963  0.00  0.00    +0.000 A 
ATOM     17  C   UNL     1      -3.975   0.638   0.107  0.00  0.00    +0.000 A 
ATOM     18  C   UNL     1      -3.118  -0.211  -0.537  0.00  0.00    +0.000 A 
ATOM     19  C   UNL     1      -1.742  -0.079  -0.289  0.00  0.00    +0.000 A 
BRANCH  17  20
ATOM     20  C   UNL     1      -5.395   0.548  -0.111  0.00  0.00    +0.000 A 
ATOM     21  C   UNL     1      -6.337   0.847   0.859  0.00  0.00    +0.000 A 
ATOM     22  C   UNL     1      -7.698   0.763   0.651  0.00  0.00    +0.000 A 
ATOM     23  C   UNL     1      -8.188   0.364  -0.574  0.00  0.00    +0.000 A 
ATOM     24  C   UNL     1      -7.284   0.057  -1.567  0.00  0.00    +0.000 A 
ATOM     25  C   UNL     1      -5.929   0.148  -1.338  0.00  0.00    +0.000 A 
ENDBRANCH  17  20
ENDBRANCH   4  14
BRANCH   5  26
ATOM     26  C   UNL     1       1.298  -0.811  -0.594  0.00  0.00    +0.000 C 
ATOM     27  O   UNL     1       2.396  -1.416  -0.851  0.00  0.00    +0.000 OA
ATOM     28  N   UNL     1       0.201  -1.355  -1.297  0.00  0.00    +0.000 NA
BRANCH  28  29
ATOM     29  C   UNL     1       0.527  -2.572  -2.239  0.00  0.00    +0.000 C 
ATOM     30  C   UNL     1      -0.888  -2.459  -3.087  0.00  0.00    +0.000 C 
BRANCH  29  31
ATOM     31  C   UNL     1      -0.041  -3.708  -1.185  0.00  0.00    +0.000 C 
ATOM     32  C   UNL     1      -1.463  -3.442  -0.915  0.00  0.00    +0.000 C 
ATOM     33  C   UNL     1       0.806  -3.472   0.046  0.00  0.00    +0.000 C 
ENDBRANCH  29  31
ENDBRANCH  28  29
ENDBRANCH   5  26
TORSDOF 7
