REMARK  Name = 
REMARK  7 active torsions:
REMARK  status: ('A' for Active; 'I' for Inactive)
REMARK    1  A    between atoms: O_2  and  C_3
REMARK    2  A    between atoms: C_8  and  O_9
REMARK    3  A    between atoms: O_9  and  C_10
REMARK    4  A    between atoms: C_10  and  C_11
REMARK    5  A    between atoms: C_17  and  C_18
REMARK    6  A    between atoms: C_20  and  C_21
REMARK    7  A    between atoms: C_29  and  O_30
REMARK                            x       y       z     vdW  Elec       q    Type
REMARK                         _______ _______ _______ _____ _____    ______ ____
ROOT
ATOM      1  C   UNL     1      -2.151  -1.269   1.621  0.00  0.00    +0.000 A 
ATOM      2  C   UNL     1      -1.159  -0.969   2.543  0.00  0.00    +0.000 A 
ATOM      3  C   UNL     1      -0.258   0.077   2.234  0.00  0.00    +0.000 A 
ATOM      4  C   UNL     1      -0.341   0.766   1.101  0.00  0.00    +0.000 A 
ATOM      5  C   UNL     1      -1.330   0.458   0.195  0.00  0.00    +0.000 A 
ATOM      6  C   UNL     1      -2.258  -0.569   0.438  0.00  0.00    +0.000 A 
ATOM      7  C   UNL     1       0.611   1.944   0.670  0.00  0.00    +0.000 C 
ATOM      8  N   UNL     1       1.080   2.324   2.111  0.00  0.00    +0.000 NA
ATOM      9  C   UNL     1       1.762   1.249   2.707  0.00  0.00    +0.000 C 
ATOM     10  C   UNL     1       0.751   0.298   3.302  0.00  0.00    +0.000 C 
ENDROOT
BRANCH   7  11
ATOM     11  C   UNL     1       1.884   1.087   0.269  0.00  0.00    +0.000 A 
ATOM     12  C   UNL     1       1.763  -0.134  -0.297  0.00  0.00    +0.000 A 
ATOM     13  C   UNL     1       2.866  -0.870  -0.641  0.00  0.00    +0.000 A 
ATOM     14  C   UNL     1       4.095  -0.289  -0.376  0.00  0.00    +0.000 A 
ATOM     15  C   UNL     1       4.203   0.961   0.204  0.00  0.00    +0.000 A 
ATOM     16  C   UNL     1       3.084   1.696   0.548  0.00  0.00    +0.000 A 
BRANCH  13  17
ATOM     17  C   UNL     1       2.774  -2.203  -1.257  0.00  0.00    +0.000 A 
ATOM     18  C   UNL     1       3.752  -2.602  -2.132  0.00  0.00    +0.000 A 
ATOM     19  C   UNL     1       3.742  -3.854  -2.764  0.00  0.00    +0.000 A 
ATOM     20  C   UNL     1       2.719  -4.728  -2.506  0.00  0.00    +0.000 A 
ATOM     21  C   UNL     1       1.731  -4.350  -1.635  0.00  0.00    +0.000 A 
ATOM     22  C   UNL     1       1.759  -3.094  -1.013  0.00  0.00    +0.000 A 
ENDBRANCH  13  17
BRANCH  16  23
ATOM     23  O   UNL     1       3.229   2.930   1.118  0.00  0.00    +0.000 OA
ATOM     24  C   UNL     1       4.403   3.587   1.420  0.00  0.00    +0.000 C 
ENDBRANCH  16  23
ENDBRANCH   7  11
BRANCH   1  26
ATOM     25  C   UNL     1      -3.071  -3.070   3.020  0.00  0.00    +0.000 C 
ATOM     26  O   UNL     1      -3.075  -2.279   1.843  0.00  0.00    +0.000 OA
ENDBRANCH   1  26
BRANCH   6  27
ATOM     27  O   UNL     1      -3.237  -0.892  -0.431  0.00  0.00    +0.000 OA
BRANCH  27  28
ATOM     28  C   UNL     1      -3.583  -0.383  -1.657  0.00  0.00    +0.000 C 
BRANCH  28  29
ATOM     29  C   UNL     1      -3.946   1.008  -1.740  0.00  0.00    +0.000 A 
ATOM     30  C   UNL     1      -3.861   1.816  -0.638  0.00  0.00    +0.000 A 
ATOM     31  C   UNL     1      -4.196   3.156  -0.671  0.00  0.00    +0.000 A 
ATOM     32  C   UNL     1      -4.628   3.689  -1.846  0.00  0.00    +0.000 A 
ATOM     33  C   UNL     1      -4.731   2.933  -2.970  0.00  0.00    +0.000 A 
ATOM     34  C   UNL     1      -4.384   1.573  -2.912  0.00  0.00    +0.000 A 
ENDBRANCH  28  29
ENDBRANCH  27  28
ENDBRANCH   6  27
TORSDOF 7
