REMARK  Name = 
REMARK  8 active torsions:
REMARK  status: ('A' for Active; 'I' for Inactive)
REMARK    1  A    between atoms: C_2  and  O_3
REMARK    2  A    between atoms: O_3  and  C_4
REMARK    3  A    between atoms: C_4  and  C_6
REMARK    4  A    between atoms: N_9  and  C_10
REMARK    5  A    between atoms: C_10  and  C_11
REMARK    6  A    between atoms: C_11  and  O_12
REMARK    7  A    between atoms: O_12  and  C_13
REMARK    8  A    between atoms: C_16  and  C_17
REMARK                            x       y       z     vdW  Elec       q    Type
REMARK                         _______ _______ _______ _____ _____    ______ ____
ROOT
ATOM      1  C   UNL     1      -3.228   0.562   0.600  0.00  0.00    +0.000 A 
ATOM      2  C   UNL     1      -2.420   1.496  -0.053  0.00  0.00    +0.000 A 
ATOM      3  C   UNL     1      -1.786   2.679   0.581  0.00  0.00    +0.000 C 
ATOM      4  N   UNL     1      -2.313   1.149  -1.333  0.00  0.00    +0.000 N 
ATOM      5  C   UNL     1      -3.015   0.029  -1.553  0.00  0.00    +0.000 A 
ATOM      6  C   UNL     1      -3.200  -0.698  -2.706  0.00  0.00    +0.000 A 
ATOM      7  C   UNL     1      -3.989  -1.852  -2.688  0.00  0.00    +0.000 A 
ATOM      8  C   UNL     1      -4.571  -2.241  -1.501  0.00  0.00    +0.000 A 
ATOM      9  O   UNL     1      -5.356  -3.377  -1.450  0.00  0.00    +0.000 OA
ATOM     10  C   UNL     1      -4.385  -1.514  -0.348  0.00  0.00    +0.000 A 
ATOM     11  C   UNL     1      -3.600  -0.364  -0.362  0.00  0.00    +0.000 A 
ENDROOT
BRANCH   1  12
ATOM     12  C   UNL     1      -3.620   0.535   2.002  0.00  0.00    +0.000 C 
ATOM     13  O   UNL     1      -2.903  -0.082   2.856  0.00  0.00    +0.000 OA
BRANCH  12  14
ATOM     14  O   UNL     1      -4.774   1.180   2.409  0.00  0.00    +0.000 OA
BRANCH  14  16
ATOM     15  C   UNL     1      -4.063   1.756   4.654  0.00  0.00    +0.000 C 
ATOM     16  C   UNL     1      -5.134   1.139   3.779  0.00  0.00    +0.000 C 
ENDBRANCH  14  16
ENDBRANCH  12  14
ENDBRANCH   1  12
BRANCH   4  17
ATOM     17  C   UNL     1      -1.560   1.863  -2.328  0.00  0.00    +0.000 C 
BRANCH  17  18
ATOM     18  C   UNL     1      -0.150   1.266  -2.305  0.00  0.00    +0.000 C 
BRANCH  18  19
ATOM     19  O   UNL     1       0.433   1.425  -1.028  0.00  0.00    +0.000 OA
BRANCH  19  20
ATOM     20  C   UNL     1       1.709   0.974  -0.728  0.00  0.00    +0.000 A 
ATOM     21  C   UNL     1       2.244   1.151   0.543  0.00  0.00    +0.000 A 
ATOM     22  C   UNL     1       3.513   0.701   0.839  0.00  0.00    +0.000 A 
ATOM     23  C   UNL     1       4.309   0.061  -0.089  0.00  0.00    +0.000 A 
ATOM     24  C   UNL     1       3.785  -0.120  -1.360  0.00  0.00    +0.000 A 
ATOM     25  C   UNL     1       2.515   0.333  -1.645  0.00  0.00    +0.000 A 
BRANCH  23  26
ATOM     26  C   UNL     1       5.649  -0.409   0.238  0.00  0.00    +0.000 A 
ATOM     27  C   UNL     1       6.628  -0.443  -0.725  0.00  0.00    +0.000 A 
ATOM     28  C   UNL     1       7.895  -0.880  -0.442  0.00  0.00    +0.000 A 
ATOM     29  C   UNL     1       8.202  -1.296   0.824  0.00  0.00    +0.000 A 
ATOM     30  C   UNL     1       7.232  -1.267   1.795  0.00  0.00    +0.000 A 
ATOM     31  C   UNL     1       5.951  -0.829   1.527  0.00  0.00    +0.000 A 
ENDBRANCH  23  26
ENDBRANCH  19  20
ENDBRANCH  18  19
ENDBRANCH  17  18
ENDBRANCH   4  17
TORSDOF 8
