REMARK  Name = 
REMARK  6 active torsions:
REMARK  status: ('A' for Active; 'I' for Inactive)
REMARK    1  A    between atoms: O_2  and  C_3
REMARK    2  A    between atoms: C_7  and  C_8
REMARK    3  A    between atoms: C_18  and  O_19
REMARK    4  A    between atoms: O_19  and  C_20
REMARK    5  A    between atoms: C_20  and  C_21
REMARK    6  A    between atoms: C_29  and  O_30
REMARK                            x       y       z     vdW  Elec       q    Type
REMARK                         _______ _______ _______ _____ _____    ______ ____
ROOT
ATOM      1  C   UNL     1       1.952   0.686   0.782  0.00  0.00    +0.000 C 
ATOM      2  N   UNL     1       1.879  -0.033   2.179  0.00  0.00    +0.000 NA
ATOM      3  C   UNL     1       0.815   0.753   2.816  0.00  0.00    +0.000 C 
ATOM      4  C   UNL     1      -0.372   0.942   1.894  0.00  0.00    +0.000 C 
ATOM      5  C   UNL     1      -0.333  -0.011   0.753  0.00  0.00    +0.000 A 
ATOM      6  C   UNL     1       0.852  -0.220   0.094  0.00  0.00    +0.000 A 
ATOM      7  N   UNL     1       0.721  -1.067  -0.862  0.00  0.00    +0.000 NA
ATOM      8  C   UNL     1      -0.559  -1.486  -0.913  0.00  0.00    +0.000 A 
ATOM      9  C   UNL     1      -1.313  -2.352  -1.675  0.00  0.00    +0.000 A 
ATOM     10  C   UNL     1      -2.667  -2.537  -1.423  0.00  0.00    +0.000 A 
ATOM     11  C   UNL     1      -3.304  -1.862  -0.403  0.00  0.00    +0.000 A 
ATOM     12  C   UNL     1      -2.570  -0.990   0.373  0.00  0.00    +0.000 A 
ATOM     13  C   UNL     1      -1.230  -0.828   0.099  0.00  0.00    +0.000 A 
ENDROOT
BRANCH   1  18
ATOM     14  C   UNL     1       5.307   0.258  -0.924  0.00  0.00    +0.000 A 
ATOM     15  C   UNL     1       5.525  -1.087  -0.702  0.00  0.00    +0.000 A 
ATOM     16  C   UNL     1       4.657  -1.915  -0.024  0.00  0.00    +0.000 A 
ATOM     17  C   UNL     1       3.491  -1.363   0.467  0.00  0.00    +0.000 A 
ATOM     18  C   UNL     1       3.242  -0.086   0.279  0.00  0.00    +0.000 A 
ATOM     19  C   UNL     1       4.101   0.751  -0.397  0.00  0.00    +0.000 A 
BRANCH  14  21
ATOM     20  C   UNL     1       7.373   0.466  -2.093  0.00  0.00    +0.000 C 
ATOM     21  O   UNL     1       6.192   1.079  -1.610  0.00  0.00    +0.000 OA
ENDBRANCH  14  21
BRANCH  19  22
ATOM     22  O   UNL     1       3.852   2.089  -0.600  0.00  0.00    +0.000 OA
ATOM     23  C   UNL     1       4.251   3.110   0.286  0.00  0.00    +0.000 C 
ENDBRANCH  19  22
ENDBRANCH   1  18
BRANCH  11  24
ATOM     24  O   UNL     1      -4.654  -2.028  -0.129  0.00  0.00    +0.000 OA
BRANCH  24  25
ATOM     25  C   UNL     1      -5.342  -1.372   0.883  0.00  0.00    +0.000 C 
BRANCH  25  26
ATOM     26  C   UNL     1      -5.308   0.113   0.713  0.00  0.00    +0.000 A 
ATOM     27  C   UNL     1      -5.877   0.916   1.691  0.00  0.00    +0.000 A 
ATOM     28  C   UNL     1      -5.877   2.291   1.583  0.00  0.00    +0.000 A 
ATOM     29  C   UNL     1      -5.310   2.926   0.497  0.00  0.00    +0.000 A 
ATOM     30  C   UNL     1      -4.748   2.116  -0.468  0.00  0.00    +0.000 A 
ATOM     31  C   UNL     1      -4.745   0.741  -0.365  0.00  0.00    +0.000 A 
ENDBRANCH  25  26
ENDBRANCH  24  25
ENDBRANCH  11  24
TORSDOF 6
