REMARK  Name = 
REMARK  10 active torsions:
REMARK  status: ('A' for Active; 'I' for Inactive)
REMARK    1  A    between atoms: C_2  and  C_4
REMARK    2  A    between atoms: C_4  and  C_5
REMARK    3  A    between atoms: C_5  and  N_6
REMARK    4  A    between atoms: C_7  and  C_9
REMARK    5  A    between atoms: C_12  and  C_13
REMARK    6  A    between atoms: C_13  and  N_14
REMARK    7  A    between atoms: N_14  and  C_15
REMARK    8  A    between atoms: N_14  and  C_22
REMARK    9  A    between atoms: C_15  and  C_16
REMARK   10  A    between atoms: C_22  and  C_23
REMARK                            x       y       z     vdW  Elec       q    Type
REMARK                         _______ _______ _______ _____ _____    ______ ____
ROOT
ATOM      1  N   UNL     1       2.099  -0.031  -1.021  0.00  0.00    +0.000 NA
ENDROOT
BRANCH   1   2
ATOM      2  C   UNL     1       1.211  -1.110  -1.404  0.00  0.00    +0.000 C 
BRANCH   2   6
ATOM      3  C   UNL     1      -2.219  -1.321  -0.351  0.00  0.00    +0.000 A 
ATOM      4  C   UNL     1      -1.907  -0.141   0.297  0.00  0.00    +0.000 A 
ATOM      5  C   UNL     1      -0.589   0.104  -0.002  0.00  0.00    +0.000 A 
ATOM      6  C   UNL     1      -0.152  -0.921  -0.811  0.00  0.00    +0.000 A 
ATOM      7  O   UNL     1      -1.155  -1.744  -0.992  0.00  0.00    +0.000 OA
BRANCH   3   9
ATOM      8  N   UNL     1      -4.590  -1.434   0.397  0.00  0.00    +0.000 NA
ATOM      9  C   UNL     1      -3.520  -1.980  -0.324  0.00  0.00    +0.000 C 
ATOM     10  O   UNL     1      -3.699  -3.055  -0.952  0.00  0.00    +0.000 OA
BRANCH   8  11
ATOM     11  C   UNL     1      -5.912  -2.023   0.477  0.00  0.00    +0.000 C 
BRANCH  11  12
ATOM     12  C   UNL     1      -6.798  -1.171   1.330  0.00  0.00    +0.000 C 
BRANCH  12  14
ATOM     13  C   UNL     1      -7.569   0.176  -0.552  0.00  0.00    +0.000 C 
ATOM     14  C   UNL     1      -6.965   0.220   0.812  0.00  0.00    +0.000 C 
ATOM     15  C   UNL     1      -5.703   1.045   0.884  0.00  0.00    +0.000 C 
ENDBRANCH  12  14
ENDBRANCH  11  12
ENDBRANCH   8  11
ENDBRANCH   3   9
ENDBRANCH   2   6
ENDBRANCH   1   2
BRANCH   1  16
ATOM     16  C   UNL     1       2.219   0.000   0.417  0.00  0.00    +0.000 C 
BRANCH  16  17
ATOM     17  C   UNL     1       2.761  -1.254   0.942  0.00  0.00    +0.000 A 
ATOM     18  C   UNL     1       2.927  -1.357   2.316  0.00  0.00    +0.000 A 
ATOM     19  C   UNL     1       3.428  -2.490   2.911  0.00  0.00    +0.000 A 
ATOM     20  C   UNL     1       3.783  -3.572   2.147  0.00  0.00    +0.000 A 
ATOM     21  C   UNL     1       3.624  -3.487   0.771  0.00  0.00    +0.000 A 
ATOM     22  C   UNL     1       3.118  -2.340   0.172  0.00  0.00    +0.000 A 
ENDBRANCH  16  17
ENDBRANCH   1  16
BRANCH   1  23
ATOM     23  C   UNL     1       1.598   1.179  -1.577  0.00  0.00    +0.000 C 
BRANCH  23  24
ATOM     24  C   UNL     1       2.429   2.368  -1.252  0.00  0.00    +0.000 A 
ATOM     25  C   UNL     1       2.180   3.115  -0.118  0.00  0.00    +0.000 A 
ATOM     26  C   UNL     1       2.944   4.226   0.203  0.00  0.00    +0.000 A 
ATOM     27  C   UNL     1       3.984   4.627  -0.602  0.00  0.00    +0.000 A 
ATOM     28  F   UNL     1       4.753   5.710  -0.319  0.00  0.00    +0.000 F 
ATOM     29  C   UNL     1       4.248   3.890  -1.741  0.00  0.00    +0.000 A 
ATOM     30  C   UNL     1       3.473   2.771  -2.058  0.00  0.00    +0.000 A 
ENDBRANCH  23  24
ENDBRANCH   1  23
TORSDOF 10
