REMARK  Name = 
REMARK  8 active torsions:
REMARK  status: ('A' for Active; 'I' for Inactive)
REMARK    1  A    between atoms: C_2  and  C_3
REMARK    2  A    between atoms: C_3  and  O_4
REMARK    3  A    between atoms: O_4  and  C_5
REMARK    4  A    between atoms: C_5  and  C_7
REMARK    5  A    between atoms: N_10  and  C_11
REMARK    6  A    between atoms: C_11  and  C_12
REMARK    7  A    between atoms: C_12  and  C_13
REMARK    8  A    between atoms: C_16  and  O_17
REMARK                            x       y       z     vdW  Elec       q    Type
REMARK                         _______ _______ _______ _____ _____    ______ ____
ROOT
ATOM      1  C   UNL     1      -0.588   0.583  -0.910  0.00  0.00    +0.000 A 
ATOM      2  C   UNL     1       0.591   0.059  -1.371  0.00  0.00    +0.000 A 
ATOM      3  N   UNL     1       1.654   0.826  -1.898  0.00  0.00    +0.000 NA
ATOM      4  N   UNL     1       0.561  -1.262  -1.251  0.00  0.00    +0.000 N 
ATOM      5  C   UNL     1      -0.647  -1.590  -0.709  0.00  0.00    +0.000 A 
ATOM      6  N   UNL     1      -1.199  -2.773  -0.377  0.00  0.00    +0.000 NA
ATOM      7  C   UNL     1      -2.446  -2.855   0.163  0.00  0.00    +0.000 A 
ATOM      8  C   UNL     1      -3.008  -4.067   0.501  0.00  0.00    +0.000 A 
ATOM      9  C   UNL     1      -4.274  -4.177   1.051  0.00  0.00    +0.000 A 
ATOM     10  C   UNL     1      -5.008  -3.027   1.270  0.00  0.00    +0.000 A 
ATOM     11  C   UNL     1      -4.462  -1.787   0.936  0.00  0.00    +0.000 A 
ATOM     12  C   UNL     1      -3.186  -1.714   0.385  0.00  0.00    +0.000 A 
ATOM     13  N   UNL     1      -2.629  -0.531   0.051  0.00  0.00    +0.000 NA
ATOM     14  C   UNL     1      -1.395  -0.456  -0.482  0.00  0.00    +0.000 A 
ENDROOT
BRANCH   1  15
ATOM     15  C   UNL     1      -0.962   1.980  -0.867  0.00  0.00    +0.000 C 
ATOM     16  O   UNL     1      -0.160   2.856  -1.282  0.00  0.00    +0.000 OA
BRANCH  15  17
ATOM     17  O   UNL     1      -2.184   2.424  -0.383  0.00  0.00    +0.000 OA
BRANCH  17  18
ATOM     18  C   UNL     1      -2.599   3.753  -0.317  0.00  0.00    +0.000 C 
BRANCH  18  20
ATOM     19  C   UNL     1      -1.114   5.640  -0.015  0.00  0.00    +0.000 C 
ATOM     20  C   UNL     1      -1.726   4.597   0.517  0.00  0.00    +0.000 C 
ENDBRANCH  18  20
ENDBRANCH  17  18
ENDBRANCH  15  17
ENDBRANCH   1  15
BRANCH   4  21
ATOM     21  C   UNL     1       1.627  -2.166  -1.621  0.00  0.00    +0.000 C 
BRANCH  21  22
ATOM     22  C   UNL     1       2.499  -2.410  -0.433  0.00  0.00    +0.000 C 
BRANCH  22  23
ATOM     23  C   UNL     1       3.082  -1.144   0.054  0.00  0.00    +0.000 A 
ATOM     24  C   UNL     1       2.442  -0.392   1.029  0.00  0.00    +0.000 A 
ATOM     25  C   UNL     1       3.006   0.797   1.476  0.00  0.00    +0.000 A 
ATOM     26  C   UNL     1       4.201   1.275   0.985  0.00  0.00    +0.000 A 
ATOM     27  C   UNL     1       4.844   0.534   0.016  0.00  0.00    +0.000 A 
ATOM     28  C   UNL     1       4.284  -0.643  -0.426  0.00  0.00    +0.000 A 
BRANCH  26  29
ATOM     29  O   UNL     1       4.748   2.474   1.452  0.00  0.00    +0.000 OA
ATOM     30  C   UNL     1       4.047   3.197   2.448  0.00  0.00    +0.000 C 
ENDBRANCH  26  29
ENDBRANCH  22  23
ENDBRANCH  21  22
ENDBRANCH   4  21
TORSDOF 8
