REMARK  Name = 
REMARK  8 active torsions:
REMARK  status: ('A' for Active; 'I' for Inactive)
REMARK    1  A    between atoms: C_2  and  C_4
REMARK    2  A    between atoms: C_4  and  N_5
REMARK    3  A    between atoms: C_6  and  C_8
REMARK    4  A    between atoms: C_13  and  N_14
REMARK    5  A    between atoms: C_15  and  C_17
REMARK    6  A    between atoms: C_20  and  C_21
REMARK    7  A    between atoms: C_21  and  S_22
REMARK    8  A    between atoms: S_22  and  C_23
REMARK                            x       y       z     vdW  Elec       q    Type
REMARK                         _______ _______ _______ _____ _____    ______ ____
ROOT
ATOM      1  N   UNL     1      -1.448   1.103   0.238  0.00  0.00    +0.000 NA
ATOM      2  C   UNL     1      -0.115   1.463  -0.075  0.00  0.00    +0.000 C 
ATOM      3  O   UNL     1       0.182   2.683   0.031  0.00  0.00    +0.000 OA
ENDROOT
BRANCH   1   9
ATOM      4  C   UNL     1      -3.712   1.611   0.938  0.00  0.00    +0.000 A 
ATOM      5  C   UNL     1      -4.627   2.550   1.342  0.00  0.00    +0.000 A 
ATOM      6  C   UNL     1      -4.301   3.891   1.470  0.00  0.00    +0.000 A 
ATOM      7  C   UNL     1      -3.013   4.308   1.184  0.00  0.00    +0.000 A 
ATOM      8  C   UNL     1      -2.080   3.349   0.772  0.00  0.00    +0.000 A 
ATOM      9  C   UNL     1      -2.445   2.025   0.657  0.00  0.00    +0.000 A 
BRANCH   4  11
ATOM     10  N   UNL     1      -5.362  -0.269   1.083  0.00  0.00    +0.000 NA
ATOM     11  C   UNL     1      -4.054   0.191   0.798  0.00  0.00    +0.000 C 
ATOM     12  O   UNL     1      -3.209  -0.661   0.424  0.00  0.00    +0.000 OA
BRANCH  10  13
ATOM     13  C   UNL     1      -5.762  -1.653   0.965  0.00  0.00    +0.000 C 
BRANCH  13  15
ATOM     14  C   UNL     1      -6.039  -3.632  -0.437  0.00  0.00    +0.000 C 
ATOM     15  C   UNL     1      -5.593  -2.185  -0.435  0.00  0.00    +0.000 C 
ATOM     16  C   UNL     1      -6.542  -1.445  -1.367  0.00  0.00    +0.000 C 
ENDBRANCH  13  15
ENDBRANCH  10  13
ENDBRANCH   4  11
ENDBRANCH   1   9
BRANCH   2  17
ATOM     17  C   UNL     1       0.878   0.467  -0.503  0.00  0.00    +0.000 A 
ATOM     18  C   UNL     1       0.554  -0.868  -0.581  0.00  0.00    +0.000 A 
ATOM     19  C   UNL     1       1.469  -1.821  -0.978  0.00  0.00    +0.000 A 
ATOM     20  C   UNL     1       2.764  -1.478  -1.319  0.00  0.00    +0.000 A 
ATOM     21  C   UNL     1       3.086  -0.141  -1.240  0.00  0.00    +0.000 A 
ATOM     22  C   UNL     1       2.167   0.810  -0.842  0.00  0.00    +0.000 A 
BRANCH  20  23
ATOM     23  C   UNL     1       3.749  -2.522  -1.744  0.00  0.00    +0.000 C 
BRANCH  23  24
ATOM     24  S   UNL     1       4.647  -3.165  -0.288  0.00  0.00    +0.000 S 
BRANCH  24  25
ATOM     25  C   UNL     1       5.631  -1.791   0.320  0.00  0.00    +0.000 A 
ATOM     26  C   UNL     1       5.172  -0.887   1.242  0.00  0.00    +0.000 A 
ATOM     27  C   UNL     1       6.024   0.128   1.635  0.00  0.00    +0.000 A 
ATOM     28  C   UNL     1       7.303   0.259   1.135  0.00  0.00    +0.000 A 
ATOM     29  C   UNL     1       7.775  -0.660   0.196  0.00  0.00    +0.000 A 
ATOM     30  C   UNL     1       6.899  -1.657  -0.171  0.00  0.00    +0.000 A 
ENDBRANCH  24  25
ENDBRANCH  23  24
ENDBRANCH  20  23
ENDBRANCH   2  17
TORSDOF 8
