REMARK  Name = 
REMARK  9 active torsions:
REMARK  status: ('A' for Active; 'I' for Inactive)
REMARK    1  A    between atoms: N_2  and  O_3
REMARK    2  A    between atoms: O_3  and  C_4
REMARK    3  A    between atoms: C_4  and  C_6
REMARK    4  A    between atoms: C_6  and  C_7
REMARK    5  A    between atoms: C_6  and  C_14
REMARK    6  A    between atoms: C_7  and  C_8
REMARK    7  A    between atoms: C_17  and  O_18
REMARK    8  A    between atoms: O_18  and  C_19
REMARK    9  A    between atoms: C_19  and  C_20
REMARK                            x       y       z     vdW  Elec       q    Type
REMARK                         _______ _______ _______ _____ _____    ______ ____
ROOT
ATOM      1  C   UNL     1      -2.891  -0.578  -0.542  0.00  0.00    +0.000 A 
ATOM      2  C   UNL     1      -2.432  -1.863  -0.446  0.00  0.00    +0.000 A 
ATOM      3  C   UNL     1      -1.043  -1.997  -0.327  0.00  0.00    +0.000 A 
ATOM      4  C   UNL     1      -0.216  -0.885  -0.311  0.00  0.00    +0.000 A 
ATOM      5  C   UNL     1      -0.764   0.369  -0.413  0.00  0.00    +0.000 A 
ATOM      6  C   UNL     1      -2.146   0.523  -0.532  0.00  0.00    +0.000 A 
ENDROOT
BRANCH   1   7
ATOM      7  C   UNL     1      -4.497  -0.427  -0.682  0.00  0.00    +0.000 C 
BRANCH   7   8
ATOM      8  C   UNL     1      -4.430   0.519  -1.981  0.00  0.00    +0.000 C 
ATOM      9  O   UNL     1      -4.911   1.621  -1.994  0.00  0.00    +0.000 OA
BRANCH   8  10
ATOM     10  O   UNL     1      -3.781  -0.027  -3.075  0.00  0.00    +0.000 OA
BRANCH  10  12
ATOM     11  C   UNL     1      -3.722   2.155  -3.891  0.00  0.00    +0.000 C 
ATOM     12  N   UNL     1      -3.690   0.736  -4.221  0.00  0.00    +0.000 NA
ENDBRANCH  10  12
ENDBRANCH   8  10
ENDBRANCH   7   8
BRANCH   7  13
ATOM     13  C   UNL     1      -4.635   0.796   0.423  0.00  0.00    +0.000 C 
BRANCH  13  14
ATOM     14  C   UNL     1      -4.713   0.056   1.743  0.00  0.00    +0.000 C 
ATOM     15  C   UNL     1      -4.842   1.135   2.798  0.00  0.00    +0.000 C 
ATOM     16  C   UNL     1      -3.500   1.777   3.080  0.00  0.00    +0.000 C 
ATOM     17  C   UNL     1      -2.631   0.730   3.738  0.00  0.00    +0.000 C 
ATOM     18  C   UNL     1      -3.161  -0.670   3.493  0.00  0.00    +0.000 C 
ATOM     19  C   UNL     1      -3.504  -0.800   2.010  0.00  0.00    +0.000 C 
ENDBRANCH  13  14
ENDBRANCH   7  13
ENDBRANCH   1   7
BRANCH   4  20
ATOM     20  O   UNL     1       1.148  -0.987  -0.196  0.00  0.00    +0.000 OA
BRANCH  20  21
ATOM     21  C   UNL     1       1.920   0.191  -0.187  0.00  0.00    +0.000 C 
BRANCH  21  22
ATOM     22  C   UNL     1       3.343  -0.217  -0.053  0.00  0.00    +0.000 A 
ATOM     23  C   UNL     1       3.753  -1.532   0.041  0.00  0.00    +0.000 A 
ATOM     24  C   UNL     1       5.082  -1.883   0.165  0.00  0.00    +0.000 A 
ATOM     25  C   UNL     1       6.062  -0.901   0.200  0.00  0.00    +0.000 A 
ATOM     26  C   UNL     1       7.404  -1.216   0.323  0.00  0.00    +0.000 A 
ATOM     27  C   UNL     1       8.359  -0.222   0.355  0.00  0.00    +0.000 A 
ATOM     28  C   UNL     1       7.910   1.077   0.258  0.00  0.00    +0.000 A 
ATOM     29  C   UNL     1       6.591   1.402   0.136  0.00  0.00    +0.000 A 
ATOM     30  C   UNL     1       5.631   0.402   0.104  0.00  0.00    +0.000 A 
ATOM     31  N   UNL     1       4.307   0.718  -0.018  0.00  0.00    +0.000 NA
ENDBRANCH  21  22
ENDBRANCH  20  21
ENDBRANCH   4  20
TORSDOF 9
