REMARK  Name = 
REMARK  7 active torsions:
REMARK  status: ('A' for Active; 'I' for Inactive)
REMARK    1  A    between atoms: C_2  and  O_3
REMARK    2  A    between atoms: O_3  and  C_4
REMARK    3  A    between atoms: C_7  and  N_8
REMARK    4  A    between atoms: C_11  and  N_12
REMARK    5  A    between atoms: N_12  and  C_13
REMARK    6  A    between atoms: C_21  and  S_22
REMARK    7  A    between atoms: S_22  and  C_23
REMARK                            x       y       z     vdW  Elec       q    Type
REMARK                         _______ _______ _______ _____ _____    ______ ____
ROOT
ATOM      1  N   UNL     1       1.736  -0.650  -0.044  0.00  0.00    +0.000 N 
ATOM      2  C   UNL     1       0.669  -0.208   0.801  0.00  0.00    +0.000 C 
ATOM      3  O   UNL     1       0.830   0.490   1.835  0.00  0.00    +0.000 OA
ATOM      4  C   UNL     1      -0.607  -0.712   0.246  0.00  0.00    +0.000 C 
ATOM      5  C   UNL     1      -0.350  -1.404  -0.846  0.00  0.00    +0.000 C 
ATOM      6  C   UNL     1       1.088  -1.394  -1.066  0.00  0.00    +0.000 C 
ATOM      7  O   UNL     1       1.732  -1.943  -2.006  0.00  0.00    +0.000 OA
ENDROOT
BRANCH   1  11
ATOM      8  C   UNL     1       5.838   0.215   0.589  0.00  0.00    +0.000 A 
ATOM      9  C   UNL     1       4.843   0.762   1.375  0.00  0.00    +0.000 A 
ATOM     10  C   UNL     1       3.506   0.485   1.175  0.00  0.00    +0.000 A 
ATOM     11  C   UNL     1       3.114  -0.369   0.156  0.00  0.00    +0.000 A 
ATOM     12  C   UNL     1       4.084  -0.920  -0.633  0.00  0.00    +0.000 A 
ATOM     13  C   UNL     1       5.427  -0.634  -0.422  0.00  0.00    +0.000 A 
BRANCH   8  14
ATOM     14  O   UNL     1       7.146   0.542   0.854  0.00  0.00    +0.000 OA
BRANCH  14  16
ATOM     15  C   UNL     1       8.128   0.507  -1.290  0.00  0.00    +0.000 C 
ATOM     16  C   UNL     1       8.263   0.078   0.157  0.00  0.00    +0.000 C 
ENDBRANCH  14  16
ENDBRANCH   8  14
ENDBRANCH   1  11
BRANCH   4  17
ATOM     17  N   UNL     1      -1.842  -0.423   0.887  0.00  0.00    +0.000 NA
BRANCH  17  18
ATOM     18  C   UNL     1      -2.356   0.925   0.884  0.00  0.00    +0.000 A 
ATOM     19  C   UNL     1      -1.621   1.910   0.230  0.00  0.00    +0.000 A 
ATOM     20  C   UNL     1      -2.106   3.198   0.221  0.00  0.00    +0.000 A 
ATOM     21  C   UNL     1      -3.297   3.530   0.841  0.00  0.00    +0.000 A 
ATOM     22  C   UNL     1      -3.759   4.945   0.790  0.00  0.00    +0.000 C 
ATOM     23  C   UNL     1      -3.976   2.527   1.466  0.00  0.00    +0.000 A 
ATOM     24  C   UNL     1      -3.532   1.223   1.503  0.00  0.00    +0.000 A 
ATOM     25  C   UNL     1      -4.309   0.148   2.205  0.00  0.00    +0.000 C 
ENDBRANCH  17  18
ENDBRANCH   4  17
BRANCH   5  26
ATOM     26  S   UNL     1      -1.557  -2.211  -1.874  0.00  0.00    +0.000 S 
BRANCH  26  27
ATOM     27  C   UNL     1      -3.210  -1.975  -1.250  0.00  0.00    +0.000 A 
ATOM     28  C   UNL     1      -3.771  -2.853  -0.355  0.00  0.00    +0.000 A 
ATOM     29  C   UNL     1      -5.064  -2.649   0.113  0.00  0.00    +0.000 A 
ATOM     30  C   UNL     1      -5.812  -1.570  -0.305  0.00  0.00    +0.000 A 
ATOM     31  C   UNL     1      -5.260  -0.670  -1.212  0.00  0.00    +0.000 A 
ATOM     32  C   UNL     1      -3.976  -0.902  -1.655  0.00  0.00    +0.000 A 
ENDBRANCH  26  27
ENDBRANCH   5  26
TORSDOF 7
