REMARK  Name = 
REMARK  8 active torsions:
REMARK  status: ('A' for Active; 'I' for Inactive)
REMARK    1  A    between atoms: C_5  and  N_6
REMARK    2  A    between atoms: C_7  and  C_9
REMARK    3  A    between atoms: C_9  and  C_10
REMARK    4  A    between atoms: C_9  and  N_17
REMARK    5  A    between atoms: C_10  and  C_11
REMARK    6  A    between atoms: C_18  and  O_20
REMARK    7  A    between atoms: O_20  and  C_21
REMARK    8  A    between atoms: C_21  and  C_22
REMARK                            x       y       z     vdW  Elec       q    Type
REMARK                         _______ _______ _______ _____ _____    ______ ____
ROOT
ATOM      1  C   UNL     1      -1.111   1.592   0.459  0.00  0.00    +0.000 C 
ENDROOT
BRANCH   1   3
ATOM      2  N   UNL     1      -2.176  -0.644  -0.290  0.00  0.00    +0.000 NA
ATOM      3  C   UNL     1      -1.999   0.306   0.719  0.00  0.00    +0.000 C 
ATOM      4  O   UNL     1      -2.500   0.203   1.865  0.00  0.00    +0.000 OA
BRANCH   2   9
ATOM      5  C   UNL     1      -6.118  -4.549   0.695  0.00  0.00    +0.000 C 
ATOM      6  C   UNL     1      -5.064  -3.524   0.478  0.00  0.00    +0.000 A 
ATOM      7  C   UNL     1      -5.238  -2.264   0.902  0.00  0.00    +0.000 A 
ATOM      8  C   UNL     1      -4.233  -1.294   0.699  0.00  0.00    +0.000 A 
ATOM      9  C   UNL     1      -3.037  -1.751   0.014  0.00  0.00    +0.000 A 
ATOM     10  C   UNL     1      -2.950  -3.014  -0.368  0.00  0.00    +0.000 A 
ATOM     11  C   UNL     1      -1.631  -3.422  -1.019  0.00  0.00    +0.000 C 
ATOM     12  C   UNL     1      -3.913  -4.030  -0.195  0.00  0.00    +0.000 A 
ENDBRANCH   2   9
ENDBRANCH   1   3
BRANCH   1  13
ATOM     13  N   UNL     1       0.218   0.895   0.309  0.00  0.00    +0.000 NA
ATOM     14  C   UNL     1       1.273   0.964   1.223  0.00  0.00    +0.000 C 
ATOM     15  O   UNL     1       1.209   1.616   2.301  0.00  0.00    +0.000 OA
BRANCH  14  16
ATOM     16  O   UNL     1       2.455   0.285   0.927  0.00  0.00    +0.000 OA
BRANCH  16  17
ATOM     17  C   UNL     1       3.614   0.207   1.662  0.00  0.00    +0.000 C 
BRANCH  17  18
ATOM     18  C   UNL     1       4.565  -0.629   0.861  0.00  0.00    +0.000 A 
ATOM     19  C   UNL     1       5.894  -0.459   0.933  0.00  0.00    +0.000 A 
ATOM     20  C   UNL     1       6.726  -1.260   0.150  0.00  0.00    +0.000 A 
ATOM     21  C   UNL     1       6.226  -2.233  -0.692  0.00  0.00    +0.000 A 
ATOM     22  C   UNL     1       4.848  -2.371  -0.730  0.00  0.00    +0.000 A 
ATOM     23  C   UNL     1       4.012  -1.593   0.025  0.00  0.00    +0.000 A 
ENDBRANCH  17  18
ENDBRANCH  16  17
ENDBRANCH  14  16
ENDBRANCH   1  13
BRANCH   1  24
ATOM     24  C   UNL     1      -1.447   1.797  -1.132  0.00  0.00    +0.000 C 
BRANCH  24  25
ATOM     25  C   UNL     1      -0.628   3.017  -1.372  0.00  0.00    +0.000 A 
ATOM     26  C   UNL     1      -1.202   4.246  -1.037  0.00  0.00    +0.000 A 
ATOM     27  C   UNL     1      -0.497   5.406  -1.234  0.00  0.00    +0.000 A 
ATOM     28  C   UNL     1       0.754   5.358  -1.760  0.00  0.00    +0.000 A 
ATOM     29  C   UNL     1       1.339   4.167  -2.094  0.00  0.00    +0.000 A 
ATOM     30  C   UNL     1       0.616   2.976  -1.891  0.00  0.00    +0.000 A 
ENDBRANCH  24  25
ENDBRANCH   1  24
TORSDOF 8
