REMARK  Name = 
REMARK  9 active torsions:
REMARK  status: ('A' for Active; 'I' for Inactive)
REMARK    1  A    between atoms: C_2  and  C_3
REMARK    2  A    between atoms: C_7  and  C_8
REMARK    3  A    between atoms: C_10  and  N_11
REMARK    4  A    between atoms: C_12  and  C_14
REMARK    5  A    between atoms: C_14  and  O_15
REMARK    6  A    between atoms: O_15  and  C_16
REMARK    7  A    between atoms: C_16  and  C_18
REMARK    8  A    between atoms: C_23  and  C_24
REMARK    9  A    between atoms: C_24  and  C_25
REMARK                            x       y       z     vdW  Elec       q    Type
REMARK                         _______ _______ _______ _____ _____    ______ ____
ROOT
ATOM      1  O   UNL     1       0.993   0.187  -1.730  0.00  0.00    +0.000 OA
ENDROOT
BRANCH   1   2
ATOM      2  C   UNL     1       0.464  -1.044  -1.520  0.00  0.00    +0.000 C 
ATOM      3  O   UNL     1      -0.756  -1.204  -1.834  0.00  0.00    +0.000 OA
BRANCH   2   4
ATOM      4  C   UNL     1       1.189  -2.189  -0.971  0.00  0.00    +0.000 A 
ATOM      5  C   UNL     1       0.491  -3.381  -0.799  0.00  0.00    +0.000 A 
ATOM      6  C   UNL     1       1.122  -4.504  -0.355  0.00  0.00    +0.000 A 
ATOM      7  C   UNL     1       2.460  -4.487  -0.068  0.00  0.00    +0.000 A 
ATOM      8  C   UNL     1       3.172  -3.335  -0.225  0.00  0.00    +0.000 A 
ATOM      9  C   UNL     1       2.510  -2.175  -0.684  0.00  0.00    +0.000 A 
BRANCH   9  10
ATOM     10  C   UNL     1       3.325  -0.939  -0.756  0.00  0.00    +0.000 C 
BRANCH  10  11
ATOM     11  C   UNL     1       3.292  -0.257   0.559  0.00  0.00    +0.000 A 
ATOM     12  C   UNL     1       2.505   0.797   0.895  0.00  0.00    +0.000 A 
ATOM     13  C   UNL     1       2.546   1.377   2.143  0.00  0.00    +0.000 A 
ATOM     14  C   UNL     1       3.387   0.928   3.136  0.00  0.00    +0.000 A 
ATOM     15  C   UNL     1       4.200  -0.143   2.826  0.00  0.00    +0.000 A 
ATOM     16  C   UNL     1       4.151  -0.711   1.584  0.00  0.00    +0.000 A 
ENDBRANCH  10  11
ENDBRANCH   9  10
ENDBRANCH   2   4
ENDBRANCH   1   2
BRANCH   1  17
ATOM     17  C   UNL     1       0.236   1.221  -2.279  0.00  0.00    +0.000 C 
BRANCH  17  19
ATOM     18  N   UNL     1      -1.322   0.916  -0.244  0.00  0.00    +0.000 NA
ATOM     19  C   UNL     1      -0.943   1.528  -1.475  0.00  0.00    +0.000 C 
ATOM     20  O   UNL     1      -1.696   2.460  -1.969  0.00  0.00    +0.000 OA
BRANCH  18  26
ATOM     21  C   UNL     1      -3.711   0.782   0.024  0.00  0.00    +0.000 A 
ATOM     22  C   UNL     1      -4.926   1.268   0.527  0.00  0.00    +0.000 A 
ATOM     23  C   UNL     1      -4.944   2.386   1.324  0.00  0.00    +0.000 A 
ATOM     24  C   UNL     1      -3.763   3.026   1.625  0.00  0.00    +0.000 A 
ATOM     25  C   UNL     1      -2.551   2.539   1.122  0.00  0.00    +0.000 A 
ATOM     26  C   UNL     1      -2.539   1.419   0.323  0.00  0.00    +0.000 A 
BRANCH  21  28
ATOM     27  C   UNL     1      -3.271  -1.585   0.112  0.00  0.00    +0.000 C 
ATOM     28  C   UNL     1      -3.718  -0.442  -0.813  0.00  0.00    +0.000 C 
ENDBRANCH  21  28
BRANCH  25  29
ATOM     29  C   UNL     1      -1.272   3.216   1.455  0.00  0.00    +0.000 C 
ATOM     30  C   UNL     1      -0.634   2.346   2.548  0.00  0.00    +0.000 C 
ENDBRANCH  25  29
ENDBRANCH  18  26
ENDBRANCH  17  19
ENDBRANCH   1  17
TORSDOF 9
