REMARK  Name = 
REMARK  8 active torsions:
REMARK  status: ('A' for Active; 'I' for Inactive)
REMARK    1  A    between atoms: C_2  and  C_3
REMARK    2  A    between atoms: C_3  and  N_4
REMARK    3  A    between atoms: C_5  and  C_7
REMARK    4  A    between atoms: C_7  and  N_22
REMARK    5  A    between atoms: C_8  and  C_9
REMARK    6  A    between atoms: C_12  and  O_13
REMARK    7  A    between atoms: O_13  and  C_14
REMARK    8  A    between atoms: C_23  and  C_25
REMARK                            x       y       z     vdW  Elec       q    Type
REMARK                         _______ _______ _______ _____ _____    ______ ____
ROOT
ATOM      1  C   UNL     1      -1.287   0.451  -0.919  0.00  0.00    +0.000 C 
ATOM      2  C   UNL     1      -0.160   0.969  -1.321  0.00  0.00    +0.000 C 
ENDROOT
BRANCH   2   3
ATOM      3  C   UNL     1       1.146   0.629  -0.776  0.00  0.00    +0.000 A 
ATOM      4  C   UNL     1       1.329   0.364   0.565  0.00  0.00    +0.000 A 
ATOM      5  C   UNL     1       2.576   0.043   1.072  0.00  0.00    +0.000 A 
ATOM      6  C   UNL     1       3.622   0.000   0.174  0.00  0.00    +0.000 A 
ATOM      7  C   UNL     1       3.450   0.265  -1.181  0.00  0.00    +0.000 A 
ATOM      8  C   UNL     1       4.523   0.213  -2.057  0.00  0.00    +0.000 A 
ATOM      9  C   UNL     1       4.310   0.480  -3.382  0.00  0.00    +0.000 A 
ATOM     10  C   UNL     1       3.056   0.800  -3.876  0.00  0.00    +0.000 A 
ATOM     11  C   UNL     1       2.015   0.842  -2.978  0.00  0.00    +0.000 A 
ATOM     12  C   UNL     1       2.216   0.578  -1.655  0.00  0.00    +0.000 A 
BRANCH   6  13
ATOM     13  O   UNL     1       4.922  -0.312   0.566  0.00  0.00    +0.000 OA
BRANCH  13  14
ATOM     14  C   UNL     1       5.204  -0.594   1.907  0.00  0.00    +0.000 C 
ATOM     15  C   UNL     1       4.405  -1.790   2.375  0.00  0.00    +0.000 C 
ENDBRANCH  13  14
ENDBRANCH   6  13
ENDBRANCH   2   3
BRANCH   1  17
ATOM     16  N   UNL     1      -2.609   1.831  -2.582  0.00  0.00    +0.000 NA
ATOM     17  C   UNL     1      -2.529   0.877  -1.548  0.00  0.00    +0.000 C 
ATOM     18  O   UNL     1      -3.630   0.372  -1.157  0.00  0.00    +0.000 OA
BRANCH  16  19
ATOM     19  C   UNL     1      -3.893   2.214  -3.169  0.00  0.00    +0.000 C 
BRANCH  19  21
ATOM     20  C   UNL     1      -5.894   2.259  -1.714  0.00  0.00    +0.000 C 
ATOM     21  C   UNL     1      -4.729   2.777  -2.073  0.00  0.00    +0.000 C 
ENDBRANCH  19  21
ENDBRANCH  16  19
ENDBRANCH   1  17
BRANCH   1  22
ATOM     22  N   UNL     1      -1.289  -0.507   0.109  0.00  0.00    +0.000 NA
ATOM     23  C   UNL     1      -1.979  -0.311   1.335  0.00  0.00    +0.000 C 
ATOM     24  O   UNL     1      -2.601   0.775   1.464  0.00  0.00    +0.000 OA
BRANCH  23  25
ATOM     25  C   UNL     1      -1.987  -1.298   2.409  0.00  0.00    +0.000 A 
ATOM     26  C   UNL     1      -1.337  -2.505   2.300  0.00  0.00    +0.000 A 
ATOM     27  C   UNL     1      -1.392  -3.386   3.364  0.00  0.00    +0.000 A 
ATOM     28  C   UNL     1      -2.070  -3.113   4.533  0.00  0.00    +0.000 A 
ATOM     29  C   UNL     1      -2.717  -1.904   4.633  0.00  0.00    +0.000 A 
ATOM     30  C   UNL     1      -2.669  -1.019   3.581  0.00  0.00    +0.000 A 
ENDBRANCH  23  25
ENDBRANCH   1  22
TORSDOF 8
