REMARK  Name = 
REMARK  8 active torsions:
REMARK  status: ('A' for Active; 'I' for Inactive)
REMARK    1  A    between atoms: O_2  and  C_3
REMARK    2  A    between atoms: C_9  and  C_10
REMARK    3  A    between atoms: N_12  and  C_13
REMARK    4  A    between atoms: C_13  and  C_15
REMARK    5  A    between atoms: C_15  and  C_16
REMARK    6  A    between atoms: C_16  and  C_17
REMARK    7  A    between atoms: N_25  and  C_26
REMARK    8  A    between atoms: C_26  and  C_27
REMARK                            x       y       z     vdW  Elec       q    Type
REMARK                         _______ _______ _______ _____ _____    ______ ____
ROOT
ATOM      1  C   UNL     1      -0.619  -3.851  -1.468  0.00  0.00    +0.000 A 
ATOM      2  C   UNL     1      -1.996  -3.825  -1.388  0.00  0.00    +0.000 A 
ATOM      3  C   UNL     1      -2.573  -2.833  -0.627  0.00  0.00    +0.000 A 
ATOM      4  C   UNL     1      -1.811  -1.872   0.050  0.00  0.00    +0.000 A 
ATOM      5  C   UNL     1      -0.443  -1.919  -0.046  0.00  0.00    +0.000 A 
ATOM      6  C   UNL     1       0.139  -2.910  -0.804  0.00  0.00    +0.000 A 
ATOM      7  C   UNL     1       0.105  -0.888   0.689  0.00  0.00    +0.000 A 
ATOM      8  C   UNL     1      -0.973  -0.236   1.219  0.00  0.00    +0.000 A 
ATOM      9  C   UNL     1      -0.806   0.977   2.101  0.00  0.00    +0.000 C 
ATOM     10  N   UNL     1      -2.108  -0.826   0.837  0.00  0.00    +0.000 N 
ENDROOT
BRANCH   7  11
ATOM     11  C   UNL     1       1.546  -0.597   0.841  0.00  0.00    +0.000 C 
ATOM     12  O   UNL     1       1.894   0.399   1.502  0.00  0.00    +0.000 OA
ATOM     13  N   UNL     1       2.497  -1.419   0.258  0.00  0.00    +0.000 NA
BRANCH  13  14
ATOM     14  C   UNL     1       4.015  -1.165   0.379  0.00  0.00    +0.000 C 
ATOM     15  C   UNL     1       3.954   0.213  -0.559  0.00  0.00    +0.000 C 
BRANCH  14  16
ATOM     16  C   UNL     1       3.955  -0.393   1.808  0.00  0.00    +0.000 C 
BRANCH  16  17
ATOM     17  C   UNL     1       5.284  -0.014   2.275  0.00  0.00    +0.000 C 
BRANCH  17  18
ATOM     18  C   UNL     1       5.899   0.879   1.265  0.00  0.00    +0.000 A 
ATOM     19  C   UNL     1       6.665   0.380   0.241  0.00  0.00    +0.000 A 
ATOM     20  C   UNL     1       7.241   1.206  -0.694  0.00  0.00    +0.000 A 
ATOM     21  C   UNL     1       7.089   2.555  -0.663  0.00  0.00    +0.000 A 
ATOM     22  C   UNL     1       6.322   3.065   0.361  0.00  0.00    +0.000 A 
ATOM     23  C   UNL     1       5.728   2.248   1.321  0.00  0.00    +0.000 A 
ENDBRANCH  17  18
ENDBRANCH  16  17
ENDBRANCH  14  16
ENDBRANCH  13  14
ENDBRANCH   7  11
BRANCH   1  25
ATOM     24  C   UNL     1      -0.746  -5.797  -2.904  0.00  0.00    +0.000 C 
ATOM     25  O   UNL     1       0.015  -4.827  -2.220  0.00  0.00    +0.000 OA
ENDBRANCH   1  25
BRANCH  10  26
ATOM     26  C   UNL     1      -3.411  -0.436   1.205  0.00  0.00    +0.000 C 
BRANCH  26  27
ATOM     27  C   UNL     1      -4.114   0.549   0.405  0.00  0.00    +0.000 A 
ATOM     28  C   UNL     1      -4.561   0.356  -0.896  0.00  0.00    +0.000 A 
ATOM     29  C   UNL     1      -5.263   1.361  -1.525  0.00  0.00    +0.000 A 
ATOM     30  C   UNL     1      -5.561   2.570  -0.942  0.00  0.00    +0.000 A 
ATOM     31  C   UNL     1      -5.124   2.775   0.346  0.00  0.00    +0.000 A 
ATOM     32  C   UNL     1      -4.410   1.757   0.990  0.00  0.00    +0.000 A 
ATOM     33  O   UNL     1      -5.528   4.044   0.736  0.00  0.00    +0.000 OA
ATOM     34  C   UNL     1      -6.074   4.754  -0.363  0.00  0.00    +0.000 C 
ATOM     35  O   UNL     1      -6.225   3.722  -1.317  0.00  0.00    +0.000 OA
ENDBRANCH  26  27
ENDBRANCH  10  26
TORSDOF 8
