REMARK  Name = 
REMARK  8 active torsions:
REMARK  status: ('A' for Active; 'I' for Inactive)
REMARK    1  A    between atoms: C_2  and  O_3
REMARK    2  A    between atoms: O_3  and  C_4
REMARK    3  A    between atoms: C_7  and  N_8
REMARK    4  A    between atoms: C_11  and  N_12
REMARK    5  A    between atoms: N_12  and  C_13
REMARK    6  A    between atoms: C_16  and  C_17
REMARK    7  A    between atoms: C_21  and  S_22
REMARK    8  A    between atoms: S_22  and  C_23
REMARK                            x       y       z     vdW  Elec       q    Type
REMARK                         _______ _______ _______ _____ _____    ______ ____
ROOT
ATOM      1  N   UNL     1       1.126  -0.235  -1.245  0.00  0.00    +0.000 N 
ATOM      2  C   UNL     1       0.131  -1.151  -1.720  0.00  0.00    +0.000 C 
ATOM      3  O   UNL     1       0.418  -2.163  -2.416  0.00  0.00    +0.000 OA
ATOM      4  C   UNL     1      -1.150  -0.686  -1.258  0.00  0.00    +0.000 C 
ATOM      5  C   UNL     1      -1.021   0.420  -0.552  0.00  0.00    +0.000 C 
ATOM      6  C   UNL     1       0.392   0.738  -0.519  0.00  0.00    +0.000 C 
ATOM      7  O   UNL     1       0.903   1.728   0.064  0.00  0.00    +0.000 OA
ENDROOT
BRANCH   1  11
ATOM      8  C   UNL     1       5.255  -0.495  -1.977  0.00  0.00    +0.000 A 
ATOM      9  C   UNL     1       4.776  -0.431  -0.665  0.00  0.00    +0.000 A 
ATOM     10  C   UNL     1       3.404  -0.344  -0.425  0.00  0.00    +0.000 A 
ATOM     11  C   UNL     1       2.523  -0.322  -1.475  0.00  0.00    +0.000 A 
ATOM     12  C   UNL     1       3.014  -0.387  -2.757  0.00  0.00    +0.000 A 
ATOM     13  C   UNL     1       4.376  -0.473  -3.023  0.00  0.00    +0.000 A 
BRANCH   8  14
ATOM     14  O   UNL     1       6.622  -0.581  -2.194  0.00  0.00    +0.000 OA
BRANCH  14  16
ATOM     15  C   UNL     1       7.199  -1.810  -0.251  0.00  0.00    +0.000 C 
ATOM     16  C   UNL     1       7.521  -0.603  -1.110  0.00  0.00    +0.000 C 
ENDBRANCH  14  16
ENDBRANCH   8  14
ENDBRANCH   1  11
BRANCH   4  17
ATOM     17  N   UNL     1      -2.397  -1.335  -1.527  0.00  0.00    +0.000 NA
BRANCH  17  18
ATOM     18  C   UNL     1      -3.157  -1.847  -0.458  0.00  0.00    +0.000 A 
ATOM     19  C   UNL     1      -4.374  -2.478  -0.674  0.00  0.00    +0.000 A 
ATOM     20  C   UNL     1      -5.093  -2.968   0.394  0.00  0.00    +0.000 A 
ATOM     21  C   UNL     1      -4.658  -2.863   1.701  0.00  0.00    +0.000 A 
ATOM     22  C   UNL     1      -3.438  -2.228   1.904  0.00  0.00    +0.000 A 
ATOM     23  C   UNL     1      -2.716  -1.737   0.839  0.00  0.00    +0.000 A 
BRANCH  21  24
ATOM     24  C   UNL     1      -5.469  -3.408   2.828  0.00  0.00    +0.000 C 
ATOM     25  C   UNL     1      -5.091  -4.853   3.109  0.00  0.00    +0.000 C 
ENDBRANCH  21  24
ENDBRANCH  17  18
ENDBRANCH   4  17
BRANCH   5  26
ATOM     26  S   UNL     1      -2.360   1.357   0.226  0.00  0.00    +0.000 S 
BRANCH  26  27
ATOM     27  C   UNL     1      -1.659   2.757   1.060  0.00  0.00    +0.000 A 
ATOM     28  C   UNL     1      -1.274   2.632   2.373  0.00  0.00    +0.000 A 
ATOM     29  C   UNL     1      -0.725   3.734   3.030  0.00  0.00    +0.000 A 
ATOM     30  C   UNL     1      -0.589   4.908   2.335  0.00  0.00    +0.000 A 
ATOM     31  C   UNL     1      -0.008   6.125   2.982  0.00  0.00    +0.000 C 
ATOM     32  C   UNL     1      -0.967   5.056   1.021  0.00  0.00    +0.000 A 
ATOM     33  C   UNL     1      -1.514   3.943   0.382  0.00  0.00    +0.000 A 
ENDBRANCH  26  27
ENDBRANCH   5  26
TORSDOF 8
