REMARK  Name = 
REMARK  6 active torsions:
REMARK  status: ('A' for Active; 'I' for Inactive)
REMARK    1  A    between atoms: C_2  and  O_3
REMARK    2  A    between atoms: O_3  and  C_4
REMARK    3  A    between atoms: C_7  and  C_8
REMARK    4  A    between atoms: C_18  and  O_19
REMARK    5  A    between atoms: O_19  and  C_20
REMARK    6  A    between atoms: C_20  and  C_21
REMARK                            x       y       z     vdW  Elec       q    Type
REMARK                         _______ _______ _______ _____ _____    ______ ____
ROOT
ATOM      1  C   UNL     1       2.624  -2.358   0.062  0.00  0.00    +0.000 C 
ATOM      2  N   UNL     1       2.528  -2.090   1.627  0.00  0.00    +0.000 NA
ATOM      3  C   UNL     1       1.444  -2.937   2.042  0.00  0.00    +0.000 C 
ATOM      4  C   UNL     1       0.172  -2.145   1.777  0.00  0.00    +0.000 C 
ATOM      5  C   UNL     1       0.303  -1.429   0.456  0.00  0.00    +0.000 A 
ATOM      6  C   UNL     1       1.384  -1.502  -0.336  0.00  0.00    +0.000 A 
ATOM      7  N   UNL     1       1.180  -0.771  -1.403  0.00  0.00    +0.000 NA
ATOM      8  C   UNL     1      -0.052  -0.182  -1.358  0.00  0.00    +0.000 A 
ATOM      9  C   UNL     1      -0.767   0.660  -2.181  0.00  0.00    +0.000 A 
ATOM     10  C   UNL     1      -2.032   1.102  -1.858  0.00  0.00    +0.000 A 
ATOM     11  C   UNL     1      -2.607   0.693  -0.679  0.00  0.00    +0.000 A 
ATOM     12  C   UNL     1      -1.884  -0.148   0.134  0.00  0.00    +0.000 A 
ATOM     13  C   UNL     1      -0.628  -0.607  -0.150  0.00  0.00    +0.000 A 
ENDROOT
BRANCH   1  17
ATOM     14  C   UNL     1       5.868   0.407  -0.852  0.00  0.00    +0.000 A 
ATOM     15  C   UNL     1       5.844  -0.873  -1.357  0.00  0.00    +0.000 A 
ATOM     16  C   UNL     1       4.784  -1.740  -1.042  0.00  0.00    +0.000 A 
ATOM     17  C   UNL     1       3.769  -1.288  -0.223  0.00  0.00    +0.000 A 
ATOM     18  C   UNL     1       3.805  -0.060   0.254  0.00  0.00    +0.000 A 
ATOM     19  C   UNL     1       4.835   0.797  -0.045  0.00  0.00    +0.000 A 
BRANCH  14  20
ATOM     20  O   UNL     1       6.930   1.273  -1.167  0.00  0.00    +0.000 OA
BRANCH  20  22
ATOM     21  C   UNL     1       5.843   3.398  -1.155  0.00  0.00    +0.000 C 
ATOM     22  C   UNL     1       7.032   2.577  -0.702  0.00  0.00    +0.000 C 
ENDBRANCH  20  22
ENDBRANCH  14  20
ENDBRANCH   1  17
BRANCH  11  23
ATOM     23  O   UNL     1      -3.870   1.083  -0.271  0.00  0.00    +0.000 OA
BRANCH  23  24
ATOM     24  C   UNL     1      -4.417   0.634   0.954  0.00  0.00    +0.000 C 
BRANCH  24  25
ATOM     25  C   UNL     1      -5.758   1.215   1.104  0.00  0.00    +0.000 A 
ATOM     26  C   UNL     1      -6.837   0.538   0.617  0.00  0.00    +0.000 A 
ATOM     27  C   UNL     1      -8.098   1.105   0.769  0.00  0.00    +0.000 A 
ATOM     28  C   UNL     1      -8.272   2.309   1.388  0.00  0.00    +0.000 A 
ATOM     29  C   UNL     1      -7.187   2.982   1.874  0.00  0.00    +0.000 A 
ATOM     30  C   UNL     1      -5.937   2.415   1.720  0.00  0.00    +0.000 A 
ENDBRANCH  24  25
ENDBRANCH  23  24
ENDBRANCH  11  23
TORSDOF 6
