REMARK  Name = 
REMARK  8 active torsions:
REMARK  status: ('A' for Active; 'I' for Inactive)
REMARK    1  A    between atoms: O_2  and  C_3
REMARK    2  A    between atoms: C_6  and  N_7
REMARK    3  A    between atoms: C_8  and  C_10
REMARK    4  A    between atoms: C_10  and  S_11
REMARK    5  A    between atoms: S_11  and  C_12
REMARK    6  A    between atoms: N_14  and  C_15
REMARK    7  A    between atoms: C_15  and  C_16
REMARK    8  A    between atoms: C_29  and  O_30
REMARK                            x       y       z     vdW  Elec       q    Type
REMARK                         _______ _______ _______ _____ _____    ______ ____
ROOT
ATOM      1  C   UNL     1       1.769  -1.773  -0.902  0.00  0.00    +0.000 A 
ATOM      2  C   UNL     1       2.764  -0.979  -1.416  0.00  0.00    +0.000 A 
ATOM      3  N   UNL     1       3.674  -0.644  -0.452  0.00  0.00    +0.000 N 
ATOM      4  C   UNL     1       3.251  -1.228   0.661  0.00  0.00    +0.000 A 
ATOM      5  C   UNL     1       3.759  -1.273   1.943  0.00  0.00    +0.000 A 
ATOM      6  C   UNL     1       3.163  -1.967   2.964  0.00  0.00    +0.000 A 
ATOM      7  C   UNL     1       1.978  -2.669   2.703  0.00  0.00    +0.000 A 
ATOM      8  C   UNL     1       1.458  -2.642   1.446  0.00  0.00    +0.000 A 
ATOM      9  C   UNL     1       2.076  -1.939   0.443  0.00  0.00    +0.000 A 
ENDROOT
BRANCH   1  10
ATOM     10  S   UNL     1       0.421  -2.521  -1.776  0.00  0.00    +0.000 S 
BRANCH  10  11
ATOM     11  C   UNL     1      -0.856  -3.163  -0.705  0.00  0.00    +0.000 C 
BRANCH  11  13
ATOM     12  N   UNL     1      -2.821  -1.580  -0.847  0.00  0.00    +0.000 NA
ATOM     13  C   UNL     1      -1.726  -2.080  -0.104  0.00  0.00    +0.000 C 
ATOM     14  O   UNL     1      -1.508  -1.616   1.026  0.00  0.00    +0.000 OA
BRANCH  12  18
ATOM     15  C   UNL     1      -5.475   1.364   0.485  0.00  0.00    +0.000 A 
ATOM     16  C   UNL     1      -4.452   0.968   1.288  0.00  0.00    +0.000 A 
ATOM     17  C   UNL     1      -3.524  -0.002   0.917  0.00  0.00    +0.000 A 
ATOM     18  C   UNL     1      -3.667  -0.583  -0.339  0.00  0.00    +0.000 A 
ATOM     19  C   UNL     1      -4.715  -0.190  -1.188  0.00  0.00    +0.000 A 
ATOM     20  C   UNL     1      -5.597   0.765  -0.776  0.00  0.00    +0.000 A 
BRANCH  15  22
ATOM     21  C   UNL     1      -6.455   3.029   2.038  0.00  0.00    +0.000 C 
ATOM     22  O   UNL     1      -6.429   2.329   0.812  0.00  0.00    +0.000 OA
ENDBRANCH  15  22
BRANCH  19  23
ATOM     23  O   UNL     1      -4.804  -0.806  -2.432  0.00  0.00    +0.000 OA
ATOM     24  C   UNL     1      -5.867  -0.406  -3.293  0.00  0.00    +0.000 C 
ENDBRANCH  19  23
ENDBRANCH  12  18
ENDBRANCH  11  13
ENDBRANCH  10  11
ENDBRANCH   1  10
BRANCH   3  25
ATOM     25  C   UNL     1       4.836   0.219  -0.728  0.00  0.00    +0.000 C 
BRANCH  25  26
ATOM     26  C   UNL     1       4.431   1.630  -0.570  0.00  0.00    +0.000 A 
ATOM     27  C   UNL     1       3.932   2.280  -1.717  0.00  0.00    +0.000 A 
ATOM     28  C   UNL     1       3.477   3.560  -1.636  0.00  0.00    +0.000 A 
ATOM     29  C   UNL     1       3.491   4.243  -0.452  0.00  0.00    +0.000 A 
ATOM     30  C   UNL     1       3.976   3.623   0.678  0.00  0.00    +0.000 A 
ATOM     31  C   UNL     1       4.437   2.327   0.588  0.00  0.00    +0.000 A 
ATOM     32  C   UNL     1       5.002   1.720   1.843  0.00  0.00    +0.000 C 
ENDBRANCH  25  26
ENDBRANCH   3  25
TORSDOF 8
