REMARK  Name = 
REMARK  8 active torsions:
REMARK  status: ('A' for Active; 'I' for Inactive)
REMARK    1  A    between atoms: C_2  and  C_3
REMARK    2  A    between atoms: C_3  and  O_4
REMARK    3  A    between atoms: C_3  and  C_26
REMARK    4  A    between atoms: O_4  and  C_5
REMARK    5  A    between atoms: C_5  and  C_7
REMARK    6  A    between atoms: C_9  and  C_10
REMARK    7  A    between atoms: C_13  and  C_14
REMARK    8  A    between atoms: C_26  and  C_28
REMARK                            x       y       z     vdW  Elec       q    Type
REMARK                         _______ _______ _______ _____ _____    ______ ____
ROOT
ATOM      1  C   UNL     1       0.064  -0.606  -0.216  0.00  0.00    +0.000 A 
ATOM      2  C   UNL     1      -1.051   0.275  -0.212  0.00  0.00    +0.000 A 
ATOM      3  C   UNL     1      -2.342  -0.132  -0.085  0.00  0.00    +0.000 A 
ATOM      4  N   UNL     1      -2.579  -1.476   0.046  0.00  0.00    +0.000 NA
ATOM      5  C   UNL     1      -1.532  -2.373   0.055  0.00  0.00    +0.000 A 
ATOM      6  C   UNL     1      -1.837  -3.727   0.225  0.00  0.00    +0.000 A 
ATOM      7  C   UNL     1      -0.796  -4.625   0.270  0.00  0.00    +0.000 A 
ATOM      8  C   UNL     1       0.474  -4.166   0.145  0.00  0.00    +0.000 A 
ATOM      9  C   UNL     1       0.799  -2.811  -0.027  0.00  0.00    +0.000 A 
ATOM     10  C   UNL     1      -0.304  -1.915  -0.066  0.00  0.00    +0.000 A 
ENDROOT
BRANCH   3  11
ATOM     11  C   UNL     1      -3.480   0.783  -0.104  0.00  0.00    +0.000 A 
ATOM     12  C   UNL     1      -4.608   0.475  -0.845  0.00  0.00    +0.000 A 
ATOM     13  C   UNL     1      -5.790   1.166  -0.682  0.00  0.00    +0.000 A 
ATOM     14  C   UNL     1      -5.960   2.217   0.224  0.00  0.00    +0.000 A 
ATOM     15  C   UNL     1      -4.834   2.518   0.953  0.00  0.00    +0.000 A 
ATOM     16  C   UNL     1      -3.623   1.818   0.792  0.00  0.00    +0.000 A 
BRANCH  14  17
ATOM     17  C   UNL     1      -7.269   2.931   0.358  0.00  0.00    +0.000 C 
ATOM     18  C   UNL     1      -7.830   2.943   1.773  0.00  0.00    +0.000 C 
ATOM     19  C   UNL     1      -8.277   2.093  -0.417  0.00  0.00    +0.000 C 
ENDBRANCH  14  17
ENDBRANCH   3  11
BRANCH   1  20
ATOM     20  C   UNL     1       1.437  -0.168  -0.350  0.00  0.00    +0.000 C 
ATOM     21  O   UNL     1       2.221  -0.249   0.606  0.00  0.00    +0.000 OA
BRANCH  20  22
ATOM     22  O   UNL     1       1.976   0.373  -1.540  0.00  0.00    +0.000 OA
BRANCH  22  23
ATOM     23  C   UNL     1       3.419   0.664  -1.586  0.00  0.00    +0.000 C 
BRANCH  23  25
ATOM     24  C   UNL     1       2.860   2.906  -2.458  0.00  0.00    +0.000 C 
ATOM     25  C   UNL     1       3.587   2.103  -1.440  0.00  0.00    +0.000 C 
ENDBRANCH  23  25
BRANCH  23  26
ATOM     26  C   UNL     1       4.069  -0.316  -0.668  0.00  0.00    +0.000 C 
ATOM     27  O   UNL     1       3.540  -1.478  -0.740  0.00  0.00    +0.000 OA
BRANCH  26  28
ATOM     28  C   UNL     1       5.169  -0.038   0.185  0.00  0.00    +0.000 A 
ATOM     29  C   UNL     1       5.721   1.152   0.330  0.00  0.00    +0.000 A 
ATOM     30  C   UNL     1       6.837   1.384   1.137  0.00  0.00    +0.000 A 
ATOM     31  C   UNL     1       7.407   0.301   1.828  0.00  0.00    +0.000 A 
ATOM     32  C   UNL     1       6.808  -0.888   1.645  0.00  0.00    +0.000 A 
ATOM     33  C   UNL     1       5.723  -1.133   0.865  0.00  0.00    +0.000 A 
ENDBRANCH  26  28
ENDBRANCH  23  26
ENDBRANCH  22  23
ENDBRANCH  20  22
ENDBRANCH   1  20
TORSDOF 8
