REMARK  Name = 
REMARK  8 active torsions:
REMARK  status: ('A' for Active; 'I' for Inactive)
REMARK    1  A    between atoms: C_6  and  C_7
REMARK    2  A    between atoms: C_10  and  N_11
REMARK    3  A    between atoms: C_12  and  C_14
REMARK    4  A    between atoms: C_14  and  O_15
REMARK    5  A    between atoms: O_15  and  C_16
REMARK    6  A    between atoms: C_16  and  C_18
REMARK    7  A    between atoms: C_18  and  C_19
REMARK    8  A    between atoms: C_18  and  C_25
REMARK                            x       y       z     vdW  Elec       q    Type
REMARK                         _______ _______ _______ _____ _____    ______ ____
ROOT
ATOM      1  O   UNL     1      -0.742  -0.430   1.907  0.00  0.00    +0.000 OA
ENDROOT
BRANCH   1   2
ATOM      2  C   UNL     1      -1.322   0.494   1.056  0.00  0.00    +0.000 C 
ATOM      3  O   UNL     1      -0.555   1.319   0.498  0.00  0.00    +0.000 OA
BRANCH   2   4
ATOM      4  C   UNL     1      -2.775   0.555   0.778  0.00  0.00    +0.000 C 
BRANCH   4   5
ATOM      5  C   UNL     1      -3.315  -0.674   0.187  0.00  0.00    +0.000 A 
ATOM      6  C   UNL     1      -2.585  -1.311  -0.796  0.00  0.00    +0.000 A 
ATOM      7  C   UNL     1      -3.081  -2.471  -1.364  0.00  0.00    +0.000 A 
ATOM      8  C   UNL     1      -4.298  -2.988  -0.951  0.00  0.00    +0.000 A 
ATOM      9  C   UNL     1      -5.000  -2.332   0.028  0.00  0.00    +0.000 A 
ATOM     10  C   UNL     1      -4.514  -1.178   0.599  0.00  0.00    +0.000 A 
ENDBRANCH   4   5
BRANCH   4  11
ATOM     11  C   UNL     1      -3.162   1.789   0.108  0.00  0.00    +0.000 A 
ATOM     12  C   UNL     1      -2.413   2.318  -0.915  0.00  0.00    +0.000 A 
ATOM     13  C   UNL     1      -2.795   3.502  -1.549  0.00  0.00    +0.000 A 
ATOM     14  C   UNL     1      -3.933   4.157  -1.154  0.00  0.00    +0.000 A 
ATOM     15  C   UNL     1      -4.698   3.638  -0.127  0.00  0.00    +0.000 A 
ATOM     16  C   UNL     1      -4.301   2.459   0.491  0.00  0.00    +0.000 A 
ENDBRANCH   4  11
ENDBRANCH   2   4
ENDBRANCH   1   2
BRANCH   1  17
ATOM     17  C   UNL     1       0.627  -0.501   2.179  0.00  0.00    +0.000 C 
BRANCH  17  19
ATOM     18  N   UNL     1       2.855  -0.838   1.123  0.00  0.00    +0.000 NA
ATOM     19  C   UNL     1       1.445  -0.747   0.965  0.00  0.00    +0.000 C 
ATOM     20  O   UNL     1       0.952  -0.877  -0.177  0.00  0.00    +0.000 OA
BRANCH  18  27
ATOM     21  C   UNL     1       3.478  -3.492   0.492  0.00  0.00    +0.000 C 
ATOM     22  C   UNL     1       4.070  -2.375  -0.287  0.00  0.00    +0.000 A 
ATOM     23  C   UNL     1       4.938  -2.577  -1.339  0.00  0.00    +0.000 A 
ATOM     24  C   UNL     1       5.489  -1.530  -2.065  0.00  0.00    +0.000 A 
ATOM     25  C   UNL     1       5.130  -0.254  -1.689  0.00  0.00    +0.000 A 
ATOM     26  C   UNL     1       4.268   0.008  -0.647  0.00  0.00    +0.000 A 
ATOM     27  C   UNL     1       3.748  -1.071   0.041  0.00  0.00    +0.000 A 
BRANCH  26  28
ATOM     28  C   UNL     1       3.884   1.370  -0.245  0.00  0.00    +0.000 C 
ATOM     29  C   UNL     1       4.569   2.384  -1.134  0.00  0.00    +0.000 C 
ATOM     30  C   UNL     1       4.039   1.652   1.209  0.00  0.00    +0.000 C 
ENDBRANCH  26  28
ENDBRANCH  18  27
ENDBRANCH  17  19
ENDBRANCH   1  17
TORSDOF 8
