REMARK  Name = 
REMARK  7 active torsions:
REMARK  status: ('A' for Active; 'I' for Inactive)
REMARK    1  A    between atoms: C_2  and  C_3
REMARK    2  A    between atoms: C_2  and  C_14
REMARK    3  A    between atoms: C_2  and  C_20
REMARK    4  A    between atoms: C_3  and  C_4
REMARK    5  A    between atoms: C_5  and  C_6
REMARK    6  A    between atoms: C_6  and  N_7
REMARK    7  A    between atoms: C_23  and  C_24
REMARK                            x       y       z     vdW  Elec       q    Type
REMARK                         _______ _______ _______ _____ _____    ______ ____
ROOT
ATOM      1  O   UNL     1       1.067   3.560   0.951  0.00  0.00    +0.000 OA
ATOM      2  C   UNL     1       0.474   2.484   0.248  0.00  0.00    +0.000 C 
ENDROOT
BRANCH   2   3
ATOM      3  C   UNL     1       0.298   2.895  -1.163  0.00  0.00    +0.000 A 
ATOM      4  C   UNL     1       1.341   3.365  -1.929  0.00  0.00    +0.000 A 
ATOM      5  C   UNL     1       1.168   3.749  -3.254  0.00  0.00    +0.000 A 
ATOM      6  C   UNL     1      -0.072   3.666  -3.840  0.00  0.00    +0.000 A 
ATOM      7  C   UNL     1      -1.125   3.198  -3.089  0.00  0.00    +0.000 A 
ATOM      8  C   UNL     1      -0.936   2.819  -1.766  0.00  0.00    +0.000 A 
ENDBRANCH   2   3
BRANCH   2   9
ATOM      9  C   UNL     1       1.373   1.292   0.360  0.00  0.00    +0.000 A 
ATOM     10  C   UNL     1       2.699   1.372  -0.013  0.00  0.00    +0.000 A 
ATOM     11  C   UNL     1       3.529   0.275   0.089  0.00  0.00    +0.000 A 
ATOM     12  C   UNL     1       3.083  -0.951   0.564  0.00  0.00    +0.000 A 
ATOM     13  C   UNL     1       1.757  -1.025   0.935  0.00  0.00    +0.000 A 
ATOM     14  C   UNL     1       0.932   0.074   0.832  0.00  0.00    +0.000 A 
BRANCH  12  15
ATOM     15  C   UNL     1       3.962  -2.104   0.669  0.00  0.00    +0.000 A 
ATOM     16  C   UNL     1       4.995  -2.285  -0.223  0.00  0.00    +0.000 A 
ATOM     17  C   UNL     1       5.862  -3.349  -0.181  0.00  0.00    +0.000 A 
ATOM     18  C   UNL     1       5.707  -4.298   0.797  0.00  0.00    +0.000 A 
ATOM     19  C   UNL     1       4.692  -4.161   1.708  0.00  0.00    +0.000 A 
ATOM     20  C   UNL     1       3.839  -3.084   1.641  0.00  0.00    +0.000 A 
ENDBRANCH  12  15
ENDBRANCH   2   9
BRANCH   2  21
ATOM     21  C   UNL     1      -0.832   2.215   0.938  0.00  0.00    +0.000 C 
BRANCH  21  22
ATOM     22  C   UNL     1      -1.597   1.130   0.353  0.00  0.00    +0.000 C 
ATOM     23  C   UNL     1      -2.243   0.251  -0.128  0.00  0.00    +0.000 C 
BRANCH  23  24
ATOM     24  C   UNL     1      -3.058  -0.814  -0.720  0.00  0.00    +0.000 C 
BRANCH  24  25
ATOM     25  N   UNL     1      -4.204  -1.020   0.111  0.00  0.00    +0.000 NA
ATOM     26  C   UNL     1      -5.078  -2.053  -0.387  0.00  0.00    +0.000 C 
ATOM     27  C   UNL     1      -5.093  -3.189   0.611  0.00  0.00    +0.000 C 
ATOM     28  C   UNL     1      -5.568  -2.627   1.936  0.00  0.00    +0.000 C 
ATOM     29  C   UNL     1      -6.426  -1.431   1.658  0.00  0.00    +0.000 C 
ATOM     30  C   UNL     1      -5.664  -0.125   1.781  0.00  0.00    +0.000 C 
ATOM     31  C   UNL     1      -4.884   0.172   0.510  0.00  0.00    +0.000 C 
ENDBRANCH  24  25
ENDBRANCH  23  24
ENDBRANCH  21  22
ENDBRANCH   2  21
TORSDOF 7
