REMARK  Name = 
REMARK  6 active torsions:
REMARK  status: ('A' for Active; 'I' for Inactive)
REMARK    1  A    between atoms: C_2  and  C_3
REMARK    2  A    between atoms: C_3  and  C_5
REMARK    3  A    between atoms: C_8  and  C_9
REMARK    4  A    between atoms: C_11  and  C_12
REMARK    5  A    between atoms: N_14  and  N_15
REMARK    6  A    between atoms: C_16  and  C_17
REMARK                            x       y       z     vdW  Elec       q    Type
REMARK                         _______ _______ _______ _____ _____    ______ ____
ROOT
ATOM      1  C   UNL     1       1.302   0.615   0.240  0.00  0.00    +0.000 A 
ATOM      2  C   UNL     1       0.430  -0.427   0.474  0.00  0.00    +0.000 A 
ATOM      3  C   UNL     1      -0.862  -0.164   0.915  0.00  0.00    +0.000 A 
ATOM      4  C   UNL     1      -1.216   1.151   1.101  0.00  0.00    +0.000 A 
ATOM      5  C   UNL     1      -2.477   1.502   1.536  0.00  0.00    +0.000 A 
ATOM      6  C   UNL     1      -2.842   2.818   1.726  0.00  0.00    +0.000 A 
ATOM      7  C   UNL     1      -1.954   3.845   1.486  0.00  0.00    +0.000 A 
ATOM      8  C   UNL     1      -0.690   3.503   1.050  0.00  0.00    +0.000 A 
ATOM      9  C   UNL     1      -0.334   2.185   0.863  0.00  0.00    +0.000 A 
ATOM     10  N   UNL     1       0.915   1.889   0.435  0.00  0.00    +0.000 NA
ENDROOT
BRANCH   1  14
ATOM     11  C   UNL     1       5.183  -0.212  -1.086  0.00  0.00    +0.000 A 
ATOM     12  C   UNL     1       4.386  -1.224  -0.875  0.00  0.00    +0.000 A 
ATOM     13  C   UNL     1       3.088  -0.947  -0.431  0.00  0.00    +0.000 A 
ATOM     14  C   UNL     1       2.663   0.347  -0.223  0.00  0.00    +0.000 A 
ATOM     15  C   UNL     1       3.539   1.367  -0.460  0.00  0.00    +0.000 A 
ATOM     16  C   UNL     1       4.824   1.098  -0.899  0.00  0.00    +0.000 A 
BRANCH  11  17
ATOM     17  C   UNL     1       6.698  -0.331  -1.593  0.00  0.00    +0.000 C 
ATOM     18  C   UNL     1       6.562  -1.796  -2.353  0.00  0.00    +0.000 C 
BRANCH  17  20
ATOM     19  C   UNL     1       7.404   0.237   0.666  0.00  0.00    +0.000 C 
ATOM     20  C   UNL     1       7.222  -1.020  -0.181  0.00  0.00    +0.000 C 
ENDBRANCH  17  20
ENDBRANCH  11  17
ENDBRANCH   1  14
BRANCH   3  21
ATOM     21  C   UNL     1      -1.804  -1.255   1.169  0.00  0.00    +0.000 C 
ATOM     22  O   UNL     1      -1.461  -2.457   1.006  0.00  0.00    +0.000 OA
ATOM     23  N   UNL     1      -3.095  -0.933   1.597  0.00  0.00    +0.000 NA
BRANCH  23  24
ATOM     24  N   UNL     1      -4.033  -1.926   1.855  0.00  0.00    +0.000 NA
ATOM     25  C   UNL     1      -4.862  -2.241   0.927  0.00  0.00    +0.000 C 
BRANCH  25  26
ATOM     26  C   UNL     1      -4.778  -1.543  -0.347  0.00  0.00    +0.000 A 
ATOM     27  C   UNL     1      -5.676  -1.901  -1.318  0.00  0.00    +0.000 A 
ATOM     28  C   UNL     1      -5.662  -1.294  -2.538  0.00  0.00    +0.000 A 
ATOM     29  C   UNL     1      -4.745  -0.318  -2.800  0.00  0.00    +0.000 A 
ATOM     30  C   UNL     1      -3.848   0.019  -1.789  0.00  0.00    +0.000 A 
ATOM     31  N   UNL     1      -3.876  -0.588  -0.595  0.00  0.00    +0.000 NA
ENDBRANCH  25  26
ENDBRANCH  23  24
ENDBRANCH   3  21
TORSDOF 6
