REMARK  Name = 
REMARK  6 active torsions:
REMARK  status: ('A' for Active; 'I' for Inactive)
REMARK    1  A    between atoms: C_2  and  C_3
REMARK    2  A    between atoms: C_3  and  O_4
REMARK    3  A    between atoms: O_4  and  C_5
REMARK    4  A    between atoms: N_15  and  C_16
REMARK    5  A    between atoms: C_21  and  C_22
REMARK    6  A    between atoms: N_24  and  C_25
REMARK                            x       y       z     vdW  Elec       q    Type
REMARK                         _______ _______ _______ _____ _____    ______ ____
ROOT
ATOM      1  O   UNL     1      -0.408  -3.753   1.139  0.00  0.00    +0.000 OA
ATOM      2  C   UNL     1      -0.536  -2.550   0.784  0.00  0.00    +0.000 C 
ATOM      3  N   UNL     1       0.630  -1.730   0.650  0.00  0.00    +0.000 NA
ENDROOT
BRANCH   3   4
ATOM      4  C   UNL     1       1.919  -2.273   0.913  0.00  0.00    +0.000 A 
ATOM      5  C   UNL     1       2.103  -3.595   1.286  0.00  0.00    +0.000 A 
ATOM      6  C   UNL     1       3.365  -4.068   1.522  0.00  0.00    +0.000 A 
ATOM      7  C   UNL     1       4.482  -3.255   1.399  0.00  0.00    +0.000 A 
ATOM      8  C   UNL     1       4.271  -1.938   1.025  0.00  0.00    +0.000 A 
ATOM      9  C   UNL     1       3.019  -1.431   0.780  0.00  0.00    +0.000 A 
BRANCH   9  10
ATOM     10  C   UNL     1       2.817  -0.025   0.391  0.00  0.00    +0.000 C 
ATOM     11  O   UNL     1       1.662   0.421   0.174  0.00  0.00    +0.000 OA
ATOM     12  N   UNL     1       3.894   0.868   0.247  0.00  0.00    +0.000 NA
BRANCH  12  13
ATOM     13  C   UNL     1       3.830   2.246  -0.122  0.00  0.00    +0.000 C 
ATOM     14  C   UNL     1       4.729   3.136   0.679  0.00  0.00    +0.000 C 
ATOM     15  C   UNL     1       6.134   3.203   0.105  0.00  0.00    +0.000 C 
ATOM     16  C   UNL     1       5.986   3.790  -1.295  0.00  0.00    +0.000 C 
ATOM     17  C   UNL     1       5.216   2.826  -2.139  0.00  0.00    +0.000 C 
ATOM     18  C   UNL     1       3.852   2.507  -1.589  0.00  0.00    +0.000 C 
ENDBRANCH  12  13
ENDBRANCH   9  10
ENDBRANCH   3   4
BRANCH   2  19
ATOM     19  C   UNL     1      -1.903  -2.021   0.511  0.00  0.00    +0.000 C 
BRANCH  19  20
ATOM     20  O   UNL     1      -1.837  -0.674   0.132  0.00  0.00    +0.000 OA
BRANCH  20  21
ATOM     21  C   UNL     1      -3.002   0.011  -0.167  0.00  0.00    +0.000 A 
ATOM     22  C   UNL     1      -2.858   1.345  -0.540  0.00  0.00    +0.000 A 
ATOM     23  C   UNL     1      -3.994   2.032  -0.841  0.00  0.00    +0.000 A 
ATOM     24  C   UNL     1      -5.252   1.504  -0.799  0.00  0.00    +0.000 A 
ATOM     25  C   UNL     1      -6.386   2.218  -1.106  0.00  0.00    +0.000 A 
ATOM     26  C   UNL     1      -7.639   1.651  -1.052  0.00  0.00    +0.000 A 
ATOM     27  C   UNL     1      -7.784   0.312  -0.677  0.00  0.00    +0.000 A 
ATOM     28  C   UNL     1      -6.648  -0.394  -0.370  0.00  0.00    +0.000 A 
ATOM     29  C   UNL     1      -5.400   0.186  -0.429  0.00  0.00    +0.000 A 
ATOM     30  C   UNL     1      -4.260  -0.549  -0.115  0.00  0.00    +0.000 A 
ENDBRANCH  20  21
ENDBRANCH  19  20
ENDBRANCH   2  19
TORSDOF 6
