REMARK  Name = 
REMARK  8 active torsions:
REMARK  status: ('A' for Active; 'I' for Inactive)
REMARK    1  A    between atoms: C_7  and  C_8
REMARK    2  A    between atoms: N_9  and  N_10
REMARK    3  A    between atoms: C_11  and  C_13
REMARK    4  A    between atoms: C_18  and  O_19
REMARK    5  A    between atoms: O_19  and  C_20
REMARK    6  A    between atoms: C_20  and  C_21
REMARK    7  A    between atoms: C_21  and  O_22
REMARK    8  A    between atoms: O_22  and  C_23
REMARK                            x       y       z     vdW  Elec       q    Type
REMARK                         _______ _______ _______ _____ _____    ______ ____
ROOT
ATOM      1  C   UNL     1       0.652   1.046  -1.735  0.00  0.00    +0.000 A 
ATOM      2  C   UNL     1       0.873   2.233  -2.362  0.00  0.00    +0.000 A 
ATOM      3  C   UNL     1       2.061   2.918  -2.433  0.00  0.00    +0.000 A 
ATOM      4  C   UNL     1       3.135   2.335  -1.801  0.00  0.00    +0.000 A 
ATOM      5  C   UNL     1       2.993   1.145  -1.151  0.00  0.00    +0.000 A 
ATOM      6  C   UNL     1       1.770   0.470  -1.096  0.00  0.00    +0.000 A 
ENDROOT
BRANCH   1   8
ATOM      7  N   UNL     1      -0.882  -0.865  -1.050  0.00  0.00    +0.000 NA
ATOM      8  C   UNL     1      -0.628   0.353  -1.686  0.00  0.00    +0.000 C 
ATOM      9  O   UNL     1      -1.671   0.815  -2.239  0.00  0.00    +0.000 OA
BRANCH   7  11
ATOM     10  C   UNL     1      -3.169  -1.435  -0.505  0.00  0.00    +0.000 C 
ATOM     11  N   UNL     1      -2.100  -1.529  -1.000  0.00  0.00    +0.000 NA
BRANCH  10  18
ATOM     12  C   UNL     1      -6.012   0.695  -0.642  0.00  0.00    +0.000 C 
ATOM     13  C   UNL     1      -5.574   0.971   0.683  0.00  0.00    +0.000 C 
ATOM     14  C   UNL     1      -5.545   2.422   1.161  0.00  0.00    +0.000 C 
ATOM     15  C   UNL     1      -6.271   0.172   1.869  0.00  0.00    +0.000 C 
ATOM     16  C   UNL     1      -6.555  -1.190   1.030  0.00  0.00    +0.000 C 
ATOM     17  C   UNL     1      -5.376  -1.564   0.303  0.00  0.00    +0.000 C 
ATOM     18  C   UNL     1      -4.215  -0.955   0.239  0.00  0.00    +0.000 C 
ATOM     19  C   UNL     1      -4.153   0.385   1.108  0.00  0.00    +0.000 C 
ATOM     20  C   UNL     1      -4.823  -0.298   2.397  0.00  0.00    +0.000 C 
ENDBRANCH  10  18
ENDBRANCH   7  11
ENDBRANCH   1   8
BRANCH   6  21
ATOM     21  O   UNL     1       1.599  -0.677  -0.478  0.00  0.00    +0.000 OA
BRANCH  21  22
ATOM     22  C   UNL     1       2.152  -1.640   0.230  0.00  0.00    +0.000 C 
BRANCH  22  23
ATOM     23  C   UNL     1       3.270  -2.373  -0.405  0.00  0.00    +0.000 C 
BRANCH  23  24
ATOM     24  O   UNL     1       4.363  -1.560  -0.705  0.00  0.00    +0.000 OA
BRANCH  24  25
ATOM     25  C   UNL     1       5.039  -0.926   0.323  0.00  0.00    +0.000 A 
ATOM     26  C   UNL     1       6.136  -0.104   0.083  0.00  0.00    +0.000 A 
ATOM     27  C   UNL     1       6.745   0.483   1.149  0.00  0.00    +0.000 A 
ATOM     28  C   UNL     1       6.336   0.307   2.450  0.00  0.00    +0.000 A 
ATOM     29  C   UNL     1       5.241  -0.517   2.663  0.00  0.00    +0.000 A 
ATOM     30  C   UNL     1       4.612  -1.117   1.611  0.00  0.00    +0.000 A 
ENDBRANCH  24  25
ENDBRANCH  23  24
ENDBRANCH  22  23
ENDBRANCH  21  22
ENDBRANCH   6  21
TORSDOF 8
