REMARK  Name = 
REMARK  9 active torsions:
REMARK  status: ('A' for Active; 'I' for Inactive)
REMARK    1  A    between atoms: C_2  and  O_3
REMARK    2  A    between atoms: O_3  and  C_4
REMARK    3  A    between atoms: C_7  and  N_8
REMARK    4  A    between atoms: C_9  and  C_11
REMARK    5  A    between atoms: C_11  and  S_12
REMARK    6  A    between atoms: S_12  and  C_13
REMARK    7  A    between atoms: C_16  and  C_17
REMARK    8  A    between atoms: N_23  and  C_24
REMARK    9  A    between atoms: C_24  and  C_25
REMARK                            x       y       z     vdW  Elec       q    Type
REMARK                         _______ _______ _______ _____ _____    ______ ____
ROOT
ATOM      1  C   UNL     1      -1.512  -0.761   1.677  0.00  0.00    +0.000 A 
ATOM      2  N   UNL     1      -1.978  -1.775   2.422  0.00  0.00    +0.000 NA
ATOM      3  C   UNL     1      -3.283  -1.621   2.591  0.00  0.00    +0.000 A 
ATOM      4  C   UNL     1      -3.667  -0.460   1.926  0.00  0.00    +0.000 A 
ATOM      5  N   UNL     1      -2.543   0.038   1.376  0.00  0.00    +0.000 N 
ENDROOT
BRANCH   4   6
ATOM      6  C   UNL     1      -5.027   0.050   1.893  0.00  0.00    +0.000 A 
ATOM      7  C   UNL     1      -6.031  -0.643   2.516  0.00  0.00    +0.000 A 
ATOM      8  C   UNL     1      -7.351  -0.182   2.521  0.00  0.00    +0.000 A 
ATOM      9  C   UNL     1      -7.674   0.997   1.888  0.00  0.00    +0.000 A 
ATOM     10  C   UNL     1      -6.670   1.698   1.260  0.00  0.00    +0.000 A 
ATOM     11  C   UNL     1      -5.358   1.220   1.267  0.00  0.00    +0.000 A 
ENDBRANCH   4   6
BRANCH   1  12
ATOM     12  S   UNL     1       0.179  -0.500   1.181  0.00  0.00    +0.000 S 
BRANCH  12  13
ATOM     13  C   UNL     1       0.469  -1.349  -0.365  0.00  0.00    +0.000 C 
BRANCH  13  15
ATOM     14  N   UNL     1       2.848  -0.422  -0.158  0.00  0.00    +0.000 NA
ATOM     15  C   UNL     1       1.867  -1.181  -0.856  0.00  0.00    +0.000 C 
ATOM     16  O   UNL     1       2.236  -1.718  -1.931  0.00  0.00    +0.000 OA
BRANCH  14  20
ATOM     17  C   UNL     1       6.859   0.158  -1.415  0.00  0.00    +0.000 A 
ATOM     18  C   UNL     1       5.988  -0.600  -2.166  0.00  0.00    +0.000 A 
ATOM     19  C   UNL     1       4.670  -0.808  -1.782  0.00  0.00    +0.000 A 
ATOM     20  C   UNL     1       4.173  -0.261  -0.621  0.00  0.00    +0.000 A 
ATOM     21  C   UNL     1       5.049   0.497   0.127  0.00  0.00    +0.000 A 
ATOM     22  C   UNL     1       6.360   0.706  -0.253  0.00  0.00    +0.000 A 
BRANCH  17  23
ATOM     23  O   UNL     1       8.186   0.360  -1.816  0.00  0.00    +0.000 OA
BRANCH  23  25
ATOM     24  C   UNL     1       8.586   2.558  -0.889  0.00  0.00    +0.000 C 
ATOM     25  C   UNL     1       9.083   1.138  -1.046  0.00  0.00    +0.000 C 
ENDBRANCH  23  25
ENDBRANCH  17  23
ENDBRANCH  14  20
ENDBRANCH  13  15
ENDBRANCH  12  13
ENDBRANCH   1  12
BRANCH   5  26
ATOM     26  C   UNL     1      -2.429   1.221   0.579  0.00  0.00    +0.000 C 
BRANCH  26  27
ATOM     27  C   UNL     1      -2.546   1.018  -0.859  0.00  0.00    +0.000 A 
ATOM     28  C   UNL     1      -3.688   1.019  -1.608  0.00  0.00    +0.000 A 
ATOM     29  C   UNL     1      -3.309   0.789  -2.912  0.00  0.00    +0.000 A 
ATOM     30  C   UNL     1      -1.940   0.660  -2.880  0.00  0.00    +0.000 A 
ATOM     31  O   UNL     1      -1.546   0.801  -1.665  0.00  0.00    +0.000 OA
ENDBRANCH  26  27
ENDBRANCH   5  26
TORSDOF 9
