REMARK  Name = 
REMARK  6 active torsions:
REMARK  status: ('A' for Active; 'I' for Inactive)
REMARK    1  A    between atoms: O_2  and  C_3
REMARK    2  A    between atoms: C_8  and  N_9
REMARK    3  A    between atoms: C_10  and  C_12
REMARK    4  A    between atoms: C_13  and  N_14
REMARK    5  A    between atoms: C_15  and  C_17
REMARK    6  A    between atoms: C_17  and  C_18
REMARK                            x       y       z     vdW  Elec       q    Type
REMARK                         _______ _______ _______ _____ _____    ______ ____
ROOT
ATOM      1  C   UNL     1      -0.111   1.142   0.538  0.00  0.00    +0.000 A 
ATOM      2  C   UNL     1       1.160   1.161   0.992  0.00  0.00    +0.000 A 
ATOM      3  S   UNL     1       1.463   2.908   1.076  0.00  0.00    +0.000 S 
ATOM      4  C   UNL     1      -0.028   3.460   0.523  0.00  0.00    +0.000 A 
ATOM      5  C   UNL     1      -0.733   2.314   0.287  0.00  0.00    +0.000 A 
ATOM      6  C   UNL     1      -2.167   2.388  -0.240  0.00  0.00    +0.000 C 
ATOM      7  C   UNL     1      -2.876   3.583   0.286  0.00  0.00    +0.000 C 
ATOM      8  C   UNL     1      -2.329   4.085   1.600  0.00  0.00    +0.000 C 
ATOM      9  C   UNL     1      -1.462   5.292   1.369  0.00  0.00    +0.000 C 
ATOM     10  C   UNL     1      -0.403   4.914   0.354  0.00  0.00    +0.000 C 
ENDROOT
BRANCH   1  12
ATOM     11  N   UNL     1      -2.189  -0.202  -0.075  0.00  0.00    +0.000 NA
ATOM     12  C   UNL     1      -0.906  -0.128   0.543  0.00  0.00    +0.000 C 
ATOM     13  O   UNL     1      -0.512  -1.183   1.074  0.00  0.00    +0.000 OA
BRANCH  11  19
ATOM     14  C   UNL     1      -4.163  -1.482  -0.715  0.00  0.00    +0.000 A 
ATOM     15  C   UNL     1      -4.880  -2.672  -0.669  0.00  0.00    +0.000 A 
ATOM     16  C   UNL     1      -4.398  -3.753   0.005  0.00  0.00    +0.000 A 
ATOM     17  C   UNL     1      -3.203  -3.680   0.644  0.00  0.00    +0.000 A 
ATOM     18  C   UNL     1      -2.462  -2.519   0.623  0.00  0.00    +0.000 A 
ATOM     19  C   UNL     1      -2.954  -1.407  -0.068  0.00  0.00    +0.000 A 
BRANCH  14  21
ATOM     20  C   UNL     1      -5.860  -0.431  -2.058  0.00  0.00    +0.000 C 
ATOM     21  O   UNL     1      -4.620  -0.361  -1.390  0.00  0.00    +0.000 OA
ENDBRANCH  14  21
ENDBRANCH  11  19
ENDBRANCH   1  12
BRANCH   2  22
ATOM     22  N   UNL     1       2.215   0.248   1.164  0.00  0.00    +0.000 NA
ATOM     23  C   UNL     1       2.451  -0.936   0.511  0.00  0.00    +0.000 C 
ATOM     24  O   UNL     1       1.709  -1.346  -0.416  0.00  0.00    +0.000 OA
BRANCH  23  25
ATOM     25  C   UNL     1       3.645  -1.813   0.886  0.00  0.00    +0.000 C 
BRANCH  25  26
ATOM     26  C   UNL     1       4.618  -1.755  -0.231  0.00  0.00    +0.000 A 
ATOM     27  C   UNL     1       5.715  -0.898  -0.063  0.00  0.00    +0.000 A 
ATOM     28  C   UNL     1       6.678  -0.739  -1.025  0.00  0.00    +0.000 A 
ATOM     29  C   UNL     1       6.558  -1.460  -2.217  0.00  0.00    +0.000 A 
ATOM     30  C   UNL     1       5.495  -2.296  -2.388  0.00  0.00    +0.000 A 
ATOM     31  C   UNL     1       4.547  -2.435  -1.408  0.00  0.00    +0.000 A 
ENDBRANCH  25  26
ENDBRANCH  23  25
ENDBRANCH   2  22
TORSDOF 6
