REMARK  Name = 
REMARK  5 active torsions:
REMARK  status: ('A' for Active; 'I' for Inactive)
REMARK    1  A    between atoms: O_2  and  C_3
REMARK    2  A    between atoms: C_6  and  C_7
REMARK    3  A    between atoms: N_8  and  N_9
REMARK    4  A    between atoms: C_10  and  C_12
REMARK    5  A    between atoms: C_27  and  O_28
REMARK                            x       y       z     vdW  Elec       q    Type
REMARK                         _______ _______ _______ _____ _____    ______ ____
ROOT
ATOM      1  N   UNL     1       0.361  -2.160   0.796  0.00  0.00    +0.000 NA
ATOM      2  C   UNL     1       1.289  -1.231   0.293  0.00  0.00    +0.000 C 
ATOM      3  O   UNL     1       0.862  -0.260  -0.381  0.00  0.00    +0.000 OA
ENDROOT
BRANCH   2   4
ATOM      4  C   UNL     1       2.739  -1.360   0.530  0.00  0.00    +0.000 A 
ATOM      5  C   UNL     1       3.381  -2.345   1.234  0.00  0.00    +0.000 A 
ATOM      6  C   UNL     1       2.659  -3.482   1.894  0.00  0.00    +0.000 C 
ATOM      7  N   UNL     1       4.690  -2.082   1.202  0.00  0.00    +0.000 NA
ATOM      8  C   UNL     1       4.892  -0.955   0.495  0.00  0.00    +0.000 A 
ATOM      9  N   UNL     1       5.803  -0.102   0.040  0.00  0.00    +0.000 N 
ATOM     10  C   UNL     1       7.249  -0.165   0.233  0.00  0.00    +0.000 C 
ATOM     11  C   UNL     1       5.195   0.865  -0.650  0.00  0.00    +0.000 A 
ATOM     12  C   UNL     1       5.633   2.002  -1.339  0.00  0.00    +0.000 A 
ATOM     13  C   UNL     1       4.732   2.837  -1.975  0.00  0.00    +0.000 A 
ATOM     14  C   UNL     1       3.393   2.560  -1.937  0.00  0.00    +0.000 A 
ATOM     15  C   UNL     1       2.961   1.454  -1.267  0.00  0.00    +0.000 A 
ATOM     16  C   UNL     1       3.843   0.613  -0.630  0.00  0.00    +0.000 A 
ATOM     17  N   UNL     1       3.672  -0.512   0.080  0.00  0.00    +0.000 N 
ENDBRANCH   2   4
BRANCH   1  19
ATOM     18  C   UNL     1      -1.599  -0.845   0.600  0.00  0.00    +0.000 C 
ATOM     19  N   UNL     1      -0.996  -1.967   0.528  0.00  0.00    +0.000 NA
BRANCH  18  23
ATOM     20  C   UNL     1      -5.755  -0.578  -0.280  0.00  0.00    +0.000 A 
ATOM     21  C   UNL     1      -5.105  -1.800  -0.360  0.00  0.00    +0.000 A 
ATOM     22  C   UNL     1      -3.749  -1.870  -0.070  0.00  0.00    +0.000 A 
ATOM     23  C   UNL     1      -3.019  -0.761   0.298  0.00  0.00    +0.000 A 
ATOM     24  C   UNL     1      -3.663   0.466   0.380  0.00  0.00    +0.000 A 
ATOM     25  C   UNL     1      -2.934   1.578   0.748  0.00  0.00    +0.000 A 
ATOM     26  C   UNL     1      -3.555   2.814   0.837  0.00  0.00    +0.000 A 
ATOM     27  C   UNL     1      -4.896   2.888   0.551  0.00  0.00    +0.000 A 
ATOM     28  C   UNL     1      -5.627   1.777   0.183  0.00  0.00    +0.000 A 
ATOM     29  C   UNL     1      -5.014   0.527   0.089  0.00  0.00    +0.000 A 
BRANCH  20  31
ATOM     30  C   UNL     1      -7.927  -1.493  -0.935  0.00  0.00    +0.000 C 
ATOM     31  O   UNL     1      -7.108  -0.427  -0.555  0.00  0.00    +0.000 OA
ENDBRANCH  20  31
BRANCH  25  32
ATOM     32  O   UNL     1      -1.576   1.425   1.024  0.00  0.00    +0.000 OA
ATOM     33  C   UNL     1      -0.829   2.588   1.405  0.00  0.00    +0.000 C 
ENDBRANCH  25  32
ENDBRANCH  18  23
ENDBRANCH   1  19
TORSDOF 5
