REMARK  Name = 
REMARK  7 active torsions:
REMARK  status: ('A' for Active; 'I' for Inactive)
REMARK    1  A    between atoms: C_2  and  C_3
REMARK    2  A    between atoms: C_3  and  C_4
REMARK    3  A    between atoms: C_4  and  N_5
REMARK    4  A    between atoms: C_6  and  C_8
REMARK    5  A    between atoms: C_9  and  C_10
REMARK    6  A    between atoms: C_18  and  C_19
REMARK    7  A    between atoms: C_22  and  C_23
REMARK                            x       y       z     vdW  Elec       q    Type
REMARK                         _______ _______ _______ _____ _____    ______ ____
ROOT
ATOM      1  C   UNL     1      -1.458   0.776   0.815  0.00  0.00    +0.000 C 
ATOM      2  C   UNL     1      -1.348  -0.344   1.453  0.00  0.00    +0.000 C 
ATOM      3  N   UNL     1      -0.443  -0.102   2.543  0.00  0.00    +0.000 NA
ATOM      4  O   UNL     1      -0.455   1.181   2.839  0.00  0.00    +0.000 OA
ATOM      5  C   UNL     1      -0.526   1.808   1.510  0.00  0.00    +0.000 C 
ENDROOT
BRANCH   2   6
ATOM      6  C   UNL     1      -1.990  -1.657   1.195  0.00  0.00    +0.000 A 
ATOM      7  C   UNL     1      -2.139  -2.254  -0.023  0.00  0.00    +0.000 A 
ATOM      8  C   UNL     1      -2.767  -3.483  -0.184  0.00  0.00    +0.000 A 
ATOM      9  C   UNL     1      -3.265  -4.138   0.920  0.00  0.00    +0.000 A 
ATOM     10  C   UNL     1      -3.135  -3.569   2.164  0.00  0.00    +0.000 A 
ATOM     11  C   UNL     1      -2.502  -2.347   2.264  0.00  0.00    +0.000 A 
ENDBRANCH   2   6
BRANCH   5  12
ATOM     12  C   UNL     1       0.857   1.458   0.870  0.00  0.00    +0.000 A 
ATOM     13  C   UNL     1       1.228   0.149   1.038  0.00  0.00    +0.000 A 
ATOM     14  C   UNL     1       2.440  -0.342   0.515  0.00  0.00    +0.000 A 
ATOM     15  C   UNL     1       3.280   0.501  -0.184  0.00  0.00    +0.000 A 
ATOM     16  C   UNL     1       2.881   1.800  -0.334  0.00  0.00    +0.000 A 
ATOM     17  C   UNL     1       1.671   2.257   0.198  0.00  0.00    +0.000 A 
BRANCH  15  18
ATOM     18  C   UNL     1       4.552  -0.007  -0.734  0.00  0.00    +0.000 A 
ATOM     19  C   UNL     1       5.093   0.506  -1.895  0.00  0.00    +0.000 A 
ATOM     20  C   UNL     1       6.299   0.031  -2.417  0.00  0.00    +0.000 A 
ATOM     21  C   UNL     1       6.982  -0.974  -1.774  0.00  0.00    +0.000 A 
ATOM     22  C   UNL     1       6.463  -1.510  -0.604  0.00  0.00    +0.000 A 
ATOM     23  C   UNL     1       5.270  -1.011  -0.125  0.00  0.00    +0.000 A 
ENDBRANCH  15  18
ENDBRANCH   5  12
BRANCH   1  25
ATOM     24  N   UNL     1      -3.058   0.118  -0.965  0.00  0.00    +0.000 NA
ATOM     25  C   UNL     1      -2.260   1.067  -0.354  0.00  0.00    +0.000 C 
ATOM     26  O   UNL     1      -2.223   2.224  -0.822  0.00  0.00    +0.000 OA
BRANCH  24  27
ATOM     27  C   UNL     1      -3.855   0.335  -2.094  0.00  0.00    +0.000 C 
BRANCH  27  28
ATOM     28  C   UNL     1      -4.941   1.306  -2.088  0.00  0.00    +0.000 C 
BRANCH  28  30
ATOM     29  C   UNL     1      -5.987   3.489  -1.893  0.00  0.00    +0.000 C 
ATOM     30  C   UNL     1      -4.665   2.732  -1.833  0.00  0.00    +0.000 C 
ENDBRANCH  28  30
ENDBRANCH  27  28
ENDBRANCH  24  27
ENDBRANCH   1  25
TORSDOF 7
