REMARK  Name = 
REMARK  9 active torsions:
REMARK  status: ('A' for Active; 'I' for Inactive)
REMARK    1  A    between atoms: C_7  and  C_8
REMARK    2  A    between atoms: C_8  and  N_9
REMARK    3  A    between atoms: N_9  and  C_10
REMARK    4  A    between atoms: N_9  and  C_27
REMARK    5  A    between atoms: C_10  and  C_11
REMARK    6  A    between atoms: C_14  and  C_15
REMARK    7  A    between atoms: N_17  and  C_18
REMARK    8  A    between atoms: C_18  and  C_19
REMARK    9  A    between atoms: C_19  and  C_20
REMARK                            x       y       z     vdW  Elec       q    Type
REMARK                         _______ _______ _______ _____ _____    ______ ____
ROOT
ATOM      1  C   UNL     1      -1.817   0.694   1.078  0.00  0.00    +0.000 C 
ENDROOT
BRANCH   1   2
ATOM      2  C   UNL     1      -0.536   0.940   0.414  0.00  0.00    +0.000 A 
ATOM      3  C   UNL     1      -0.353   1.139  -0.933  0.00  0.00    +0.000 A 
ATOM      4  C   UNL     1       1.010   1.335  -1.138  0.00  0.00    +0.000 A 
ATOM      5  C   UNL     1       1.572   1.242   0.109  0.00  0.00    +0.000 A 
ATOM      6  O   UNL     1       0.635   1.011   0.980  0.00  0.00    +0.000 OA
BRANCH   5   7
ATOM      7  C   UNL     1       3.027   1.388   0.378  0.00  0.00    +0.000 C 
ATOM      8  O   UNL     1       3.816   1.591  -0.557  0.00  0.00    +0.000 OA
ATOM      9  N   UNL     1       3.496   1.295   1.695  0.00  0.00    +0.000 NA
BRANCH   9  10
ATOM     10  C   UNL     1       4.832   1.398   2.099  0.00  0.00    +0.000 C 
BRANCH  10  11
ATOM     11  C   UNL     1       5.860   0.469   1.732  0.00  0.00    +0.000 C 
BRANCH  11  12
ATOM     12  C   UNL     1       6.215   0.176   0.359  0.00  0.00    +0.000 A 
ATOM     13  C   UNL     1       5.611  -0.932  -0.254  0.00  0.00    +0.000 A 
ATOM     14  C   UNL     1       5.926  -1.237  -1.552  0.00  0.00    +0.000 A 
ATOM     15  C   UNL     1       6.824  -0.490  -2.286  0.00  0.00    +0.000 A 
ATOM     16  C   UNL     1       7.392   0.589  -1.640  0.00  0.00    +0.000 A 
ATOM     17  N   UNL     1       7.080   0.881  -0.376  0.00  0.00    +0.000 NA
ENDBRANCH  11  12
ENDBRANCH  10  11
ENDBRANCH   9  10
ENDBRANCH   5   7
ENDBRANCH   1   2
BRANCH   1  18
ATOM     18  N   UNL     1      -2.934   0.836   0.211  0.00  0.00    +0.000 NA
BRANCH  18  19
ATOM     19  C   UNL     1      -2.746   0.469  -1.143  0.00  0.00    +0.000 C 
ATOM     20  C   UNL     1      -3.653   1.259  -2.071  0.00  0.00    +0.000 C 
ATOM     21  C   UNL     1      -3.426   0.851  -3.498  0.00  0.00    +0.000 C 
ATOM     22  C   UNL     1      -3.583  -0.634  -3.727  0.00  0.00    +0.000 C 
ATOM     23  C   UNL     1      -3.868  -1.347  -2.413  0.00  0.00    +0.000 C 
ATOM     24  C   UNL     1      -2.744  -0.988  -1.450  0.00  0.00    +0.000 C 
ENDBRANCH  18  19
BRANCH  18  25
ATOM     25  C   UNL     1      -4.208   0.610   0.787  0.00  0.00    +0.000 C 
BRANCH  25  32
ATOM     26  C   UNL     1      -6.614  -0.165   2.003  0.00  0.00    +0.000 C 
ATOM     27  C   UNL     1      -5.510  -1.165   1.940  0.00  0.00    +0.000 A 
ATOM     28  C   UNL     1      -5.625  -2.433   2.447  0.00  0.00    +0.000 A 
ATOM     29  C   UNL     1      -4.611  -3.366   2.396  0.00  0.00    +0.000 A 
ATOM     30  C   UNL     1      -3.438  -2.965   1.796  0.00  0.00    +0.000 A 
ATOM     31  C   UNL     1      -3.309  -1.691   1.280  0.00  0.00    +0.000 A 
ATOM     32  C   UNL     1      -4.319  -0.761   1.332  0.00  0.00    +0.000 A 
ENDBRANCH  25  32
ENDBRANCH  18  25
ENDBRANCH   1  18
TORSDOF 9
