REMARK  Name = 
REMARK  9 active torsions:
REMARK  status: ('A' for Active; 'I' for Inactive)
REMARK    1  A    between atoms: C_2  and  O_3
REMARK    2  A    between atoms: O_3  and  C_4
REMARK    3  A    between atoms: C_4  and  C_6
REMARK    4  A    between atoms: N_14  and  C_15
REMARK    5  A    between atoms: C_15  and  C_16
REMARK    6  A    between atoms: N_18  and  C_19
REMARK    7  A    between atoms: C_22  and  O_23
REMARK    8  A    between atoms: O_23  and  C_24
REMARK    9  A    between atoms: C_24  and  C_25
REMARK                            x       y       z     vdW  Elec       q    Type
REMARK                         _______ _______ _______ _____ _____    ______ ____
ROOT
ATOM      1  C   UNL     1      -1.472   0.421  -1.315  0.00  0.00    +0.000 C 
ATOM      2  O   UNL     1      -1.093   1.484  -0.765  0.00  0.00    +0.000 OA
ATOM      3  N   UNL     1      -0.562  -0.652  -1.453  0.00  0.00    +0.000 NA
ENDROOT
BRANCH   3   4
ATOM      4  C   UNL     1       0.772  -0.474  -0.956  0.00  0.00    +0.000 A 
ATOM      5  C   UNL     1       1.200   0.645  -0.308  0.00  0.00    +0.000 A 
ATOM      6  C   UNL     1       2.498   0.742   0.118  0.00  0.00    +0.000 A 
ATOM      7  C   UNL     1       3.417  -0.284  -0.091  0.00  0.00    +0.000 A 
ATOM      8  C   UNL     1       2.981  -1.412  -0.745  0.00  0.00    +0.000 A 
ATOM      9  C   UNL     1       1.679  -1.508  -1.171  0.00  0.00    +0.000 A 
BRANCH   7  10
ATOM     10  O   UNL     1       4.721  -0.165   0.350  0.00  0.00    +0.000 OA
BRANCH  10  11
ATOM     11  C   UNL     1       5.678  -1.158   0.157  0.00  0.00    +0.000 C 
BRANCH  11  12
ATOM     12  C   UNL     1       6.987  -0.812   0.718  0.00  0.00    +0.000 A 
ATOM     13  C   UNL     1       7.077   0.061   1.774  0.00  0.00    +0.000 A 
ATOM     14  C   UNL     1       8.324   0.408   2.323  0.00  0.00    +0.000 A 
ATOM     15  C   UNL     1       9.462  -0.120   1.807  0.00  0.00    +0.000 A 
ATOM     16  C   UNL     1       9.373  -0.995   0.747  0.00  0.00    +0.000 A 
ATOM     17  C   UNL     1       8.151  -1.364   0.178  0.00  0.00    +0.000 A 
ENDBRANCH  11  12
ENDBRANCH  10  11
ENDBRANCH   7  10
ENDBRANCH   3   4
BRANCH   1  18
ATOM     18  C   UNL     1      -2.854   0.317  -1.804  0.00  0.00    +0.000 C 
BRANCH  18  27
ATOM     19  C   UNL     1      -4.319  -0.188   0.128  0.00  0.00    +0.000 A 
ATOM     20  C   UNL     1      -5.119   0.580   0.985  0.00  0.00    +0.000 A 
ATOM     21  C   UNL     1      -5.030   1.912   0.653  0.00  0.00    +0.000 A 
ATOM     22  C   UNL     1      -4.167   1.960  -0.418  0.00  0.00    +0.000 A 
ATOM     23  C   UNL     1      -4.013   3.274  -0.827  0.00  0.00    +0.000 A 
ATOM     24  C   UNL     1      -4.818   4.019   0.041  0.00  0.00    +0.000 A 
ATOM     25  N   UNL     1      -5.405   3.191   0.903  0.00  0.00    +0.000 N 
ATOM     26  C   UNL     1      -6.311   3.570   1.959  0.00  0.00    +0.000 C 
ATOM     27  N   UNL     1      -3.756   0.686  -0.711  0.00  0.00    +0.000 N 
BRANCH  19  28
ATOM     28  C   UNL     1      -4.210  -1.656   0.204  0.00  0.00    +0.000 C 
ATOM     29  O   UNL     1      -3.468  -2.252  -0.580  0.00  0.00    +0.000 OA
BRANCH  28  30
ATOM     30  O   UNL     1      -4.932  -2.368   1.145  0.00  0.00    +0.000 OA
BRANCH  30  32
ATOM     31  C   UNL     1      -5.885  -4.091   2.442  0.00  0.00    +0.000 C 
ATOM     32  C   UNL     1      -4.906  -3.774   1.299  0.00  0.00    +0.000 C 
ENDBRANCH  30  32
ENDBRANCH  28  30
ENDBRANCH  19  28
ENDBRANCH  18  27
ENDBRANCH   1  18
TORSDOF 9
