REMARK  Name = 
REMARK  6 active torsions:
REMARK  status: ('A' for Active; 'I' for Inactive)
REMARK    1  A    between atoms: C_2  and  C_5
REMARK    2  A    between atoms: C_8  and  C_9
REMARK    3  A    between atoms: C_9  and  N_10
REMARK    4  A    between atoms: C_11  and  C_13
REMARK    5  A    between atoms: C_14  and  C_15
REMARK    6  A    between atoms: C_23  and  C_24
REMARK                            x       y       z     vdW  Elec       q    Type
REMARK                         _______ _______ _______ _____ _____    ______ ____
ROOT
ATOM      1  C   UNL     1      -1.671  -0.011   0.760  0.00  0.00    +0.000 C 
ATOM      2  C   UNL     1      -2.741  -0.666   0.661  0.00  0.00    +0.000 C 
ATOM      3  N   UNL     1      -3.781   0.285   0.804  0.00  0.00    +0.000 NA
ATOM      4  O   UNL     1      -3.430   0.986   1.844  0.00  0.00    +0.000 OA
ATOM      5  C   UNL     1      -1.989   1.417   1.401  0.00  0.00    +0.000 C 
ENDROOT
BRANCH   2   6
ATOM      6  C   UNL     1      -2.855  -2.121   0.390  0.00  0.00    +0.000 A 
ATOM      7  C   UNL     1      -3.743  -2.680  -0.486  0.00  0.00    +0.000 A 
ATOM      8  C   UNL     1      -3.876  -4.049  -0.644  0.00  0.00    +0.000 A 
ATOM      9  C   UNL     1      -3.119  -4.907   0.076  0.00  0.00    +0.000 A 
ATOM     10  C   UNL     1      -2.209  -4.368   0.961  0.00  0.00    +0.000 A 
ATOM     11  C   UNL     1      -2.092  -3.011   1.107  0.00  0.00    +0.000 A 
ENDBRANCH   2   6
BRANCH   5  12
ATOM     12  C   UNL     1      -2.351   2.325   0.221  0.00  0.00    +0.000 A 
ATOM     13  C   UNL     1      -1.307   2.871  -0.472  0.00  0.00    +0.000 A 
ATOM     14  C   UNL     1      -1.502   3.781  -1.523  0.00  0.00    +0.000 A 
ATOM     15  C   UNL     1      -2.798   4.122  -1.855  0.00  0.00    +0.000 A 
ATOM     16  C   UNL     1      -3.853   3.594  -1.192  0.00  0.00    +0.000 A 
ATOM     17  C   UNL     1      -3.597   2.699  -0.156  0.00  0.00    +0.000 A 
ENDBRANCH   5  12
BRANCH   1  19
ATOM     18  N   UNL     1       0.119  -1.708   0.373  0.00  0.00    +0.000 NA
ATOM     19  C   UNL     1      -0.235  -0.361   0.648  0.00  0.00    +0.000 C 
ATOM     20  O   UNL     1       0.678   0.470   0.787  0.00  0.00    +0.000 OA
BRANCH  18  21
ATOM     21  C   UNL     1       1.412  -2.271   0.266  0.00  0.00    +0.000 C 
BRANCH  21  25
ATOM     22  C   UNL     1       4.558   0.411  -0.436  0.00  0.00    +0.000 A 
ATOM     23  C   UNL     1       3.948  -0.237  -1.506  0.00  0.00    +0.000 A 
ATOM     24  C   UNL     1       2.936  -1.084  -1.244  0.00  0.00    +0.000 A 
ATOM     25  C   UNL     1       2.475  -1.338   0.019  0.00  0.00    +0.000 A 
ATOM     26  C   UNL     1       3.091  -0.693   1.063  0.00  0.00    +0.000 A 
ATOM     27  C   UNL     1       4.109   0.165   0.846  0.00  0.00    +0.000 A 
BRANCH  22  29
ATOM     28  C   UNL     1       5.364   2.207  -1.857  0.00  0.00    +0.000 C 
ATOM     29  C   UNL     1       5.681   1.321  -0.653  0.00  0.00    +0.000 C 
ATOM     30  C   UNL     1       6.947   0.573  -0.878  0.00  0.00    +0.000 C 
ATOM     31  C   UNL     1       5.828   2.279   0.498  0.00  0.00    +0.000 C 
ENDBRANCH  22  29
ENDBRANCH  21  25
ENDBRANCH  18  21
ENDBRANCH   1  19
TORSDOF 6
