REMARK  Name = 
REMARK  6 active torsions:
REMARK  status: ('A' for Active; 'I' for Inactive)
REMARK    1  A    between atoms: C_2  and  O_3
REMARK    2  A    between atoms: O_3  and  C_4
REMARK    3  A    between atoms: C_7  and  N_8
REMARK    4  A    between atoms: C_12  and  C_13
REMARK    5  A    between atoms: N_18  and  C_19
REMARK    6  A    between atoms: C_19  and  C_20
REMARK                            x       y       z     vdW  Elec       q    Type
REMARK                         _______ _______ _______ _____ _____    ______ ____
ROOT
ATOM      1  N   UNL     1       2.926  -0.468  -0.297  0.00  0.00    +0.000 N 
ATOM      2  C   UNL     1       2.241  -0.993  -1.341  0.00  0.00    +0.000 A 
ATOM      3  C   UNL     1       2.802  -1.805  -2.450  0.00  0.00    +0.000 C 
ATOM      4  C   UNL     1       0.919  -0.596  -1.124  0.00  0.00    +0.000 A 
ATOM      5  C   UNL     1       0.809   0.150   0.021  0.00  0.00    +0.000 A 
ATOM      6  C   UNL     1       2.091   0.217   0.524  0.00  0.00    +0.000 A 
ATOM      7  C   UNL     1       2.450   0.931   1.771  0.00  0.00    +0.000 C 
ENDROOT
BRANCH   5   8
ATOM      8  C   UNL     1      -0.412   0.723   0.579  0.00  0.00    +0.000 C 
ATOM      9  C   UNL     1      -1.554   0.805  -0.054  0.00  0.00    +0.000 C 
ATOM     10  N   UNL     1      -1.806   0.359  -1.373  0.00  0.00    +0.000 NA
ATOM     11  C   UNL     1      -3.160   0.606  -1.727  0.00  0.00    +0.000 C 
ATOM     12  O   UNL     1      -3.643   0.292  -2.871  0.00  0.00    +0.000 OA
ATOM     13  N   UNL     1      -3.805   1.216  -0.642  0.00  0.00    +0.000 N 
ATOM     14  C   UNL     1      -2.835   1.357   0.421  0.00  0.00    +0.000 C 
ATOM     15  O   UNL     1      -3.074   1.858   1.524  0.00  0.00    +0.000 OA
BRANCH  13  16
ATOM     16  C   UNL     1      -5.173   1.631  -0.596  0.00  0.00    +0.000 C 
BRANCH  16  17
ATOM     17  C   UNL     1      -6.029   0.562  -0.080  0.00  0.00    +0.000 A 
ATOM     18  C   UNL     1      -5.511  -0.667   0.307  0.00  0.00    +0.000 A 
ATOM     19  C   UNL     1      -6.369  -1.626   0.803  0.00  0.00    +0.000 A 
ATOM     20  C   UNL     1      -7.734  -1.351   0.908  0.00  0.00    +0.000 A 
ATOM     21  C   UNL     1      -8.229  -0.115   0.515  0.00  0.00    +0.000 A 
ATOM     22  C   UNL     1      -7.386   0.851   0.019  0.00  0.00    +0.000 A 
ATOM     23  F   UNL     1      -7.849   2.062  -0.372  0.00  0.00    +0.000 F 
ENDBRANCH  16  17
ENDBRANCH  13  16
ENDBRANCH   5   8
BRANCH   1  27
ATOM     24  C   UNL     1       7.072  -0.885   0.421  0.00  0.00    +0.000 A 
ATOM     25  C   UNL     1       6.244  -0.225   1.333  0.00  0.00    +0.000 A 
ATOM     26  C   UNL     1       4.905  -0.111   1.061  0.00  0.00    +0.000 A 
ATOM     27  C   UNL     1       4.321  -0.618  -0.079  0.00  0.00    +0.000 A 
ATOM     28  C   UNL     1       5.168  -1.262  -0.957  0.00  0.00    +0.000 A 
ATOM     29  C   UNL     1       6.532  -1.401  -0.720  0.00  0.00    +0.000 A 
BRANCH  24  30
ATOM     30  O   UNL     1       8.446  -1.012   0.683  0.00  0.00    +0.000 OA
BRANCH  30  32
ATOM     31  C   UNL     1       8.681   1.039   1.896  0.00  0.00    +0.000 C 
ATOM     32  C   UNL     1       8.960  -0.446   1.894  0.00  0.00    +0.000 C 
ENDBRANCH  30  32
ENDBRANCH  24  30
ENDBRANCH   1  27
TORSDOF 6
