REMARK  Name = 
REMARK  10 active torsions:
REMARK  status: ('A' for Active; 'I' for Inactive)
REMARK    1  A    between atoms: O_2  and  C_3
REMARK    2  A    between atoms: C_6  and  C_7
REMARK    3  A    between atoms: C_7  and  N_8
REMARK    4  A    between atoms: N_8  and  C_9
REMARK    5  A    between atoms: C_9  and  C_10
REMARK    6  A    between atoms: C_10  and  C_12
REMARK    7  A    between atoms: C_12  and  O_13
REMARK    8  A    between atoms: O_13  and  C_14
REMARK    9  A    between atoms: C_17  and  C_18
REMARK   10  A    between atoms: C_18  and  C_21
REMARK                            x       y       z     vdW  Elec       q    Type
REMARK                         _______ _______ _______ _____ _____    ______ ____
ROOT
ATOM      1  O   UNL     1      -0.048  -0.037  -0.266  0.00  0.00    +0.000 OA
ENDROOT
BRANCH   1   2
ATOM      2  C   UNL     1       1.307  -0.451  -0.378  0.00  0.00    +0.000 A 
ATOM      3  C   UNL     1       1.818  -0.973  -1.473  0.00  0.00    +0.000 A 
ATOM      4  C   UNL     1       3.157  -1.338  -1.541  0.00  0.00    +0.000 A 
ATOM      5  C   UNL     1       4.005  -1.158  -0.457  0.00  0.00    +0.000 A 
ATOM      6  C   UNL     1       3.423  -0.615   0.663  0.00  0.00    +0.000 A 
ATOM      7  C   UNL     1       2.103  -0.243   0.776  0.00  0.00    +0.000 A 
BRANCH   5   8
ATOM      8  C   UNL     1       5.459  -1.437  -0.443  0.00  0.00    +0.000 C 
ATOM      9  C   UNL     1       5.877  -1.724  -1.884  0.00  0.00    +0.000 C 
ATOM     10  C   UNL     1       5.853  -2.545   0.454  0.00  0.00    +0.000 C 
BRANCH   8  11
ATOM     11  C   UNL     1       6.138  -0.118  -0.130  0.00  0.00    +0.000 A 
ATOM     12  C   UNL     1       5.634   0.586   0.980  0.00  0.00    +0.000 A 
ATOM     13  C   UNL     1       6.129   1.804   1.341  0.00  0.00    +0.000 A 
ATOM     14  C   UNL     1       7.131   2.338   0.608  0.00  0.00    +0.000 A 
ATOM     15  C   UNL     1       7.627   1.677  -0.458  0.00  0.00    +0.000 A 
ATOM     16  C   UNL     1       7.144   0.422  -0.860  0.00  0.00    +0.000 A 
ENDBRANCH   8  11
ENDBRANCH   5   8
ENDBRANCH   1   2
BRANCH   1  17
ATOM     17  C   UNL     1      -0.429   0.455   0.974  0.00  0.00    +0.000 C 
BRANCH  17  18
ATOM     18  C   UNL     1      -1.917   1.122   0.850  0.00  0.00    +0.000 C 
ATOM     19  O   UNL     1      -1.858   1.460   2.413  0.00  0.00    +0.000 OA
BRANCH  18  20
ATOM     20  C   UNL     1      -2.781  -0.251   1.128  0.00  0.00    +0.000 C 
BRANCH  20  21
ATOM     21  N   UNL     1      -3.167  -0.525  -0.267  0.00  0.00    +0.000 NA
BRANCH  21  22
ATOM     22  C   UNL     1      -4.212  -1.566  -0.180  0.00  0.00    +0.000 C 
BRANCH  22  26
ATOM     23  C   UNL     1      -7.827   0.621  -0.990  0.00  0.00    +0.000 A 
ATOM     24  C   UNL     1      -7.051   0.885   0.140  0.00  0.00    +0.000 A 
ATOM     25  C   UNL     1      -5.923   0.156   0.342  0.00  0.00    +0.000 A 
ATOM     26  C   UNL     1      -5.508  -0.865  -0.565  0.00  0.00    +0.000 A 
ATOM     27  C   UNL     1      -6.265  -1.107  -1.648  0.00  0.00    +0.000 A 
ATOM     28  C   UNL     1      -7.456  -0.345  -1.868  0.00  0.00    +0.000 A 
BRANCH  23  30
ATOM     29  C   UNL     1      -9.377   2.391  -0.257  0.00  0.00    +0.000 C 
ATOM     30  O   UNL     1      -8.984   1.382  -1.181  0.00  0.00    +0.000 OA
ENDBRANCH  23  30
ENDBRANCH  22  26
ENDBRANCH  21  22
ENDBRANCH  20  21
ENDBRANCH  18  20
ENDBRANCH  17  18
ENDBRANCH   1  17
TORSDOF 10
