REMARK  Name = 
REMARK  8 active torsions:
REMARK  status: ('A' for Active; 'I' for Inactive)
REMARK    1  A    between atoms: C_2  and  C_3
REMARK    2  A    between atoms: C_2  and  C_11
REMARK    3  A    between atoms: C_3  and  O_4
REMARK    4  A    between atoms: O_4  and  C_5
REMARK    5  A    between atoms: C_11  and  N_12
REMARK    6  A    between atoms: C_15  and  C_16
REMARK    7  A    between atoms: C_19  and  O_20
REMARK    8  A    between atoms: O_20  and  C_21
REMARK                            x       y       z     vdW  Elec       q    Type
REMARK                         _______ _______ _______ _____ _____    ______ ____
ROOT
ATOM      1  N   UNL     1       1.932  -0.787   0.163  0.00  0.00    +0.000 NA
ATOM      2  C   UNL     1       1.316   0.281  -0.620  0.00  0.00    +0.000 C 
ATOM      3  C   UNL     1       0.327   1.056   0.230  0.00  0.00    +0.000 C 
ATOM      4  C   UNL     1      -0.684   0.131   0.789  0.00  0.00    +0.000 C 
ATOM      5  C   UNL     1      -0.207  -1.178   1.280  0.00  0.00    +0.000 C 
ATOM      6  C   UNL     1       0.942  -1.783   0.530  0.00  0.00    +0.000 C 
ENDROOT
BRANCH   4   7
ATOM      7  C   UNL     1      -1.962   0.102   0.034  0.00  0.00    +0.000 A 
ATOM      8  C   UNL     1      -2.006  -0.050  -1.335  0.00  0.00    +0.000 A 
ATOM      9  C   UNL     1      -3.200  -0.072  -2.025  0.00  0.00    +0.000 A 
ATOM     10  C   UNL     1      -4.417   0.057  -1.391  0.00  0.00    +0.000 A 
ATOM     11  C   UNL     1      -4.373   0.208  -0.022  0.00  0.00    +0.000 A 
ATOM     12  C   UNL     1      -3.186   0.231   0.675  0.00  0.00    +0.000 A 
BRANCH  10  13
ATOM     13  O   UNL     1      -5.608   0.033  -2.107  0.00  0.00    +0.000 OA
BRANCH  13  14
ATOM     14  C   UNL     1      -6.823   0.177  -1.412  0.00  0.00    +0.000 A 
ATOM     15  C   UNL     1      -7.344   1.442  -1.194  0.00  0.00    +0.000 A 
ATOM     16  C   UNL     1      -8.530   1.634  -0.520  0.00  0.00    +0.000 A 
ATOM     17  C   UNL     1      -9.245   0.539  -0.035  0.00  0.00    +0.000 A 
ATOM     18  C   UNL     1      -8.713  -0.712  -0.261  0.00  0.00    +0.000 A 
ATOM     19  C   UNL     1      -7.519  -0.893  -0.939  0.00  0.00    +0.000 A 
ENDBRANCH  13  14
ENDBRANCH  10  13
ENDBRANCH   4   7
BRANCH   1  20
ATOM     20  C   UNL     1       2.463  -0.167   1.394  0.00  0.00    +0.000 C 
BRANCH  20  22
ATOM     21  O   UNL     1       4.379  -0.506   0.123  0.00  0.00    +0.000 OA
ATOM     22  C   UNL     1       3.685   0.727   0.675  0.00  0.00    +0.000 C 
BRANCH  22  23
ATOM     23  C   UNL     1       4.577   0.811   2.048  0.00  0.00    +0.000 C 
BRANCH  23  24
ATOM     24  O   UNL     1       5.847   1.020   1.694  0.00  0.00    +0.000 OA
BRANCH  24  25
ATOM     25  C   UNL     1       6.873   0.491   1.034  0.00  0.00    +0.000 A 
ATOM     26  C   UNL     1       8.056   1.275   1.003  0.00  0.00    +0.000 A 
ATOM     27  C   UNL     1       9.190   0.853   0.361  0.00  0.00    +0.000 A 
ATOM     28  C   UNL     1       9.196  -0.363  -0.275  0.00  0.00    +0.000 A 
ATOM     29  C   UNL     1       8.072  -1.167  -0.276  0.00  0.00    +0.000 A 
ATOM     30  C   UNL     1       6.958  -0.712   0.375  0.00  0.00    +0.000 A 
ENDBRANCH  24  25
ENDBRANCH  23  24
ENDBRANCH  22  23
ENDBRANCH  20  22
ENDBRANCH   1  20
TORSDOF 8
