REMARK  Name = 
REMARK  7 active torsions:
REMARK  status: ('A' for Active; 'I' for Inactive)
REMARK    1  A    between atoms: C_5  and  N_6
REMARK    2  A    between atoms: N_6  and  C_7
REMARK    3  A    between atoms: C_8  and  S_9
REMARK    4  A    between atoms: S_9  and  C_10
REMARK    5  A    between atoms: N_19  and  C_20
REMARK    6  A    between atoms: C_20  and  C_21
REMARK    7  A    between atoms: C_21  and  C_22
REMARK                            x       y       z     vdW  Elec       q    Type
REMARK                         _______ _______ _______ _____ _____    ______ ____
ROOT
ATOM      1  C   UNL     1       0.008   0.686  -0.088  0.00  0.00    +0.000 C 
ATOM      2  C   UNL     1      -0.877  -0.325  -0.110  0.00  0.00    +0.000 C 
ATOM      3  C   UNL     1      -0.368  -1.413   0.702  0.00  0.00    +0.000 C 
ATOM      4  O   UNL     1      -0.940  -2.509   0.900  0.00  0.00    +0.000 OA
ATOM      5  N   UNL     1       0.892  -0.990   1.220  0.00  0.00    +0.000 N 
ATOM      6  C   UNL     1       1.134   0.311   0.735  0.00  0.00    +0.000 C 
ATOM      7  O   UNL     1       2.156   1.033   0.974  0.00  0.00    +0.000 OA
ENDROOT
BRANCH   1   8
ATOM      8  N   UNL     1      -0.097   1.934  -0.746  0.00  0.00    +0.000 NA
BRANCH   8  13
ATOM      9  C   UNL     1       0.612   6.791   2.095  0.00  0.00    +0.000 C 
ATOM     10  C   UNL     1       0.436   5.473   1.408  0.00  0.00    +0.000 A 
ATOM     11  C   UNL     1       0.544   4.279   2.070  0.00  0.00    +0.000 A 
ATOM     12  C   UNL     1       0.368   3.106   1.364  0.00  0.00    +0.000 A 
ATOM     13  C   UNL     1       0.090   3.117   0.017  0.00  0.00    +0.000 A 
ATOM     14  C   UNL     1      -0.015   4.317  -0.637  0.00  0.00    +0.000 A 
ATOM     15  C   UNL     1       0.158   5.494   0.059  0.00  0.00    +0.000 A 
ENDBRANCH   8  13
ENDBRANCH   1   8
BRANCH   2  16
ATOM     16  S   UNL     1      -2.376  -0.154  -1.048  0.00  0.00    +0.000 S 
BRANCH  16  17
ATOM     17  C   UNL     1      -3.438  -1.552  -0.987  0.00  0.00    +0.000 A 
ATOM     18  C   UNL     1      -3.235  -2.718  -0.312  0.00  0.00    +0.000 A 
ATOM     19  C   UNL     1      -4.120  -3.770  -0.315  0.00  0.00    +0.000 A 
ATOM     20  C   UNL     1      -5.309  -3.711  -1.023  0.00  0.00    +0.000 A 
ATOM     21  C   UNL     1      -6.260  -4.850  -1.021  0.00  0.00    +0.000 C 
ATOM     22  C   UNL     1      -5.530  -2.539  -1.710  0.00  0.00    +0.000 A 
ATOM     23  C   UNL     1      -4.648  -1.493  -1.707  0.00  0.00    +0.000 A 
ENDBRANCH  16  17
ENDBRANCH   2  16
BRANCH   5  24
ATOM     24  C   UNL     1       1.720  -1.803   2.083  0.00  0.00    +0.000 C 
BRANCH  24  25
ATOM     25  C   UNL     1       2.656  -2.631   1.237  0.00  0.00    +0.000 C 
BRANCH  25  26
ATOM     26  C   UNL     1       3.553  -1.802   0.391  0.00  0.00    +0.000 A 
ATOM     27  C   UNL     1       4.793  -1.374   0.840  0.00  0.00    +0.000 A 
ATOM     28  C   UNL     1       5.623  -0.606   0.052  0.00  0.00    +0.000 A 
ATOM     29  C   UNL     1       5.252  -0.230  -1.222  0.00  0.00    +0.000 A 
ATOM     30  C   UNL     1       4.021  -0.651  -1.678  0.00  0.00    +0.000 A 
ATOM     31  C   UNL     1       3.196  -1.419  -0.886  0.00  0.00    +0.000 A 
ENDBRANCH  25  26
ENDBRANCH  24  25
ENDBRANCH   5  24
TORSDOF 7
