REMARK  Name = 
REMARK  6 active torsions:
REMARK  status: ('A' for Active; 'I' for Inactive)
REMARK    1  A    between atoms: C_2  and  C_3
REMARK    2  A    between atoms: C_6  and  O_7
REMARK    3  A    between atoms: C_9  and  C_10
REMARK    4  A    between atoms: C_20  and  O_21
REMARK    5  A    between atoms: O_21  and  C_22
REMARK    6  A    between atoms: C_22  and  C_23
REMARK                            x       y       z     vdW  Elec       q    Type
REMARK                         _______ _______ _______ _____ _____    ______ ____
ROOT
ATOM      1  C   UNL     1      -3.041   0.909   1.931  0.00  0.00    +0.000 C 
ATOM      2  N   UNL     1      -3.586   2.149   1.123  0.00  0.00    +0.000 NA
ATOM      3  C   UNL     1      -3.162   2.063  -0.209  0.00  0.00    +0.000 C 
ATOM      4  C   UNL     1      -1.744   2.583  -0.303  0.00  0.00    +0.000 C 
ATOM      5  C   UNL     1      -0.966   1.697   0.589  0.00  0.00    +0.000 A 
ATOM      6  C   UNL     1      -1.520   0.990   1.534  0.00  0.00    +0.000 A 
ATOM      7  N   UNL     1      -0.571   0.302   2.161  0.00  0.00    +0.000 NA
ATOM      8  C   UNL     1       0.636   0.562   1.617  0.00  0.00    +0.000 A 
ATOM      9  C   UNL     1       1.938   0.149   1.851  0.00  0.00    +0.000 A 
ATOM     10  C   UNL     1       2.997   0.609   1.101  0.00  0.00    +0.000 A 
ATOM     11  C   UNL     1       2.761   1.508   0.084  0.00  0.00    +0.000 A 
ATOM     12  C   UNL     1       1.464   1.911  -0.140  0.00  0.00    +0.000 A 
ATOM     13  C   UNL     1       0.410   1.457   0.603  0.00  0.00    +0.000 A 
ENDROOT
BRANCH   1  18
ATOM     14  C   UNL     1      -4.834  -0.943  -0.906  0.00  0.00    +0.000 A 
ATOM     15  C   UNL     1      -4.398  -2.225  -0.706  0.00  0.00    +0.000 A 
ATOM     16  C   UNL     1      -3.523  -2.523   0.333  0.00  0.00    +0.000 A 
ATOM     17  C   UNL     1      -3.072  -1.527   1.191  0.00  0.00    +0.000 A 
ATOM     18  C   UNL     1      -3.504  -0.259   0.992  0.00  0.00    +0.000 A 
ATOM     19  C   UNL     1      -4.354   0.043  -0.013  0.00  0.00    +0.000 A 
BRANCH  14  21
ATOM     20  C   UNL     1      -4.976  -0.162  -3.198  0.00  0.00    +0.000 C 
ATOM     21  C   UNL     1      -5.768  -0.536  -1.989  0.00  0.00    +0.000 C 
ENDBRANCH  14  21
BRANCH  17  22
ATOM     22  O   UNL     1      -2.209  -1.791   2.225  0.00  0.00    +0.000 OA
ATOM     23  C   UNL     1      -1.741  -3.119   2.452  0.00  0.00    +0.000 C 
ENDBRANCH  17  22
ENDBRANCH   1  18
BRANCH  11  24
ATOM     24  O   UNL     1       3.820   2.003  -0.708  0.00  0.00    +0.000 OA
BRANCH  24  25
ATOM     25  C   UNL     1       5.124   1.598  -0.485  0.00  0.00    +0.000 C 
BRANCH  25  26
ATOM     26  C   UNL     1       5.383   0.147  -0.628  0.00  0.00    +0.000 A 
ATOM     27  C   UNL     1       5.437  -0.734   0.430  0.00  0.00    +0.000 A 
ATOM     28  C   UNL     1       5.681  -2.083   0.277  0.00  0.00    +0.000 A 
ATOM     29  C   UNL     1       5.885  -2.611  -0.974  0.00  0.00    +0.000 A 
ATOM     30  C   UNL     1       5.839  -1.759  -2.056  0.00  0.00    +0.000 A 
ATOM     31  C   UNL     1       5.594  -0.409  -1.890  0.00  0.00    +0.000 A 
ENDBRANCH  25  26
ENDBRANCH  24  25
ENDBRANCH  11  24
TORSDOF 6
