REMARK  Name = 
REMARK  9 active torsions:
REMARK  status: ('A' for Active; 'I' for Inactive)
REMARK    1  A    between atoms: C_2  and  C_3
REMARK    2  A    between atoms: C_3  and  C_6
REMARK    3  A    between atoms: C_9  and  O_10
REMARK    4  A    between atoms: O_10  and  C_11
REMARK    5  A    between atoms: C_14  and  N_15
REMARK    6  A    between atoms: C_16  and  C_18
REMARK    7  A    between atoms: C_18  and  O_19
REMARK    8  A    between atoms: O_19  and  C_20
REMARK    9  A    between atoms: C_20  and  C_22
REMARK                            x       y       z     vdW  Elec       q    Type
REMARK                         _______ _______ _______ _____ _____    ______ ____
ROOT
ATOM      1  C   UNL     1       1.494  -0.714   0.357  0.00  0.00    +0.000 A 
ATOM      2  C   UNL     1       0.263  -1.364   0.271  0.00  0.00    +0.000 A 
ATOM      3  C   UNL     1      -0.754  -0.834  -0.483  0.00  0.00    +0.000 A 
ATOM      4  C   UNL     1      -0.602   0.371  -1.200  0.00  0.00    +0.000 A 
ATOM      5  C   UNL     1       0.616   0.992  -1.099  0.00  0.00    +0.000 A 
ATOM      6  C   UNL     1       1.659   0.469  -0.336  0.00  0.00    +0.000 A 
ENDROOT
BRANCH   4   7
ATOM      7  N   UNL     1      -1.718   0.867  -1.938  0.00  0.00    +0.000 NA
ATOM      8  C   UNL     1      -3.016   0.466  -1.497  0.00  0.00    +0.000 C 
ATOM      9  O   UNL     1      -3.085  -0.311  -0.485  0.00  0.00    +0.000 OA
BRANCH   8  10
ATOM     10  C   UNL     1      -4.224   0.942  -2.196  0.00  0.00    +0.000 C 
BRANCH  10  11
ATOM     11  O   UNL     1      -5.403   0.690  -1.485  0.00  0.00    +0.000 OA
BRANCH  11  12
ATOM     12  C   UNL     1      -5.890  -0.529  -1.097  0.00  0.00    +0.000 C 
ATOM     13  O   UNL     1      -5.266  -1.588  -1.386  0.00  0.00    +0.000 OA
BRANCH  12  14
ATOM     14  C   UNL     1      -7.145  -0.616  -0.336  0.00  0.00    +0.000 A 
ATOM     15  C   UNL     1      -7.811  -1.712   0.118  0.00  0.00    +0.000 A 
ATOM     16  C   UNL     1      -8.947  -1.298   0.818  0.00  0.00    +0.000 A 
ATOM     17  C   UNL     1      -8.915   0.098   0.755  0.00  0.00    +0.000 A 
ATOM     18  N   UNL     1      -7.831   0.471   0.058  0.00  0.00    +0.000 N 
ATOM     19  C   UNL     1      -7.460   1.867  -0.208  0.00  0.00    +0.000 C 
ENDBRANCH  12  14
ENDBRANCH  11  12
ENDBRANCH  10  11
ENDBRANCH   8  10
ENDBRANCH   4   7
BRANCH   1  20
ATOM     20  O   UNL     1       2.522  -1.210   1.110  0.00  0.00    +0.000 OA
BRANCH  20  24
ATOM     21  C   UNL     1       6.461   0.037   1.184  0.00  0.00    +0.000 A 
ATOM     22  C   UNL     1       5.999  -0.807   2.151  0.00  0.00    +0.000 A 
ATOM     23  C   UNL     1       4.688  -1.228   2.136  0.00  0.00    +0.000 A 
ATOM     24  C   UNL     1       3.829  -0.804   1.152  0.00  0.00    +0.000 A 
ATOM     25  C   UNL     1       4.305   0.045   0.184  0.00  0.00    +0.000 A 
ATOM     26  C   UNL     1       5.596   0.459   0.201  0.00  0.00    +0.000 A 
BRANCH  21  27
ATOM     27  C   UNL     1       7.864   0.536   1.149  0.00  0.00    +0.000 C 
ATOM     28  C   UNL     1       8.615   0.264   2.434  0.00  0.00    +0.000 C 
ATOM     29  C   UNL     1       7.770   2.049   1.016  0.00  0.00    +0.000 C 
BRANCH  27  31
ATOM     30  C   UNL     1       7.814   0.230  -1.317  0.00  0.00    +0.000 C 
ATOM     31  C   UNL     1       8.572  -0.064  -0.033  0.00  0.00    +0.000 C 
ENDBRANCH  27  31
ENDBRANCH  21  27
ENDBRANCH  20  24
ENDBRANCH   1  20
TORSDOF 9
