REMARK  Name = 
REMARK  6 active torsions:
REMARK  status: ('A' for Active; 'I' for Inactive)
REMARK    1  A    between atoms: C_2  and  C_4
REMARK    2  A    between atoms: C_4  and  C_5
REMARK    3  A    between atoms: C_8  and  C_9
REMARK    4  A    between atoms: C_11  and  C_12
REMARK    5  A    between atoms: N_14  and  C_15
REMARK    6  A    between atoms: C_15  and  C_17
REMARK                            x       y       z     vdW  Elec       q    Type
REMARK                         _______ _______ _______ _____ _____    ______ ____
ROOT
ATOM      1  C   UNL     1       1.628   0.550   0.006  0.00  0.00    +0.000 A 
ATOM      2  C   UNL     1       0.682   0.046  -0.893  0.00  0.00    +0.000 A 
ATOM      3  C   UNL     1      -0.636  -0.049  -0.532  0.00  0.00    +0.000 A 
ATOM      4  C   UNL     1      -0.970   0.371   0.735  0.00  0.00    +0.000 A 
ATOM      5  C   UNL     1      -2.285   0.293   1.139  0.00  0.00    +0.000 A 
ATOM      6  C   UNL     1      -2.648   0.706   2.399  0.00  0.00    +0.000 A 
ATOM      7  C   UNL     1      -1.730   1.201   3.288  0.00  0.00    +0.000 A 
ATOM      8  C   UNL     1      -0.420   1.290   2.916  0.00  0.00    +0.000 A 
ATOM      9  C   UNL     1      -0.065   0.872   1.645  0.00  0.00    +0.000 A 
ATOM     10  N   UNL     1       1.213   0.935   1.219  0.00  0.00    +0.000 NA
ENDROOT
BRANCH   1  14
ATOM     11  C   UNL     1       5.727   0.885  -0.906  0.00  0.00    +0.000 A 
ATOM     12  C   UNL     1       4.868   0.396  -1.858  0.00  0.00    +0.000 A 
ATOM     13  C   UNL     1       3.509   0.287  -1.557  0.00  0.00    +0.000 A 
ATOM     14  C   UNL     1       3.021   0.661  -0.327  0.00  0.00    +0.000 A 
ATOM     15  C   UNL     1       3.905   1.142   0.592  0.00  0.00    +0.000 A 
ATOM     16  C   UNL     1       5.260   1.268   0.338  0.00  0.00    +0.000 A 
BRANCH  11  17
ATOM     17  C   UNL     1       7.181   0.993  -1.257  0.00  0.00    +0.000 C 
BRANCH  17  19
ATOM     18  C   UNL     1       7.212  -1.495  -1.669  0.00  0.00    +0.000 C 
ATOM     19  C   UNL     1       7.826  -0.346  -0.903  0.00  0.00    +0.000 C 
ATOM     20  C   UNL     1       7.878  -0.587   0.580  0.00  0.00    +0.000 C 
ENDBRANCH  17  19
ENDBRANCH  11  17
ENDBRANCH   1  14
BRANCH   3  21
ATOM     21  C   UNL     1      -1.667  -0.590  -1.419  0.00  0.00    +0.000 C 
ATOM     22  O   UNL     1      -1.387  -0.894  -2.607  0.00  0.00    +0.000 OA
ATOM     23  N   UNL     1      -2.939  -0.762  -0.922  0.00  0.00    +0.000 NA
BRANCH  23  24
ATOM     24  C   UNL     1      -4.065  -1.353  -1.855  0.00  0.00    +0.000 C 
ATOM     25  C   UNL     1      -3.924  -2.895  -1.278  0.00  0.00    +0.000 C 
BRANCH  24  26
ATOM     26  C   UNL     1      -5.244  -0.931  -0.846  0.00  0.00    +0.000 A 
ATOM     27  C   UNL     1      -5.267   0.382  -0.476  0.00  0.00    +0.000 A 
ATOM     28  C   UNL     1      -6.252   0.805   0.392  0.00  0.00    +0.000 A 
ATOM     29  N   UNL     1      -7.173  -0.038   0.873  0.00  0.00    +0.000 NA
ATOM     30  C   UNL     1      -7.102  -1.335   0.470  0.00  0.00    +0.000 A 
ATOM     31  C   UNL     1      -6.136  -1.808  -0.397  0.00  0.00    +0.000 A 
ENDBRANCH  24  26
ENDBRANCH  23  24
ENDBRANCH   3  21
TORSDOF 6
