REMARK  Name = 
REMARK  9 active torsions:
REMARK  status: ('A' for Active; 'I' for Inactive)
REMARK    1  A    between atoms: C_2  and  C_3
REMARK    2  A    between atoms: C_3  and  C_4
REMARK    3  A    between atoms: C_4  and  O_5
REMARK    4  A    between atoms: O_5  and  C_6
REMARK    5  A    between atoms: C_10  and  C_11
REMARK    6  A    between atoms: C_17  and  O_18
REMARK    7  A    between atoms: C_20  and  O_21
REMARK    8  A    between atoms: O_21  and  C_22
REMARK    9  A    between atoms: C_22  and  C_23
REMARK                            x       y       z     vdW  Elec       q    Type
REMARK                         _______ _______ _______ _____ _____    ______ ____
ROOT
ATOM      1  C   UNL     1       0.376   0.858   0.443  0.00  0.00    +0.000 C 
ATOM      2  N   UNL     1       0.126   0.825   1.991  0.00  0.00    +0.000 NA
ATOM      3  C   UNL     1       0.746  -0.259   2.549  0.00  0.00    +0.000 C 
ATOM      4  C   UNL     1       0.792  -1.551   1.876  0.00  0.00    +0.000 C 
ATOM      5  C   UNL     1      -0.235  -1.597   0.826  0.00  0.00    +0.000 A 
ATOM      6  C   UNL     1      -0.983  -2.737   0.520  0.00  0.00    +0.000 A 
ATOM      7  C   UNL     1      -1.934  -2.721  -0.477  0.00  0.00    +0.000 A 
ATOM      8  C   UNL     1      -2.098  -1.527  -1.143  0.00  0.00    +0.000 A 
ATOM      9  C   UNL     1      -1.380  -0.382  -0.871  0.00  0.00    +0.000 A 
ATOM     10  C   UNL     1      -0.445  -0.476   0.142  0.00  0.00    +0.000 A 
ENDROOT
BRANCH   1  15
ATOM     11  C   UNL     1       4.021   0.191   1.350  0.00  0.00    +0.000 A 
ATOM     12  C   UNL     1       4.377  -0.763   0.420  0.00  0.00    +0.000 A 
ATOM     13  C   UNL     1       3.453  -1.190  -0.493  0.00  0.00    +0.000 A 
ATOM     14  C   UNL     1       2.173  -0.666  -0.480  0.00  0.00    +0.000 A 
ATOM     15  C   UNL     1       1.849   0.272   0.446  0.00  0.00    +0.000 A 
ATOM     16  C   UNL     1       2.743   0.711   1.360  0.00  0.00    +0.000 A 
BRANCH  11  17
ATOM     17  O   UNL     1       4.972   0.630   2.290  0.00  0.00    +0.000 OA
BRANCH  17  18
ATOM     18  C   UNL     1       4.609   1.595   3.229  0.00  0.00    +0.000 C 
BRANCH  18  19
ATOM     19  C   UNL     1       4.176   2.861   2.537  0.00  0.00    +0.000 C 
BRANCH  19  21
ATOM     20  C   UNL     1       5.722   2.489   0.596  0.00  0.00    +0.000 C 
ATOM     21  C   UNL     1       5.280   3.447   1.676  0.00  0.00    +0.000 C 
ENDBRANCH  19  21
ENDBRANCH  18  19
ENDBRANCH  17  18
ENDBRANCH  11  17
ENDBRANCH   1  15
BRANCH   7  22
ATOM     22  O   UNL     1      -2.697  -3.841  -0.807  0.00  0.00    +0.000 OA
ATOM     23  C   UNL     1      -2.646  -5.085  -0.237  0.00  0.00    +0.000 C 
ENDBRANCH   7  22
BRANCH   8  24
ATOM     24  O   UNL     1      -3.050  -1.499  -2.146  0.00  0.00    +0.000 OA
BRANCH  24  25
ATOM     25  C   UNL     1      -3.410  -0.452  -2.953  0.00  0.00    +0.000 C 
BRANCH  25  26
ATOM     26  C   UNL     1      -3.934   0.744  -2.278  0.00  0.00    +0.000 A 
ATOM     27  C   UNL     1      -4.303   1.904  -2.881  0.00  0.00    +0.000 A 
ATOM     28  C   UNL     1      -4.789   2.968  -2.122  0.00  0.00    +0.000 A 
ATOM     29  C   UNL     1      -4.908   2.869  -0.748  0.00  0.00    +0.000 A 
ATOM     30  C   UNL     1      -4.539   1.707  -0.136  0.00  0.00    +0.000 A 
ATOM     31  C   UNL     1      -4.064   0.673  -0.900  0.00  0.00    +0.000 A 
ENDBRANCH  25  26
ENDBRANCH  24  25
ENDBRANCH   8  24
TORSDOF 9
