REMARK  Name = 
REMARK  10 active torsions:
REMARK  status: ('A' for Active; 'I' for Inactive)
REMARK    1  A    between atoms: C_2  and  N_3
REMARK    2  A    between atoms: N_3  and  C_4
REMARK    3  A    between atoms: N_3  and  C_6
REMARK    4  A    between atoms: C_6  and  C_7
REMARK    5  A    between atoms: C_7  and  C_8
REMARK    6  A    between atoms: C_8  and  N_9
REMARK    7  A    between atoms: N_9  and  C_10
REMARK    8  A    between atoms: C_11  and  C_12
REMARK    9  A    between atoms: C_12  and  C_13
REMARK   10  A    between atoms: C_21  and  C_22
REMARK                            x       y       z     vdW  Elec       q    Type
REMARK                         _______ _______ _______ _____ _____    ______ ____
ROOT
ATOM      1  C   UNL     1      -0.465   0.070   0.030  0.00  0.00    +0.000 A 
ATOM      2  C   UNL     1      -1.362  -0.561   0.921  0.00  0.00    +0.000 A 
ATOM      3  C   UNL     1      -2.356   0.175   1.495  0.00  0.00    +0.000 A 
ATOM      4  C   UNL     1      -3.340  -0.446   2.452  0.00  0.00    +0.000 C 
ATOM      5  C   UNL     1      -2.521   1.518   1.238  0.00  0.00    +0.000 A 
ATOM      6  C   UNL     1      -1.619   2.079   0.361  0.00  0.00    +0.000 A 
ATOM      7  N   UNL     1      -1.558   3.358  -0.083  0.00  0.00    +0.000 NA
ATOM      8  C   UNL     1      -0.542   3.502  -0.947  0.00  0.00    +0.000 A 
ATOM      9  C   UNL     1      -0.058   4.572  -1.681  0.00  0.00    +0.000 A 
ATOM     10  C   UNL     1       1.022   4.435  -2.526  0.00  0.00    +0.000 A 
ATOM     11  C   UNL     1       1.626   3.193  -2.632  0.00  0.00    +0.000 A 
ATOM     12  C   UNL     1       1.119   2.155  -1.888  0.00  0.00    +0.000 A 
ATOM     13  C   UNL     1       0.048   2.247  -1.036  0.00  0.00    +0.000 A 
ATOM     14  N   UNL     1      -0.616   1.390  -0.234  0.00  0.00    +0.000 N 
ENDROOT
BRANCH   5  15
ATOM     15  C   UNL     1      -3.573   2.293   1.848  0.00  0.00    +0.000 C 
ATOM     16  N   UNL     1      -4.411   2.921   2.358  0.00  0.00    +0.000 NA
ENDBRANCH   5  15
BRANCH   1  17
ATOM     17  N   UNL     1       0.526  -0.692  -0.554  0.00  0.00    +0.000 NA
BRANCH  17  18
ATOM     18  C   UNL     1       1.641  -0.637  -1.330  0.00  0.00    +0.000 C 
BRANCH  18  19
ATOM     19  C   UNL     1       2.877  -0.178  -0.570  0.00  0.00    +0.000 C 
BRANCH  19  20
ATOM     20  C   UNL     1       3.203  -1.096   0.573  0.00  0.00    +0.000 C 
BRANCH  20  21
ATOM     21  N   UNL     1       4.398  -0.558   1.220  0.00  0.00    +0.000 NA
BRANCH  21  23
ATOM     22  C   UNL     1       3.682  -1.369   3.411  0.00  0.00    +0.000 C 
ATOM     23  C   UNL     1       4.766  -1.407   2.348  0.00  0.00    +0.000 C 
ENDBRANCH  21  23
BRANCH  21  24
ATOM     24  C   UNL     1       5.462  -0.626   0.231  0.00  0.00    +0.000 C 
ATOM     25  C   UNL     1       5.503  -2.018  -0.382  0.00  0.00    +0.000 C 
ENDBRANCH  21  24
ENDBRANCH  20  21
ENDBRANCH  19  20
ENDBRANCH  18  19
ENDBRANCH  17  18
ENDBRANCH   1  17
BRANCH   2  26
ATOM     26  C   UNL     1      -1.179  -1.983   1.187  0.00  0.00    +0.000 C 
BRANCH  26  27
ATOM     27  C   UNL     1      -1.635  -2.873   0.091  0.00  0.00    +0.000 A 
ATOM     28  C   UNL     1      -0.758  -3.263  -0.913  0.00  0.00    +0.000 A 
ATOM     29  C   UNL     1      -1.166  -4.093  -1.944  0.00  0.00    +0.000 A 
ATOM     30  C   UNL     1      -2.457  -4.572  -2.027  0.00  0.00    +0.000 A 
ATOM     31  C   UNL     1      -3.335  -4.181  -1.021  0.00  0.00    +0.000 A 
ATOM     32  C   UNL     1      -2.922  -3.354   0.003  0.00  0.00    +0.000 A 
ENDBRANCH  26  27
ENDBRANCH   2  26
TORSDOF 10
