REMARK  Name = 
REMARK  7 active torsions:
REMARK  status: ('A' for Active; 'I' for Inactive)
REMARK    1  A    between atoms: O_2  and  C_3
REMARK    2  A    between atoms: C_6  and  C_7
REMARK    3  A    between atoms: C_7  and  C_8
REMARK    4  A    between atoms: C_8  and  N_9
REMARK    5  A    between atoms: C_10  and  C_12
REMARK    6  A    between atoms: C_14  and  C_15
REMARK    7  A    between atoms: C_30  and  O_31
REMARK                            x       y       z     vdW  Elec       q    Type
REMARK                         _______ _______ _______ _____ _____    ______ ____
ROOT
ATOM      1  C   UNL     1       1.618  -0.478   0.049  0.00  0.00    +0.000 A 
ATOM      2  C   UNL     1       2.621   0.441   0.395  0.00  0.00    +0.000 A 
ATOM      3  C   UNL     1       3.950   0.167   0.170  0.00  0.00    +0.000 A 
ATOM      4  N   UNL     1       4.336  -0.989  -0.386  0.00  0.00    +0.000 NA
ATOM      5  C   UNL     1       3.387  -1.907  -0.735  0.00  0.00    +0.000 A 
ATOM      6  C   UNL     1       3.773  -3.104  -1.292  0.00  0.00    +0.000 A 
ATOM      7  C   UNL     1       2.864  -4.084  -1.655  0.00  0.00    +0.000 A 
ATOM      8  C   UNL     1       1.526  -3.841  -1.446  0.00  0.00    +0.000 A 
ATOM      9  C   UNL     1       1.138  -2.631  -0.883  0.00  0.00    +0.000 A 
ATOM     10  C   UNL     1       2.041  -1.654  -0.521  0.00  0.00    +0.000 A 
ENDROOT
BRANCH   3  11
ATOM     11  C   UNL     1       4.948   1.195   0.515  0.00  0.00    +0.000 A 
ATOM     12  C   UNL     1       4.567   2.390   1.069  0.00  0.00    +0.000 A 
ATOM     13  C   UNL     1       5.469   3.379   1.378  0.00  0.00    +0.000 A 
ATOM     14  C   UNL     1       6.811   3.141   1.113  0.00  0.00    +0.000 A 
ATOM     15  C   UNL     1       7.212   1.943   0.555  0.00  0.00    +0.000 A 
ATOM     16  C   UNL     1       6.292   0.968   0.254  0.00  0.00    +0.000 A 
ATOM     17  C   UNL     1       6.748  -0.327  -0.346  0.00  0.00    +0.000 C 
ENDBRANCH   3  11
BRANCH   1  19
ATOM     18  N   UNL     1      -0.540   0.629  -0.680  0.00  0.00    +0.000 NA
ATOM     19  C   UNL     1       0.212  -0.178   0.230  0.00  0.00    +0.000 C 
ATOM     20  O   UNL     1      -0.406  -0.623   1.217  0.00  0.00    +0.000 OA
BRANCH  18  21
ATOM     21  C   UNL     1      -1.972   0.896  -0.465  0.00  0.00    +0.000 C 
BRANCH  21  22
ATOM     22  C   UNL     1      -2.799  -0.364  -0.576  0.00  0.00    +0.000 C 
BRANCH  22  26
ATOM     23  C   UNL     1      -6.947   0.732  -0.085  0.00  0.00    +0.000 A 
ATOM     24  C   UNL     1      -6.345   0.771  -1.324  0.00  0.00    +0.000 A 
ATOM     25  C   UNL     1      -4.998   0.421  -1.474  0.00  0.00    +0.000 A 
ATOM     26  C   UNL     1      -4.236   0.025  -0.390  0.00  0.00    +0.000 A 
ATOM     27  C   UNL     1      -4.859  -0.006   0.834  0.00  0.00    +0.000 A 
ATOM     28  C   UNL     1      -6.205   0.341   1.010  0.00  0.00    +0.000 A 
BRANCH  23  30
ATOM     29  C   UNL     1      -9.123   1.478  -0.936  0.00  0.00    +0.000 C 
ATOM     30  O   UNL     1      -8.270   1.067   0.120  0.00  0.00    +0.000 OA
ENDBRANCH  23  30
BRANCH  28  31
ATOM     31  O   UNL     1      -6.793   0.298   2.254  0.00  0.00    +0.000 OA
ATOM     32  C   UNL     1      -6.021  -0.097   3.363  0.00  0.00    +0.000 C 
ENDBRANCH  28  31
ENDBRANCH  22  26
ENDBRANCH  21  22
ENDBRANCH  18  21
ENDBRANCH   1  19
TORSDOF 7
