REMARK  Name = 
REMARK  8 active torsions:
REMARK  status: ('A' for Active; 'I' for Inactive)
REMARK    1  A    between atoms: C_2  and  O_3
REMARK    2  A    between atoms: O_3  and  C_4
REMARK    3  A    between atoms: C_7  and  N_8
REMARK    4  A    between atoms: C_9  and  C_11
REMARK    5  A    between atoms: C_12  and  N_13
REMARK    6  A    between atoms: C_14  and  C_16
REMARK    7  A    between atoms: C_16  and  O_17
REMARK    8  A    between atoms: O_17  and  C_18
REMARK                            x       y       z     vdW  Elec       q    Type
REMARK                         _______ _______ _______ _____ _____    ______ ____
ROOT
ATOM      1  C   UNL     1       0.164  -1.400  -0.920  0.00  0.00    +0.000 A 
ATOM      2  C   UNL     1      -1.067  -0.796  -0.905  0.00  0.00    +0.000 A 
ATOM      3  S   UNL     1      -2.132  -2.066  -1.280  0.00  0.00    +0.000 S 
ATOM      4  C   UNL     1      -1.012  -3.333  -1.449  0.00  0.00    +0.000 A 
ATOM      5  C   UNL     1       0.179  -2.727  -1.206  0.00  0.00    +0.000 A 
ATOM      6  C   UNL     1       1.237  -3.814  -1.343  0.00  0.00    +0.000 C 
ATOM      7  C   UNL     1       0.463  -5.066  -0.976  0.00  0.00    +0.000 C 
ATOM      8  C   UNL     1      -0.833  -4.802  -1.750  0.00  0.00    +0.000 C 
ENDROOT
BRANCH   1  10
ATOM      9  N   UNL     1       2.682  -1.115  -0.623  0.00  0.00    +0.000 NA
ATOM     10  C   UNL     1       1.374  -0.567  -0.627  0.00  0.00    +0.000 C 
ATOM     11  O   UNL     1       1.287   0.650  -0.371  0.00  0.00    +0.000 OA
BRANCH   9  15
ATOM     12  C   UNL     1       6.197   1.056   0.176  0.00  0.00    +0.000 A 
ATOM     13  C   UNL     1       4.994   1.697   0.202  0.00  0.00    +0.000 A 
ATOM     14  C   UNL     1       3.817   0.989  -0.061  0.00  0.00    +0.000 A 
ATOM     15  C   UNL     1       3.844  -0.356  -0.350  0.00  0.00    +0.000 A 
ATOM     16  C   UNL     1       5.065  -0.989  -0.373  0.00  0.00    +0.000 A 
ATOM     17  C   UNL     1       6.245  -0.288  -0.111  0.00  0.00    +0.000 A 
BRANCH  12  18
ATOM     18  O   UNL     1       7.410   1.694   0.427  0.00  0.00    +0.000 OA
BRANCH  18  20
ATOM     19  C   UNL     1       6.771   3.405   1.993  0.00  0.00    +0.000 C 
ATOM     20  C   UNL     1       7.533   3.053   0.733  0.00  0.00    +0.000 C 
ENDBRANCH  18  20
ENDBRANCH  12  18
ENDBRANCH   9  15
ENDBRANCH   1  10
BRANCH   2  21
ATOM     21  N   UNL     1      -1.410   0.582  -0.639  0.00  0.00    +0.000 NA
ATOM     22  C   UNL     1      -2.783   0.947  -0.688  0.00  0.00    +0.000 C 
ATOM     23  O   UNL     1      -3.628   0.076  -0.956  0.00  0.00    +0.000 OA
BRANCH  22  24
ATOM     24  C   UNL     1      -3.132   2.370  -0.412  0.00  0.00    +0.000 C 
BRANCH  24  25
ATOM     25  O   UNL     1      -4.512   2.593  -0.493  0.00  0.00    +0.000 OA
BRANCH  25  26
ATOM     26  C   UNL     1      -5.457   1.967   0.289  0.00  0.00    +0.000 A 
ATOM     27  C   UNL     1      -6.784   2.287   0.098  0.00  0.00    +0.000 A 
ATOM     28  C   UNL     1      -7.791   1.692   0.854  0.00  0.00    +0.000 A 
ATOM     29  C   UNL     1      -7.458   0.770   1.807  0.00  0.00    +0.000 A 
ATOM     30  C   UNL     1      -6.136   0.452   1.995  0.00  0.00    +0.000 A 
ATOM     31  C   UNL     1      -5.128   1.040   1.247  0.00  0.00    +0.000 A 
ENDBRANCH  25  26
ENDBRANCH  24  25
ENDBRANCH  22  24
ENDBRANCH   2  21
TORSDOF 8
