REMARK  Name = 
REMARK  9 active torsions:
REMARK  status: ('A' for Active; 'I' for Inactive)
REMARK    1  A    between atoms: C_2  and  O_3
REMARK    2  A    between atoms: O_3  and  C_4
REMARK    3  A    between atoms: C_4  and  C_6
REMARK    4  A    between atoms: C_9  and  N_10
REMARK    5  A    between atoms: N_10  and  C_11
REMARK    6  A    between atoms: C_11  and  C_12
REMARK    7  A    between atoms: C_11  and  C_22
REMARK    8  A    between atoms: C_15  and  O_16
REMARK    9  A    between atoms: C_18  and  O_19
REMARK                            x       y       z     vdW  Elec       q    Type
REMARK                         _______ _______ _______ _____ _____    ______ ____
ROOT
ATOM      1  C   UNL     1       0.407   1.005  -0.803  0.00  0.00    +0.000 C 
ENDROOT
BRANCH   1   2
ATOM      2  C   UNL     1       0.721  -0.528  -1.031  0.00  0.00    +0.000 A 
ATOM      3  C   UNL     1       1.234  -0.952  -2.235  0.00  0.00    +0.000 A 
ATOM      4  C   UNL     1       1.565  -0.189  -3.457  0.00  0.00    +0.000 C 
ATOM      5  N   UNL     1       1.417  -2.307  -2.150  0.00  0.00    +0.000 NA
ATOM      6  C   UNL     1       1.031  -2.728  -0.927  0.00  0.00    +0.000 A 
ATOM      7  C   UNL     1       0.977  -3.917  -0.263  0.00  0.00    +0.000 A 
ATOM      8  C   UNL     1       0.518  -4.018   1.030  0.00  0.00    +0.000 A 
ATOM      9  C   UNL     1       0.086  -2.882   1.711  0.00  0.00    +0.000 A 
ATOM     10  C   UNL     1       0.144  -1.685   1.032  0.00  0.00    +0.000 A 
ATOM     11  C   UNL     1       0.603  -1.589  -0.258  0.00  0.00    +0.000 A 
ENDBRANCH   1   2
BRANCH   1  12
ATOM     12  C   UNL     1       1.887   1.496  -0.573  0.00  0.00    +0.000 A 
ATOM     13  C   UNL     1       2.043   2.597   0.217  0.00  0.00    +0.000 A 
ATOM     14  C   UNL     1       3.347   3.085   0.476  0.00  0.00    +0.000 A 
ATOM     15  C   UNL     1       4.439   2.443  -0.072  0.00  0.00    +0.000 A 
ATOM     16  C   UNL     1       4.249   1.339  -0.862  0.00  0.00    +0.000 A 
ATOM     17  C   UNL     1       2.964   0.901  -1.087  0.00  0.00    +0.000 A 
BRANCH  15  18
ATOM     18  O   UNL     1       5.750   2.916   0.178  0.00  0.00    +0.000 OA
ATOM     19  C   UNL     1       5.870   4.064   0.994  0.00  0.00    +0.000 C 
ENDBRANCH  15  18
BRANCH  16  20
ATOM     20  O   UNL     1       5.284   0.635  -1.452  0.00  0.00    +0.000 OA
ATOM     21  C   UNL     1       5.053  -0.499  -2.262  0.00  0.00    +0.000 C 
ENDBRANCH  16  20
ENDBRANCH   1  12
BRANCH   1  22
ATOM     22  N   UNL     1      -0.011   1.013   0.715  0.00  0.00    +0.000 NA
BRANCH  22  26
ATOM     23  C   UNL     1      -4.088   0.168   1.259  0.00  0.00    +0.000 A 
ATOM     24  C   UNL     1      -3.567   0.158  -0.014  0.00  0.00    +0.000 A 
ATOM     25  C   UNL     1      -2.213   0.438  -0.185  0.00  0.00    +0.000 A 
ATOM     26  C   UNL     1      -1.379   0.723   0.859  0.00  0.00    +0.000 A 
ATOM     27  C   UNL     1      -1.931   0.727   2.136  0.00  0.00    +0.000 A 
ATOM     28  C   UNL     1      -3.280   0.450   2.332  0.00  0.00    +0.000 A 
BRANCH  23  29
ATOM     29  C   UNL     1      -5.493  -0.124   1.432  0.00  0.00    +0.000 C 
ATOM     30  O   UNL     1      -6.254  -0.386   0.468  0.00  0.00    +0.000 OA
BRANCH  29  31
ATOM     31  O   UNL     1      -6.093  -0.132   2.708  0.00  0.00    +0.000 OA
BRANCH  31  33
ATOM     32  C   UNL     1      -7.811  -1.804   2.363  0.00  0.00    +0.000 C 
ATOM     33  C   UNL     1      -7.469  -0.417   2.881  0.00  0.00    +0.000 C 
ENDBRANCH  31  33
ENDBRANCH  29  31
ENDBRANCH  23  29
ENDBRANCH  22  26
ENDBRANCH   1  22
TORSDOF 9
