REMARK  Name = 
REMARK  8 active torsions:
REMARK  status: ('A' for Active; 'I' for Inactive)
REMARK    1  A    between atoms: C_2  and  C_3
REMARK    2  A    between atoms: C_3  and  C_4
REMARK    3  A    between atoms: C_4  and  C_5
REMARK    4  A    between atoms: C_5  and  N_6
REMARK    5  A    between atoms: C_9  and  C_10
REMARK    6  A    between atoms: N_12  and  C_13
REMARK    7  A    between atoms: C_13  and  C_14
REMARK    8  A    between atoms: C_14  and  C_15
REMARK                            x       y       z     vdW  Elec       q    Type
REMARK                         _______ _______ _______ _____ _____    ______ ____
ROOT
ATOM      1  N   UNL     1      -1.195   2.578   0.033  0.00  0.00    +0.000 N 
ATOM      2  C   UNL     1      -0.233   2.563  -0.895  0.00  0.00    +0.000 A 
ATOM      3  N   UNL     1       0.152   3.659  -1.742  0.00  0.00    +0.000 NA
ATOM      4  C   UNL     1       0.367   1.331  -0.943  0.00  0.00    +0.000 A 
ATOM      5  C   UNL     1      -0.283   0.562   0.021  0.00  0.00    +0.000 A 
ATOM      6  N   UNL     1      -0.111  -0.726   0.412  0.00  0.00    +0.000 NA
ATOM      7  C   UNL     1      -0.925  -1.194   1.405  0.00  0.00    +0.000 A 
ATOM      8  C   UNL     1      -0.758  -2.510   1.813  0.00  0.00    +0.000 A 
ATOM      9  C   UNL     1      -1.574  -2.981   2.809  0.00  0.00    +0.000 A 
ATOM     10  C   UNL     1      -2.543  -2.213   3.416  0.00  0.00    +0.000 A 
ATOM     11  C   UNL     1      -2.693  -0.919   3.001  0.00  0.00    +0.000 A 
ATOM     12  C   UNL     1      -1.882  -0.397   1.988  0.00  0.00    +0.000 A 
ATOM     13  N   UNL     1      -2.049   0.886   1.593  0.00  0.00    +0.000 NA
ATOM     14  C   UNL     1      -1.234   1.352   0.601  0.00  0.00    +0.000 A 
ENDROOT
BRANCH   4  15
ATOM     15  C   UNL     1       1.450   0.862  -1.790  0.00  0.00    +0.000 C 
ATOM     16  O   UNL     1       1.993   1.610  -2.640  0.00  0.00    +0.000 OA
ATOM     17  N   UNL     1       1.900  -0.472  -1.648  0.00  0.00    +0.000 NA
BRANCH  17  18
ATOM     18  C   UNL     1       2.994  -0.945  -2.504  0.00  0.00    +0.000 C 
BRANCH  18  19
ATOM     19  C   UNL     1       3.254  -2.382  -2.133  0.00  0.00    +0.000 C 
BRANCH  19  20
ATOM     20  C   UNL     1       3.638  -2.442  -0.684  0.00  0.00    +0.000 A 
ATOM     21  C   UNL     1       2.685  -2.599   0.302  0.00  0.00    +0.000 A 
ATOM     22  C   UNL     1       3.027  -2.656   1.639  0.00  0.00    +0.000 A 
ATOM     23  C   UNL     1       4.348  -2.555   2.040  0.00  0.00    +0.000 A 
ATOM     24  C   UNL     1       5.297  -2.397   1.051  0.00  0.00    +0.000 A 
ATOM     25  C   UNL     1       4.953  -2.342  -0.283  0.00  0.00    +0.000 A 
ENDBRANCH  19  20
ENDBRANCH  18  19
ENDBRANCH  17  18
ENDBRANCH   4  15
BRANCH   1  26
ATOM     26  C   UNL     1      -2.075   3.696   0.401  0.00  0.00    +0.000 C 
BRANCH  26  27
ATOM     27  C   UNL     1      -3.297   3.565  -0.508  0.00  0.00    +0.000 C 
BRANCH  27  28
ATOM     28  C   UNL     1      -3.904   2.197  -0.196  0.00  0.00    +0.000 C 
BRANCH  28  30
ATOM     29  C   UNL     1      -6.182   2.947  -0.761  0.00  0.00    +0.000 C 
ATOM     30  C   UNL     1      -5.121   1.921  -1.015  0.00  0.00    +0.000 C 
ENDBRANCH  28  30
ENDBRANCH  27  28
ENDBRANCH  26  27
ENDBRANCH   1  26
TORSDOF 8
