REMARK  Name = 
REMARK  9 active torsions:
REMARK  status: ('A' for Active; 'I' for Inactive)
REMARK    1  A    between atoms: C_2  and  C_3
REMARK    2  A    between atoms: C_3  and  C_4
REMARK    3  A    between atoms: C_4  and  C_5
REMARK    4  A    between atoms: C_5  and  C_6
REMARK    5  A    between atoms: C_6  and  O_7
REMARK    6  A    between atoms: O_7  and  C_8
REMARK    7  A    between atoms: C_8  and  C_10
REMARK    8  A    between atoms: N_13  and  C_14
REMARK    9  A    between atoms: C_14  and  C_16
REMARK                            x       y       z     vdW  Elec       q    Type
REMARK                         _______ _______ _______ _____ _____    ______ ____
ROOT
ATOM      1  C   UNL     1       0.641  -1.077   0.328  0.00  0.00    +0.000 A 
ATOM      2  C   UNL     1       0.801  -0.306  -0.831  0.00  0.00    +0.000 A 
ATOM      3  N   UNL     1       2.021   0.051  -1.468  0.00  0.00    +0.000 NA
ATOM      4  N   UNL     1      -0.439   0.028  -1.218  0.00  0.00    +0.000 N 
ATOM      5  C   UNL     1      -1.328  -0.471  -0.398  0.00  0.00    +0.000 A 
ATOM      6  N   UNL     1      -2.668  -0.391  -0.400  0.00  0.00    +0.000 NA
ATOM      7  C   UNL     1      -3.378  -1.000   0.566  0.00  0.00    +0.000 A 
ATOM      8  C   UNL     1      -4.759  -0.928   0.580  0.00  0.00    +0.000 A 
ATOM      9  C   UNL     1      -5.539  -1.530   1.540  0.00  0.00    +0.000 A 
ATOM     10  C   UNL     1      -4.921  -2.244   2.546  0.00  0.00    +0.000 A 
ATOM     11  C   UNL     1      -3.542  -2.338   2.566  0.00  0.00    +0.000 A 
ATOM     12  C   UNL     1      -2.788  -1.722   1.587  0.00  0.00    +0.000 A 
ATOM     13  N   UNL     1      -1.444  -1.775   1.548  0.00  0.00    +0.000 NA
ATOM     14  C   UNL     1      -0.701  -1.186   0.608  0.00  0.00    +0.000 A 
ENDROOT
BRANCH   1  15
ATOM     15  C   UNL     1       1.722  -1.654   1.089  0.00  0.00    +0.000 C 
ATOM     16  O   UNL     1       1.493  -2.331   2.115  0.00  0.00    +0.000 OA
BRANCH  15  17
ATOM     17  O   UNL     1       3.039  -1.484   0.720  0.00  0.00    +0.000 OA
BRANCH  17  18
ATOM     18  C   UNL     1       4.105  -2.046   1.460  0.00  0.00    +0.000 C 
BRANCH  18  19
ATOM     19  C   UNL     1       5.402  -1.665   0.779  0.00  0.00    +0.000 C 
BRANCH  19  20
ATOM     20  C   UNL     1       5.454  -0.148   0.784  0.00  0.00    +0.000 C 
BRANCH  20  21
ATOM     21  C   UNL     1       6.726   0.312   0.118  0.00  0.00    +0.000 C 
BRANCH  21  23
ATOM     22  C   UNL     1       8.075   2.231  -0.557  0.00  0.00    +0.000 C 
ATOM     23  C   UNL     1       6.765   1.827   0.131  0.00  0.00    +0.000 C 
ENDBRANCH  21  23
ENDBRANCH  20  21
ENDBRANCH  19  20
ENDBRANCH  18  19
ENDBRANCH  17  18
ENDBRANCH  15  17
ENDBRANCH   1  15
BRANCH   4  24
ATOM     24  C   UNL     1      -0.704   0.904  -2.487  0.00  0.00    +0.000 C 
ATOM     25  C   UNL     1      -2.026   0.046  -2.989  0.00  0.00    +0.000 C 
BRANCH  24  26
ATOM     26  C   UNL     1      -1.487   2.100  -1.731  0.00  0.00    +0.000 A 
ATOM     27  C   UNL     1      -2.800   2.127  -1.594  0.00  0.00    +0.000 A 
ATOM     28  C   UNL     1      -3.352   3.206  -0.926  0.00  0.00    +0.000 A 
ATOM     29  C   UNL     1      -2.556   4.228  -0.415  0.00  0.00    +0.000 A 
ATOM     30  C   UNL     1      -1.189   4.153  -0.584  0.00  0.00    +0.000 A 
ATOM     31  C   UNL     1      -0.623   3.083  -1.249  0.00  0.00    +0.000 A 
ENDBRANCH  24  26
ENDBRANCH   4  24
TORSDOF 9
