REMARK  Name = 
REMARK  9 active torsions:
REMARK  status: ('A' for Active; 'I' for Inactive)
REMARK    1  A    between atoms: C_2  and  C_3
REMARK    2  A    between atoms: C_3  and  C_4
REMARK    3  A    between atoms: C_4  and  C_5
REMARK    4  A    between atoms: C_5  and  C_6
REMARK    5  A    between atoms: C_6  and  C_7
REMARK    6  A    between atoms: C_8  and  C_9
REMARK    7  A    between atoms: N_11  and  C_12
REMARK    8  A    between atoms: C_12  and  C_14
REMARK    9  A    between atoms: C_21  and  C_22
REMARK                            x       y       z     vdW  Elec       q    Type
REMARK                         _______ _______ _______ _____ _____    ______ ____
ROOT
ATOM      1  C   UNL     1      -1.377   0.765  -0.378  0.00  0.00    +0.000 C 
ATOM      2  C   UNL     1      -0.207   0.268  -0.308  0.00  0.00    +0.000 C 
ATOM      3  C   UNL     1      -0.245  -0.950   0.757  0.00  0.00    +0.000 C 
ATOM      4  O   UNL     1      -1.406  -0.349   1.572  0.00  0.00    +0.000 OA
ATOM      5  N   UNL     1      -2.198   0.028   0.533  0.00  0.00    +0.000 NA
ENDROOT
BRANCH   3   6
ATOM      6  C   UNL     1      -1.202  -1.962  -0.103  0.00  0.00    +0.000 A 
ATOM      7  C   UNL     1      -0.917  -2.088  -1.419  0.00  0.00    +0.000 A 
ATOM      8  C   UNL     1      -1.733  -2.957  -2.118  0.00  0.00    +0.000 A 
ATOM      9  C   UNL     1      -2.768  -3.644  -1.500  0.00  0.00    +0.000 A 
ATOM     10  C   UNL     1      -2.992  -3.454  -0.140  0.00  0.00    +0.000 A 
ATOM     11  C   UNL     1      -4.026  -4.147   0.450  0.00  0.00    +0.000 A 
ATOM     12  C   UNL     1      -4.255  -3.960   1.808  0.00  0.00    +0.000 A 
ATOM     13  C   UNL     1      -3.446  -3.095   2.516  0.00  0.00    +0.000 A 
ATOM     14  C   UNL     1      -2.410  -2.400   1.933  0.00  0.00    +0.000 A 
ATOM     15  C   UNL     1      -2.189  -2.588   0.588  0.00  0.00    +0.000 A 
ENDBRANCH   3   6
BRANCH   2  16
ATOM     16  C   UNL     1       0.991   0.640  -1.001  0.00  0.00    +0.000 C 
ATOM     17  O   UNL     1       0.877   1.622  -1.813  0.00  0.00    +0.000 OA
ATOM     18  N   UNL     1       2.264   0.133  -0.958  0.00  0.00    +0.000 NA
BRANCH  18  19
ATOM     19  C   UNL     1       3.409   0.767  -1.857  0.00  0.00    +0.000 C 
ATOM     20  C   UNL     1       3.084   2.376  -1.450  0.00  0.00    +0.000 C 
BRANCH  19  21
ATOM     21  C   UNL     1       4.578   0.557  -0.765  0.00  0.00    +0.000 A 
ATOM     22  C   UNL     1       5.430   1.555  -0.485  0.00  0.00    +0.000 A 
ATOM     23  C   UNL     1       6.415   1.300   0.454  0.00  0.00    +0.000 A 
ATOM     24  C   UNL     1       6.530   0.101   1.076  0.00  0.00    +0.000 A 
ATOM     25  F   UNL     1       7.524  -0.084   1.995  0.00  0.00    +0.000 F 
ATOM     26  C   UNL     1       5.635  -0.922   0.771  0.00  0.00    +0.000 A 
ATOM     27  C   UNL     1       4.657  -0.658  -0.166  0.00  0.00    +0.000 A 
ENDBRANCH  19  21
ENDBRANCH  18  19
ENDBRANCH   2  16
BRANCH   1  28
ATOM     28  C   UNL     1      -1.744   1.908  -1.259  0.00  0.00    +0.000 C 
BRANCH  28  29
ATOM     29  C   UNL     1      -2.220   3.097  -0.523  0.00  0.00    +0.000 C 
BRANCH  29  30
ATOM     30  C   UNL     1      -3.440   2.735   0.272  0.00  0.00    +0.000 C 
BRANCH  30  31
ATOM     31  C   UNL     1      -3.865   4.002   1.002  0.00  0.00    +0.000 C 
BRANCH  31  33
ATOM     32  C   UNL     1      -4.591   6.354   0.582  0.00  0.00    +0.000 C 
ATOM     33  C   UNL     1      -4.160   5.054  -0.067  0.00  0.00    +0.000 C 
ENDBRANCH  31  33
ENDBRANCH  30  31
ENDBRANCH  29  30
ENDBRANCH  28  29
ENDBRANCH   1  28
TORSDOF 9
