REMARK  Name = 
REMARK  7 active torsions:
REMARK  status: ('A' for Active; 'I' for Inactive)
REMARK    1  A    between atoms: O_2  and  C_3
REMARK    2  A    between atoms: C_6  and  N_7
REMARK    3  A    between atoms: C_8  and  C_10
REMARK    4  A    between atoms: C_11  and  N_12
REMARK    5  A    between atoms: C_13  and  C_15
REMARK    6  A    between atoms: C_15  and  O_16
REMARK    7  A    between atoms: O_16  and  C_17
REMARK                            x       y       z     vdW  Elec       q    Type
REMARK                         _______ _______ _______ _____ _____    ______ ____
ROOT
ATOM      1  C   UNL     1      -0.100   0.849   0.473  0.00  0.00    +0.000 A 
ATOM      2  C   UNL     1      -1.354   0.592   0.042  0.00  0.00    +0.000 A 
ATOM      3  S   UNL     1      -2.160   2.135   0.416  0.00  0.00    +0.000 S 
ATOM      4  C   UNL     1      -0.859   2.958   1.088  0.00  0.00    +0.000 A 
ATOM      5  C   UNL     1       0.157   2.067   1.017  0.00  0.00    +0.000 A 
ATOM      6  C   UNL     1       1.415   2.699   1.609  0.00  0.00    +0.000 C 
ATOM      7  C   UNL     1       1.830   3.893   0.923  0.00  0.00    +0.000 C 
ATOM      8  C   UNL     1       0.590   4.918   0.630  0.00  0.00    +0.000 C 
ATOM      9  C   UNL     1       1.150   6.036   1.705  0.00  0.00    +0.000 C 
ATOM     10  C   UNL     1      -0.478   4.284   1.706  0.00  0.00    +0.000 C 
ENDROOT
BRANCH   1  12
ATOM     11  N   UNL     1       2.321   0.169   0.768  0.00  0.00    +0.000 NA
ATOM     12  C   UNL     1       1.049  -0.064   0.160  0.00  0.00    +0.000 C 
ATOM     13  O   UNL     1       0.978  -1.019  -0.595  0.00  0.00    +0.000 OA
BRANCH  11  17
ATOM     14  C   UNL     1       5.629  -2.370  -0.055  0.00  0.00    +0.000 A 
ATOM     15  C   UNL     1       5.730  -1.288   0.816  0.00  0.00    +0.000 A 
ATOM     16  C   UNL     1       4.644  -0.487   1.061  0.00  0.00    +0.000 A 
ATOM     17  C   UNL     1       3.424  -0.704   0.474  0.00  0.00    +0.000 A 
ATOM     18  C   UNL     1       3.316  -1.773  -0.389  0.00  0.00    +0.000 A 
ATOM     19  C   UNL     1       4.408  -2.601  -0.653  0.00  0.00    +0.000 A 
BRANCH  14  21
ATOM     20  C   UNL     1       6.669  -4.258  -1.155  0.00  0.00    +0.000 C 
ATOM     21  O   UNL     1       6.731  -3.152  -0.279  0.00  0.00    +0.000 OA
ENDBRANCH  14  21
ENDBRANCH  11  17
ENDBRANCH   1  12
BRANCH   2  22
ATOM     22  N   UNL     1      -2.086  -0.534  -0.375  0.00  0.00    +0.000 NA
ATOM     23  C   UNL     1      -1.854  -1.848  -0.089  0.00  0.00    +0.000 C 
ATOM     24  O   UNL     1      -0.952  -2.310   0.642  0.00  0.00    +0.000 OA
BRANCH  23  25
ATOM     25  C   UNL     1      -2.744  -2.911  -0.686  0.00  0.00    +0.000 C 
BRANCH  25  26
ATOM     26  O   UNL     1      -3.724  -2.301  -1.469  0.00  0.00    +0.000 OA
BRANCH  26  27
ATOM     27  C   UNL     1      -4.643  -1.411  -0.984  0.00  0.00    +0.000 A 
ATOM     28  C   UNL     1      -5.556  -0.890  -1.905  0.00  0.00    +0.000 A 
ATOM     29  C   UNL     1      -6.513   0.002  -1.535  0.00  0.00    +0.000 A 
ATOM     30  C   UNL     1      -6.578   0.400  -0.212  0.00  0.00    +0.000 A 
ATOM     31  C   UNL     1      -5.694  -0.092   0.729  0.00  0.00    +0.000 A 
ATOM     32  C   UNL     1      -4.747  -0.985   0.321  0.00  0.00    +0.000 A 
ENDBRANCH  26  27
ENDBRANCH  25  26
ENDBRANCH  23  25
ENDBRANCH   2  22
TORSDOF 7
