REMARK  Name = 
REMARK  8 active torsions:
REMARK  status: ('A' for Active; 'I' for Inactive)
REMARK    1  A    between atoms: O_2  and  C_3
REMARK    2  A    between atoms: C_8  and  O_9
REMARK    3  A    between atoms: O_9  and  C_10
REMARK    4  A    between atoms: C_10  and  C_11
REMARK    5  A    between atoms: C_17  and  C_18
REMARK    6  A    between atoms: C_21  and  O_22
REMARK    7  A    between atoms: O_22  and  C_23
REMARK    8  A    between atoms: C_23  and  C_24
REMARK                            x       y       z     vdW  Elec       q    Type
REMARK                         _______ _______ _______ _____ _____    ______ ____
ROOT
ATOM      1  C   UNL     1      -1.902  -0.554  -1.655  0.00  0.00    +0.000 A 
ATOM      2  C   UNL     1      -0.628  -0.429  -2.193  0.00  0.00    +0.000 A 
ATOM      3  C   UNL     1       0.319   0.404  -1.563  0.00  0.00    +0.000 A 
ATOM      4  C   UNL     1      -0.098   1.043  -0.441  0.00  0.00    +0.000 A 
ATOM      5  C   UNL     1      -1.329   0.914   0.069  0.00  0.00    +0.000 A 
ATOM      6  C   UNL     1      -2.279   0.112  -0.516  0.00  0.00    +0.000 A 
ATOM      7  C   UNL     1       1.020   1.944   0.177  0.00  0.00    +0.000 C 
ATOM      8  N   UNL     1       1.341   2.727  -1.123  0.00  0.00    +0.000 NA
ATOM      9  C   UNL     1       2.162   1.933  -1.966  0.00  0.00    +0.000 C 
ATOM     10  C   UNL     1       1.688   0.520  -2.159  0.00  0.00    +0.000 C 
ENDROOT
BRANCH   7  11
ATOM     11  C   UNL     1       2.213   0.967   0.214  0.00  0.00    +0.000 A 
ATOM     12  C   UNL     1       1.924  -0.327   0.559  0.00  0.00    +0.000 A 
ATOM     13  C   UNL     1       2.916  -1.303   0.634  0.00  0.00    +0.000 A 
ATOM     14  C   UNL     1       4.240  -0.981   0.354  0.00  0.00    +0.000 A 
ATOM     15  C   UNL     1       4.495   0.322   0.012  0.00  0.00    +0.000 A 
ATOM     16  C   UNL     1       3.489   1.266  -0.053  0.00  0.00    +0.000 A 
BRANCH  14  17
ATOM     17  O   UNL     1       5.235  -1.938   0.423  0.00  0.00    +0.000 OA
BRANCH  17  18
ATOM     18  C   UNL     1       6.573  -1.884   0.207  0.00  0.00    +0.000 C 
BRANCH  18  19
ATOM     19  C   UNL     1       7.437  -1.015   1.016  0.00  0.00    +0.000 C 
ATOM     20  C   UNL     1       7.443  -1.272   2.480  0.00  0.00    +0.000 C 
ATOM     21  C   UNL     1       7.226   0.440   0.747  0.00  0.00    +0.000 C 
ENDBRANCH  18  19
ENDBRANCH  17  18
ENDBRANCH  14  17
ENDBRANCH   7  11
BRANCH   1  23
ATOM     22  C   UNL     1      -2.604  -2.106  -3.422  0.00  0.00    +0.000 C 
ATOM     23  O   UNL     1      -2.861  -1.373  -2.258  0.00  0.00    +0.000 OA
ENDBRANCH   1  23
BRANCH   6  24
ATOM     24  O   UNL     1      -3.532  -0.025  -0.006  0.00  0.00    +0.000 OA
BRANCH  24  25
ATOM     25  C   UNL     1      -4.026   0.605   1.147  0.00  0.00    +0.000 C 
BRANCH  25  26
ATOM     26  C   UNL     1      -5.426   0.197   1.363  0.00  0.00    +0.000 A 
ATOM     27  C   UNL     1      -5.728  -0.904   2.117  0.00  0.00    +0.000 A 
ATOM     28  C   UNL     1      -7.058  -1.297   2.326  0.00  0.00    +0.000 A 
ATOM     29  C   UNL     1      -8.032  -0.521   1.736  0.00  0.00    +0.000 A 
ATOM     30  C   UNL     1      -7.779   0.592   0.971  0.00  0.00    +0.000 A 
ATOM     31  C   UNL     1      -6.437   0.928   0.803  0.00  0.00    +0.000 A 
ENDBRANCH  25  26
ENDBRANCH  24  25
ENDBRANCH   6  24
TORSDOF 8
