REMARK  Name = 
REMARK  9 active torsions:
REMARK  status: ('A' for Active; 'I' for Inactive)
REMARK    1  A    between atoms: C_2  and  O_3
REMARK    2  A    between atoms: O_3  and  C_4
REMARK    3  A    between atoms: C_4  and  C_6
REMARK    4  A    between atoms: C_6  and  C_7
REMARK    5  A    between atoms: C_7  and  C_9
REMARK    6  A    between atoms: C_9  and  C_10
REMARK    7  A    between atoms: C_10  and  C_12
REMARK    8  A    between atoms: C_13  and  C_14
REMARK    9  A    between atoms: C_15  and  C_16
REMARK                            x       y       z     vdW  Elec       q    Type
REMARK                         _______ _______ _______ _____ _____    ______ ____
ROOT
ATOM      1  C   UNL     1      -0.281  -0.794  -0.970  0.00  0.00    +0.000 A 
ATOM      2  C   UNL     1      -1.455  -0.521  -0.274  0.00  0.00    +0.000 A 
ATOM      3  C   UNL     1      -2.521  -0.566  -1.149  0.00  0.00    +0.000 A 
ATOM      4  C   UNL     1      -3.859  -0.362  -0.912  0.00  0.00    +0.000 A 
ATOM      5  C   UNL     1      -4.255  -0.064   0.375  0.00  0.00    +0.000 A 
ATOM      6  C   UNL     1      -5.602   0.139   0.599  0.00  0.00    +0.000 A 
ATOM      7  C   UNL     1      -6.506   0.043  -0.439  0.00  0.00    +0.000 A 
ATOM      8  C   UNL     1      -6.067  -0.256  -1.712  0.00  0.00    +0.000 A 
ATOM      9  C   UNL     1      -4.732  -0.461  -1.952  0.00  0.00    +0.000 A 
ATOM     10  C   UNL     1      -4.220  -0.764  -3.196  0.00  0.00    +0.000 A 
ATOM     11  C   UNL     1      -2.876  -0.965  -3.416  0.00  0.00    +0.000 A 
ATOM     12  N   UNL     1      -2.016  -0.861  -2.362  0.00  0.00    +0.000 N 
ATOM     13  C   UNL     1      -0.685  -1.001  -2.276  0.00  0.00    +0.000 A 
ATOM     14  C   UNL     1       0.270  -1.325  -3.363  0.00  0.00    +0.000 C 
ENDROOT
BRANCH   2  15
ATOM     15  C   UNL     1      -1.553  -0.228   1.170  0.00  0.00    +0.000 A 
ATOM     16  C   UNL     1      -1.294   1.018   1.686  0.00  0.00    +0.000 A 
ATOM     17  C   UNL     1      -1.365   1.359   3.005  0.00  0.00    +0.000 A 
ATOM     18  C   UNL     1      -1.721   0.409   3.935  0.00  0.00    +0.000 A 
ATOM     19  C   UNL     1      -1.991  -0.856   3.470  0.00  0.00    +0.000 A 
ATOM     20  C   UNL     1      -1.908  -1.163   2.117  0.00  0.00    +0.000 A 
ENDBRANCH   2  15
BRANCH   1  22
ATOM     21  C   UNL     1       2.099  -0.899  -0.076  0.00  0.00    +0.000 C 
ATOM     22  C   UNL     1       0.952  -0.811  -0.312  0.00  0.00    +0.000 C 
BRANCH  21  23
ATOM     23  C   UNL     1       3.400  -1.219  -0.947  0.00  0.00    +0.000 C 
ATOM     24  O   UNL     1       4.085  -1.985   0.151  0.00  0.00    +0.000 OA
BRANCH  23  25
ATOM     25  C   UNL     1       4.106   0.207  -0.565  0.00  0.00    +0.000 C 
BRANCH  25  26
ATOM     26  C   UNL     1       5.649  -0.238  -0.778  0.00  0.00    +0.000 C 
ATOM     27  O   UNL     1       5.797  -0.823   0.599  0.00  0.00    +0.000 OA
BRANCH  26  28
ATOM     28  C   UNL     1       6.260   1.216  -0.400  0.00  0.00    +0.000 C 
BRANCH  28  29
ATOM     29  C   UNL     1       5.532   1.877   0.620  0.00  0.00    +0.000 C 
ATOM     30  O   UNL     1       5.863   3.067   0.949  0.00  0.00    +0.000 OA
BRANCH  29  31
ATOM     31  O   UNL     1       4.475   1.355   1.312  0.00  0.00    +0.000 OA
BRANCH  31  33
ATOM     32  C   UNL     1       2.673   1.013   2.782  0.00  0.00    +0.000 C 
ATOM     33  C   UNL     1       3.746   2.013   2.331  0.00  0.00    +0.000 C 
ENDBRANCH  31  33
ENDBRANCH  29  31
ENDBRANCH  28  29
ENDBRANCH  26  28
ENDBRANCH  25  26
ENDBRANCH  23  25
ENDBRANCH  21  23
ENDBRANCH   1  22
TORSDOF 9
