REMARK  Name = 
REMARK  7 active torsions:
REMARK  status: ('A' for Active; 'I' for Inactive)
REMARK    1  A    between atoms: C_2  and  C_3
REMARK    2  A    between atoms: C_2  and  C_14
REMARK    3  A    between atoms: C_2  and  C_20
REMARK    4  A    between atoms: C_3  and  C_4
REMARK    5  A    between atoms: C_5  and  C_6
REMARK    6  A    between atoms: C_6  and  N_7
REMARK    7  A    between atoms: C_23  and  C_24
REMARK                            x       y       z     vdW  Elec       q    Type
REMARK                         _______ _______ _______ _____ _____    ______ ____
ROOT
ATOM      1  O   UNL     1       0.532   0.642  -1.625  0.00  0.00    +0.000 OA
ATOM      2  C   UNL     1       0.051   0.337  -0.366  0.00  0.00    +0.000 C 
ENDROOT
BRANCH   2   3
ATOM      3  C   UNL     1       0.241  -1.117  -0.134  0.00  0.00    +0.000 A 
ATOM      4  C   UNL     1      -0.436  -2.000  -0.938  0.00  0.00    +0.000 A 
ATOM      5  C   UNL     1      -0.347  -3.376  -0.828  0.00  0.00    +0.000 A 
ATOM      6  C   UNL     1       0.499  -3.836   0.181  0.00  0.00    +0.000 A 
ATOM      7  C   UNL     1       1.187  -2.959   0.997  0.00  0.00    +0.000 A 
ATOM      8  C   UNL     1       1.078  -1.591   0.864  0.00  0.00    +0.000 A 
ENDBRANCH   2   3
BRANCH   2   9
ATOM      9  C   UNL     1      -1.420   0.603  -0.322  0.00  0.00    +0.000 A 
ATOM     10  C   UNL     1      -2.114   1.113  -1.402  0.00  0.00    +0.000 A 
ATOM     11  C   UNL     1      -3.486   1.355  -1.313  0.00  0.00    +0.000 A 
ATOM     12  C   UNL     1      -4.208   1.105  -0.170  0.00  0.00    +0.000 A 
ATOM     13  C   UNL     1      -3.499   0.590   0.914  0.00  0.00    +0.000 A 
ATOM     14  C   UNL     1      -2.146   0.351   0.825  0.00  0.00    +0.000 A 
BRANCH  12  15
ATOM     15  C   UNL     1      -5.639   1.360  -0.091  0.00  0.00    +0.000 A 
ATOM     16  C   UNL     1      -6.300   2.367  -0.763  0.00  0.00    +0.000 A 
ATOM     17  C   UNL     1      -7.681   2.525  -0.642  0.00  0.00    +0.000 A 
ATOM     18  C   UNL     1      -8.436   1.691   0.147  0.00  0.00    +0.000 A 
ATOM     19  C   UNL     1      -7.786   0.681   0.823  0.00  0.00    +0.000 A 
ATOM     20  C   UNL     1      -6.426   0.534   0.697  0.00  0.00    +0.000 A 
ENDBRANCH  12  15
ENDBRANCH   2   9
BRANCH   2  21
ATOM     21  C   UNL     1       0.778   1.171   0.641  0.00  0.00    +0.000 C 
BRANCH  21  22
ATOM     22  C   UNL     1       2.216   0.971   0.656  0.00  0.00    +0.000 C 
ATOM     23  C   UNL     1       3.413   0.836   0.680  0.00  0.00    +0.000 C 
BRANCH  23  24
ATOM     24  C   UNL     1       4.872   0.715   0.720  0.00  0.00    +0.000 C 
BRANCH  24  25
ATOM     25  N   UNL     1       5.393   0.809  -0.643  0.00  0.00    +0.000 NA
ATOM     26  C   UNL     1       6.859   0.847  -0.629  0.00  0.00    +0.000 C 
ATOM     27  C   UNL     1       7.345  -0.210   0.334  0.00  0.00    +0.000 C 
ATOM     28  C   UNL     1       7.999  -1.362  -0.437  0.00  0.00    +0.000 C 
ATOM     29  C   UNL     1       6.860  -2.131  -1.118  0.00  0.00    +0.000 C 
ATOM     30  C   UNL     1       5.533  -1.618  -0.663  0.00  0.00    +0.000 C 
ATOM     31  C   UNL     1       5.068  -0.404  -1.416  0.00  0.00    +0.000 C 
ENDBRANCH  24  25
ENDBRANCH  23  24
ENDBRANCH  21  22
ENDBRANCH   2  21
TORSDOF 7
