REMARK  Name = 
REMARK  8 active torsions:
REMARK  status: ('A' for Active; 'I' for Inactive)
REMARK    1  A    between atoms: C_2  and  N_3
REMARK    2  A    between atoms: N_3  and  C_4
REMARK    3  A    between atoms: N_3  and  C_6
REMARK    4  A    between atoms: C_9  and  N_10
REMARK    5  A    between atoms: C_11  and  C_13
REMARK    6  A    between atoms: C_13  and  C_15
REMARK    7  A    between atoms: C_19  and  C_20
REMARK    8  A    between atoms: C_20  and  C_22
REMARK                            x       y       z     vdW  Elec       q    Type
REMARK                         _______ _______ _______ _____ _____    ______ ____
ROOT
ATOM      1  C   UNL     1      -0.871   2.103  -0.510  0.00  0.00    +0.000 C 
ATOM      2  C   UNL     1      -0.898   2.655  -2.076  0.00  0.00    +0.000 C 
ENDROOT
BRANCH   1   3
ATOM      3  C   UNL     1      -1.377   0.628  -0.932  0.00  0.00    +0.000 A 
ATOM      4  C   UNL     1      -0.549  -0.317  -1.307  0.00  0.00    +0.000 A 
ATOM      5  C   UNL     1      -1.018  -1.561  -1.664  0.00  0.00    +0.000 A 
ATOM      6  C   UNL     1      -2.376  -1.793  -1.618  0.00  0.00    +0.000 A 
ATOM      7  C   UNL     1      -3.236  -0.782  -1.218  0.00  0.00    +0.000 A 
ATOM      8  C   UNL     1      -2.738   0.456  -0.867  0.00  0.00    +0.000 A 
BRANCH   7   9
ATOM      9  C   UNL     1      -4.687  -1.040  -1.175  0.00  0.00    +0.000 C 
ATOM     10  O   UNL     1      -5.149  -1.936  -1.920  0.00  0.00    +0.000 OA
BRANCH   9  11
ATOM     11  C   UNL     1      -5.610  -0.319  -0.320  0.00  0.00    +0.000 A 
ATOM     12  C   UNL     1      -6.930  -0.234  -0.699  0.00  0.00    +0.000 A 
ATOM     13  C   UNL     1      -7.829   0.425   0.061  0.00  0.00    +0.000 A 
ATOM     14  C   UNL     1      -7.471   1.037   1.239  0.00  0.00    +0.000 A 
ATOM     15  C   UNL     1      -6.138   0.954   1.626  0.00  0.00    +0.000 A 
ATOM     16  C   UNL     1      -5.229   0.283   0.850  0.00  0.00    +0.000 A 
ENDBRANCH   9  11
ENDBRANCH   7   9
ENDBRANCH   1   3
BRANCH   1  18
ATOM     17  N   UNL     1       1.089   0.844   0.478  0.00  0.00    +0.000 NA
ATOM     18  C   UNL     1       0.694   1.825  -0.442  0.00  0.00    +0.000 C 
ATOM     19  O   UNL     1       1.502   2.401  -1.119  0.00  0.00    +0.000 OA
BRANCH  17  23
ATOM     20  C   UNL     1       5.183  -0.056   0.823  0.00  0.00    +0.000 A 
ATOM     21  C   UNL     1       4.744   0.892  -0.065  0.00  0.00    +0.000 A 
ATOM     22  C   UNL     1       3.407   1.186  -0.178  0.00  0.00    +0.000 A 
ATOM     23  C   UNL     1       2.463   0.533   0.604  0.00  0.00    +0.000 A 
ATOM     24  C   UNL     1       2.932  -0.411   1.485  0.00  0.00    +0.000 A 
ATOM     25  C   UNL     1       1.971  -1.141   2.344  0.00  0.00    +0.000 C 
ATOM     26  C   UNL     1       4.251  -0.699   1.593  0.00  0.00    +0.000 A 
BRANCH  20  27
ATOM     27  N   UNL     1       6.548  -0.392   0.974  0.00  0.00    +0.000 N 
BRANCH  27  29
ATOM     28  C   UNL     1       5.832  -2.014   2.702  0.00  0.00    +0.000 C 
ATOM     29  C   UNL     1       6.965  -1.398   1.927  0.00  0.00    +0.000 C 
ENDBRANCH  27  29
BRANCH  27  30
ATOM     30  C   UNL     1       7.569   0.276   0.163  0.00  0.00    +0.000 C 
ATOM     31  C   UNL     1       6.957   1.277  -0.758  0.00  0.00    +0.000 C 
ENDBRANCH  27  30
ENDBRANCH  20  27
ENDBRANCH  17  23
ENDBRANCH   1  18
TORSDOF 8
