REMARK  Name = 
REMARK  8 active torsions:
REMARK  status: ('A' for Active; 'I' for Inactive)
REMARK    1  A    between atoms: C_5  and  C_6
REMARK    2  A    between atoms: C_9  and  S_10
REMARK    3  A    between atoms: S_10  and  C_11
REMARK    4  A    between atoms: C_11  and  C_12
REMARK    5  A    between atoms: C_16  and  C_17
REMARK    6  A    between atoms: N_19  and  C_20
REMARK    7  A    between atoms: C_20  and  C_21
REMARK    8  A    between atoms: C_21  and  C_22
REMARK                            x       y       z     vdW  Elec       q    Type
REMARK                         _______ _______ _______ _____ _____    ______ ____
ROOT
ATOM      1  C   UNL     1       1.017   0.844  -4.310  0.00  0.00    +0.000 C 
ENDROOT
BRANCH   1   2
ATOM      2  C   UNL     1       1.984   0.501  -3.238  0.00  0.00    +0.000 A 
ATOM      3  C   UNL     1       3.071  -0.289  -3.586  0.00  0.00    +0.000 A 
ATOM      4  C   UNL     1       3.981  -0.625  -2.606  0.00  0.00    +0.000 A 
ATOM      5  C   UNL     1       3.795  -0.173  -1.303  0.00  0.00    +0.000 A 
ATOM      6  C   UNL     1       2.717   0.611  -0.955  0.00  0.00    +0.000 A 
ATOM      7  C   UNL     1       1.802   0.953  -1.929  0.00  0.00    +0.000 A 
BRANCH   6   8
ATOM      8  C   UNL     1       2.549   1.069   0.421  0.00  0.00    +0.000 C 
ATOM      9  O   UNL     1       1.510   1.732   0.723  0.00  0.00    +0.000 OA
ATOM     10  N   UNL     1       3.478   0.817   1.442  0.00  0.00    +0.000 NA
BRANCH  10  11
ATOM     11  C   UNL     1       3.309   1.276   2.824  0.00  0.00    +0.000 C 
BRANCH  11  12
ATOM     12  C   UNL     1       4.533   0.794   3.579  0.00  0.00    +0.000 C 
BRANCH  12  13
ATOM     13  C   UNL     1       4.611  -0.715   3.508  0.00  0.00    +0.000 C 
ATOM     14  C   UNL     1       3.416  -1.401   4.103  0.00  0.00    +0.000 C 
ATOM     15  C   UNL     1       4.929  -1.196   2.103  0.00  0.00    +0.000 C 
ENDBRANCH  12  13
ENDBRANCH  11  12
ENDBRANCH  10  11
ENDBRANCH   6   8
ENDBRANCH   1   2
BRANCH   1  16
ATOM     16  S   UNL     1      -0.323  -0.383  -4.390  0.00  0.00    +0.000 S 
BRANCH  16  20
ATOM     17  C   UNL     1      -2.915  -0.207  -0.648  0.00  0.00    +0.000 A 
ATOM     18  C   UNL     1      -1.850   0.646  -0.809  0.00  0.00    +0.000 A 
ATOM     19  C   UNL     1      -1.060   0.608  -1.926  0.00  0.00    +0.000 A 
ATOM     20  C   UNL     1      -1.336  -0.308  -2.918  0.00  0.00    +0.000 A 
ATOM     21  N   UNL     1      -2.382  -1.122  -2.724  0.00  0.00    +0.000 NA
ATOM     22  N   UNL     1      -3.148  -1.084  -1.638  0.00  0.00    +0.000 NA
BRANCH  17  27
ATOM     23  C   UNL     1      -6.232  -0.023   4.077  0.00  0.00    +0.000 C 
ATOM     24  C   UNL     1      -5.390  -0.088   2.850  0.00  0.00    +0.000 A 
ATOM     25  C   UNL     1      -4.325   0.772   2.684  0.00  0.00    +0.000 A 
ATOM     26  C   UNL     1      -3.512   0.746   1.553  0.00  0.00    +0.000 A 
ATOM     27  C   UNL     1      -3.761  -0.166   0.550  0.00  0.00    +0.000 A 
ATOM     28  C   UNL     1      -4.824  -1.022   0.719  0.00  0.00    +0.000 A 
ATOM     29  C   UNL     1      -5.641  -1.005   1.841  0.00  0.00    +0.000 A 
ENDBRANCH  17  27
ENDBRANCH  16  20
ENDBRANCH   1  16
TORSDOF 8
