REMARK  Name = 
REMARK  7 active torsions:
REMARK  status: ('A' for Active; 'I' for Inactive)
REMARK    1  A    between atoms: O_2  and  C_3
REMARK    2  A    between atoms: C_7  and  N_8
REMARK    3  A    between atoms: N_8  and  C_9
REMARK    4  A    between atoms: C_10  and  S_11
REMARK    5  A    between atoms: S_11  and  C_12
REMARK    6  A    between atoms: N_20  and  C_21
REMARK    7  A    between atoms: C_24  and  C_25
REMARK                            x       y       z     vdW  Elec       q    Type
REMARK                         _______ _______ _______ _____ _____    ______ ____
ROOT
ATOM      1  C   UNL     1      -1.298   0.100  -0.950  0.00  0.00    +0.000 C 
ATOM      2  C   UNL     1      -0.977   1.300  -0.414  0.00  0.00    +0.000 C 
ATOM      3  C   UNL     1       0.441   1.296  -0.065  0.00  0.00    +0.000 C 
ATOM      4  O   UNL     1       1.109   2.233   0.457  0.00  0.00    +0.000 OA
ATOM      5  N   UNL     1       0.994   0.025  -0.411  0.00  0.00    +0.000 N 
ATOM      6  C   UNL     1      -0.090  -0.701  -0.955  0.00  0.00    +0.000 C 
ATOM      7  O   UNL     1       0.045  -1.899  -1.377  0.00  0.00    +0.000 OA
ENDROOT
BRANCH   5   8
ATOM      8  C   UNL     1       2.325  -0.427  -0.256  0.00  0.00    +0.000 A 
ATOM      9  C   UNL     1       2.737  -1.171   0.829  0.00  0.00    +0.000 A 
ATOM     10  C   UNL     1       4.045  -1.606   0.966  0.00  0.00    +0.000 A 
ATOM     11  C   UNL     1       5.005  -1.315   0.019  0.00  0.00    +0.000 A 
ATOM     12  C   UNL     1       4.607  -0.570  -1.073  0.00  0.00    +0.000 A 
ATOM     13  C   UNL     1       3.305  -0.138  -1.208  0.00  0.00    +0.000 A 
BRANCH  11  14
ATOM     14  C   UNL     1       6.408  -1.792   0.183  0.00  0.00    +0.000 C 
ATOM     15  C   UNL     1       6.323  -3.176   0.807  0.00  0.00    +0.000 C 
ATOM     16  C   UNL     1       7.152  -1.817  -1.118  0.00  0.00    +0.000 C 
ENDBRANCH  11  14
ENDBRANCH   5   8
BRANCH   1  17
ATOM     17  N   UNL     1      -2.540  -0.348  -1.430  0.00  0.00    +0.000 NA
BRANCH  17  22
ATOM     18  C   UNL     1      -3.611  -3.515   0.249  0.00  0.00    +0.000 A 
ATOM     19  C   UNL     1      -4.823  -3.705  -0.408  0.00  0.00    +0.000 A 
ATOM     20  C   UNL     1      -5.254  -2.812  -1.365  0.00  0.00    +0.000 A 
ATOM     21  C   UNL     1      -4.469  -1.721  -1.669  0.00  0.00    +0.000 A 
ATOM     22  C   UNL     1      -3.244  -1.488  -1.035  0.00  0.00    +0.000 A 
ATOM     23  C   UNL     1      -2.860  -2.407  -0.089  0.00  0.00    +0.000 A 
BRANCH  18  25
ATOM     24  C   UNL     1      -2.084  -4.447   1.957  0.00  0.00    +0.000 C 
ATOM     25  O   UNL     1      -3.250  -4.444   1.186  0.00  0.00    +0.000 OA
ENDBRANCH  18  25
ENDBRANCH  17  22
ENDBRANCH   1  17
BRANCH   2  26
ATOM     26  S   UNL     1      -2.206   2.553  -0.245  0.00  0.00    +0.000 S 
BRANCH  26  27
ATOM     27  C   UNL     1      -1.656   4.069   0.457  0.00  0.00    +0.000 A 
ATOM     28  C   UNL     1      -0.391   4.356   0.873  0.00  0.00    +0.000 A 
ATOM     29  C   UNL     1      -0.021   5.558   1.413  0.00  0.00    +0.000 A 
ATOM     30  C   UNL     1      -0.918   6.592   1.582  0.00  0.00    +0.000 A 
ATOM     31  C   UNL     1      -2.217   6.308   1.159  0.00  0.00    +0.000 A 
ATOM     32  C   UNL     1      -2.587   5.110   0.620  0.00  0.00    +0.000 A 
ENDBRANCH  26  27
ENDBRANCH   2  26
TORSDOF 7
