REMARK  Name = 
REMARK  7 active torsions:
REMARK  status: ('A' for Active; 'I' for Inactive)
REMARK    1  A    between atoms: C_6  and  C_7
REMARK    2  A    between atoms: C_7  and  C_9
REMARK    3  A    between atoms: C_9  and  O_10
REMARK    4  A    between atoms: O_10  and  C_11
REMARK    5  A    between atoms: C_15  and  C_16
REMARK    6  A    between atoms: N_18  and  C_19
REMARK    7  A    between atoms: C_19  and  C_20
REMARK                            x       y       z     vdW  Elec       q    Type
REMARK                         _______ _______ _______ _____ _____    ______ ____
ROOT
ATOM      1  C   UNL     1      -0.526   0.339  -1.136  0.00  0.00    +0.000 A 
ATOM      2  C   UNL     1      -0.380   0.234  -2.508  0.00  0.00    +0.000 A 
ATOM      3  C   UNL     1       0.884   0.382  -3.038  0.00  0.00    +0.000 A 
ATOM      4  C   UNL     1       1.996   0.629  -2.242  0.00  0.00    +0.000 A 
ATOM      5  C   UNL     1       1.843   0.733  -0.866  0.00  0.00    +0.000 A 
ATOM      6  C   UNL     1       0.588   0.584  -0.360  0.00  0.00    +0.000 A 
ENDROOT
BRANCH   5   7
ATOM      7  C   UNL     1       3.020   0.995  -0.049  0.00  0.00    +0.000 C 
ATOM      8  O   UNL     1       2.884   1.071   1.198  0.00  0.00    +0.000 OA
ATOM      9  N   UNL     1       4.313   1.168  -0.593  0.00  0.00    +0.000 NA
BRANCH   9  10
ATOM     10  C   UNL     1       5.454   1.426   0.232  0.00  0.00    +0.000 C 
BRANCH  10  11
ATOM     11  C   UNL     1       5.946   0.223   0.938  0.00  0.00    +0.000 A 
ATOM     12  C   UNL     1       5.351  -1.018   0.712  0.00  0.00    +0.000 A 
ATOM     13  C   UNL     1       5.851  -2.111   1.401  0.00  0.00    +0.000 A 
ATOM     14  C   UNL     1       6.897  -2.035   2.292  0.00  0.00    +0.000 A 
ATOM     15  C   UNL     1       7.474  -0.797   2.503  0.00  0.00    +0.000 A 
ATOM     16  C   UNL     1       6.992   0.290   1.831  0.00  0.00    +0.000 A 
ENDBRANCH  10  11
ENDBRANCH   9  10
ENDBRANCH   5   7
BRANCH   1  17
ATOM     17  O   UNL     1      -1.792   0.196  -0.548  0.00  0.00    +0.000 OA
BRANCH  17  18
ATOM     18  C   UNL     1      -1.896   0.309   0.854  0.00  0.00    +0.000 C 
BRANCH  18  19
ATOM     19  C   UNL     1      -3.316   0.124   1.226  0.00  0.00    +0.000 C 
ATOM     20  O   UNL     1      -3.660   0.172   2.426  0.00  0.00    +0.000 OA
BRANCH  19  26
ATOM     21  C   UNL     1      -7.365  -0.767  -2.766  0.00  0.00    +0.000 C 
ATOM     22  C   UNL     1      -6.316  -0.516  -1.729  0.00  0.00    +0.000 A 
ATOM     23  C   UNL     1      -5.986   0.762  -1.327  0.00  0.00    +0.000 A 
ATOM     24  C   UNL     1      -5.006   0.940  -0.363  0.00  0.00    +0.000 A 
ATOM     25  C   UNL     1      -4.648   2.321   0.073  0.00  0.00    +0.000 C 
ATOM     26  C   UNL     1      -4.337  -0.115   0.221  0.00  0.00    +0.000 A 
ATOM     27  C   UNL     1      -4.660  -1.403  -0.175  0.00  0.00    +0.000 A 
ATOM     28  C   UNL     1      -3.963  -2.571   0.428  0.00  0.00    +0.000 C 
ATOM     29  C   UNL     1      -5.645  -1.565  -1.143  0.00  0.00    +0.000 A 
ENDBRANCH  19  26
ENDBRANCH  18  19
ENDBRANCH  17  18
ENDBRANCH   1  17
TORSDOF 7
