REMARK  Name = 
REMARK  9 active torsions:
REMARK  status: ('A' for Active; 'I' for Inactive)
REMARK    1  A    between atoms: C_2  and  C_3
REMARK    2  A    between atoms: C_3  and  C_4
REMARK    3  A    between atoms: C_4  and  C_5
REMARK    4  A    between atoms: C_5  and  C_6
REMARK    5  A    between atoms: C_6  and  C_7
REMARK    6  A    between atoms: N_9  and  C_10
REMARK    7  A    between atoms: C_13  and  C_14
REMARK    8  A    between atoms: N_16  and  C_17
REMARK    9  A    between atoms: N_16  and  C_23
REMARK                            x       y       z     vdW  Elec       q    Type
REMARK                         _______ _______ _______ _____ _____    ______ ____
ROOT
ATOM      1  C   UNL     1       1.667   1.425   0.410  0.00  0.00    +0.000 A 
ATOM      2  C   UNL     1       1.828   0.052   0.398  0.00  0.00    +0.000 A 
ATOM      3  C   UNL     1       0.757  -0.806   0.323  0.00  0.00    +0.000 A 
ATOM      4  C   UNL     1      -0.563  -0.336   0.252  0.00  0.00    +0.000 A 
ATOM      5  C   UNL     1      -0.705   1.021   0.265  0.00  0.00    +0.000 A 
ATOM      6  C   UNL     1       0.376   1.899   0.342  0.00  0.00    +0.000 A 
ENDROOT
BRANCH   1   9
ATOM      7  C   UNL     1       4.131   1.863   0.419  0.00  0.00    +0.000 C 
ATOM      8  O   UNL     1       4.367   0.634   0.288  0.00  0.00    +0.000 OA
ATOM      9  N   UNL     1       2.799   2.280   0.479  0.00  0.00    +0.000 NA
BRANCH   7  10
ATOM     10  C   UNL     1       5.302   2.773   0.499  0.00  0.00    +0.000 C 
BRANCH  10  11
ATOM     11  C   UNL     1       6.600   2.073   0.293  0.00  0.00    +0.000 C 
BRANCH  11  12
ATOM     12  C   UNL     1       6.701   1.416  -1.064  0.00  0.00    +0.000 C 
BRANCH  12  13
ATOM     13  C   UNL     1       8.041   0.727  -1.181  0.00  0.00    +0.000 C 
BRANCH  13  15
ATOM     14  C   UNL     1       9.545  -0.982  -0.302  0.00  0.00    +0.000 C 
ATOM     15  C   UNL     1       8.172  -0.333  -0.116  0.00  0.00    +0.000 C 
ENDBRANCH  13  15
ENDBRANCH  12  13
ENDBRANCH  11  12
ENDBRANCH  10  11
ENDBRANCH   7  10
ENDBRANCH   1   9
BRANCH   4  16
ATOM     16  C   UNL     1      -1.666  -1.300   0.170  0.00  0.00    +0.000 C 
ATOM     17  O   UNL     1      -1.353  -2.548   0.194  0.00  0.00    +0.000 OA
ATOM     18  N   UNL     1      -3.022  -0.993   0.065  0.00  0.00    +0.000 N 
BRANCH  18  19
ATOM     19  C   UNL     1      -3.502   0.330   0.020  0.00  0.00    +0.000 A 
ATOM     20  C   UNL     1      -4.328   0.806   1.045  0.00  0.00    +0.000 A 
ATOM     21  C   UNL     1      -4.789   2.075   0.983  0.00  0.00    +0.000 A 
ATOM     22  C   UNL     1      -4.476   2.906  -0.047  0.00  0.00    +0.000 A 
ATOM     23  C   UNL     1      -3.674   2.438  -1.040  0.00  0.00    +0.000 A 
ATOM     24  C   UNL     1      -3.165   1.158  -1.047  0.00  0.00    +0.000 A 
ENDBRANCH  18  19
BRANCH  18  25
ATOM     25  C   UNL     1      -3.961  -2.075   0.011  0.00  0.00    +0.000 A 
ATOM     26  C   UNL     1      -4.236  -2.684  -1.193  0.00  0.00    +0.000 A 
ATOM     27  C   UNL     1      -5.142  -3.730  -1.150  0.00  0.00    +0.000 A 
ATOM     28  C   UNL     1      -5.731  -4.134   0.023  0.00  0.00    +0.000 A 
ATOM     29  C   UNL     1      -5.443  -3.508   1.221  0.00  0.00    +0.000 A 
ATOM     30  C   UNL     1      -4.532  -2.450   1.213  0.00  0.00    +0.000 A 
ENDBRANCH  18  25
ENDBRANCH   4  16
TORSDOF 9
