REMARK  Name = 
REMARK  7 active torsions:
REMARK  status: ('A' for Active; 'I' for Inactive)
REMARK    1  A    between atoms: C_2  and  O_3
REMARK    2  A    between atoms: O_3  and  C_4
REMARK    3  A    between atoms: C_7  and  N_8
REMARK    4  A    between atoms: N_8  and  C_9
REMARK    5  A    between atoms: C_10  and  S_11
REMARK    6  A    between atoms: S_11  and  C_12
REMARK    7  A    between atoms: N_20  and  C_21
REMARK                            x       y       z     vdW  Elec       q    Type
REMARK                         _______ _______ _______ _____ _____    ______ ____
ROOT
ATOM      1  C   UNL     1       0.436  -0.326  -0.167  0.00  0.00    +0.000 C 
ATOM      2  C   UNL     1      -0.512  -1.289  -0.114  0.00  0.00    +0.000 C 
ATOM      3  C   UNL     1      -1.780  -0.613  -0.155  0.00  0.00    +0.000 C 
ATOM      4  O   UNL     1      -2.929  -1.125  -0.129  0.00  0.00    +0.000 OA
ATOM      5  N   UNL     1      -1.588   0.796  -0.234  0.00  0.00    +0.000 N 
ATOM      6  C   UNL     1      -0.179   0.963  -0.241  0.00  0.00    +0.000 C 
ATOM      7  O   UNL     1       0.353   2.120  -0.305  0.00  0.00    +0.000 OA
ENDROOT
BRANCH   5   8
ATOM      8  C   UNL     1      -2.553   1.828  -0.295  0.00  0.00    +0.000 A 
ATOM      9  C   UNL     1      -2.640   2.772   0.707  0.00  0.00    +0.000 A 
ATOM     10  C   UNL     1      -3.568   3.794   0.681  0.00  0.00    +0.000 A 
ATOM     11  C   UNL     1      -4.451   3.902  -0.368  0.00  0.00    +0.000 A 
ATOM     12  C   UNL     1      -5.464   5.007  -0.411  0.00  0.00    +0.000 C 
ATOM     13  C   UNL     1      -4.385   2.973  -1.381  0.00  0.00    +0.000 A 
ATOM     14  C   UNL     1      -3.443   1.948  -1.340  0.00  0.00    +0.000 A 
ENDBRANCH   5   8
BRANCH   1  15
ATOM     15  N   UNL     1       1.791  -0.666  -0.144  0.00  0.00    +0.000 NA
BRANCH  15  19
ATOM     16  C   UNL     1       5.272   1.746  -0.265  0.00  0.00    +0.000 A 
ATOM     17  C   UNL     1       5.311   0.374  -0.192  0.00  0.00    +0.000 A 
ATOM     18  C   UNL     1       4.194  -0.404  -0.153  0.00  0.00    +0.000 A 
ATOM     19  C   UNL     1       2.898   0.160  -0.186  0.00  0.00    +0.000 A 
ATOM     20  C   UNL     1       2.885   1.530  -0.259  0.00  0.00    +0.000 A 
ATOM     21  C   UNL     1       4.003   2.302  -0.297  0.00  0.00    +0.000 A 
BRANCH  16  22
ATOM     22  O   UNL     1       6.412   2.506  -0.303  0.00  0.00    +0.000 OA
BRANCH  22  24
ATOM     23  C   UNL     1       7.794   1.091   1.025  0.00  0.00    +0.000 C 
ATOM     24  C   UNL     1       7.681   1.883  -0.267  0.00  0.00    +0.000 C 
ENDBRANCH  22  24
ENDBRANCH  16  22
ENDBRANCH  15  19
ENDBRANCH   1  15
BRANCH   2  25
ATOM     25  S   UNL     1      -0.131  -3.006  -0.016  0.00  0.00    +0.000 S 
BRANCH  25  26
ATOM     26  C   UNL     1      -1.520  -4.078   0.050  0.00  0.00    +0.000 A 
ATOM     27  C   UNL     1      -2.839  -3.738   0.035  0.00  0.00    +0.000 A 
ATOM     28  C   UNL     1      -3.885  -4.633   0.090  0.00  0.00    +0.000 A 
ATOM     29  C   UNL     1      -3.604  -5.997   0.167  0.00  0.00    +0.000 A 
ATOM     30  C   UNL     1      -2.296  -6.363   0.183  0.00  0.00    +0.000 A 
ATOM     31  C   UNL     1      -1.263  -5.457   0.128  0.00  0.00    +0.000 A 
ENDBRANCH  25  26
ENDBRANCH   2  25
TORSDOF 7
