REMARK  Name = 
REMARK  7 active torsions:
REMARK  status: ('A' for Active; 'I' for Inactive)
REMARK    1  A    between atoms: C_2  and  O_3
REMARK    2  A    between atoms: O_3  and  C_4
REMARK    3  A    between atoms: C_7  and  N_8
REMARK    4  A    between atoms: C_9  and  C_11
REMARK    5  A    between atoms: C_12  and  N_13
REMARK    6  A    between atoms: C_14  and  C_16
REMARK    7  A    between atoms: C_16  and  C_17
REMARK                            x       y       z     vdW  Elec       q    Type
REMARK                         _______ _______ _______ _____ _____    ______ ____
ROOT
ATOM      1  C   UNL     1       0.085   1.295  -0.231  0.00  0.00    +0.000 A 
ATOM      2  C   UNL     1       1.376   0.832  -0.219  0.00  0.00    +0.000 A 
ATOM      3  S   UNL     1       2.301   2.246  -0.414  0.00  0.00    +0.000 S 
ATOM      4  C   UNL     1       1.049   3.386  -0.507  0.00  0.00    +0.000 A 
ATOM      5  C   UNL     1      -0.081   2.620  -0.381  0.00  0.00    +0.000 A 
ATOM      6  C   UNL     1      -1.411   3.375  -0.430  0.00  0.00    +0.000 C 
ATOM      7  C   UNL     1      -1.271   4.524  -1.409  0.00  0.00    +0.000 C 
ATOM      8  C   UNL     1      -0.287   5.477  -0.815  0.00  0.00    +0.000 C 
ATOM      9  C   UNL     1       1.060   4.867  -0.682  0.00  0.00    +0.000 C 
ENDROOT
BRANCH   1  11
ATOM     10  N   UNL     1      -2.399   0.731  -0.085  0.00  0.00    +0.000 NA
ATOM     11  C   UNL     1      -1.038   0.318  -0.080  0.00  0.00    +0.000 C 
ATOM     12  O   UNL     1      -0.842  -0.898   0.056  0.00  0.00    +0.000 OA
BRANCH  10  16
ATOM     13  C   UNL     1      -5.754  -1.773   0.318  0.00  0.00    +0.000 A 
ATOM     14  C   UNL     1      -5.871  -0.408   0.162  0.00  0.00    +0.000 A 
ATOM     15  C   UNL     1      -4.758   0.379   0.033  0.00  0.00    +0.000 A 
ATOM     16  C   UNL     1      -3.481  -0.168   0.056  0.00  0.00    +0.000 A 
ATOM     17  C   UNL     1      -3.349  -1.519   0.210  0.00  0.00    +0.000 A 
ATOM     18  C   UNL     1      -4.477  -2.301   0.338  0.00  0.00    +0.000 A 
BRANCH  13  19
ATOM     19  O   UNL     1      -6.887  -2.563   0.447  0.00  0.00    +0.000 OA
BRANCH  19  21
ATOM     20  C   UNL     1      -8.329  -0.945   1.541  0.00  0.00    +0.000 C 
ATOM     21  C   UNL     1      -8.158  -1.964   0.418  0.00  0.00    +0.000 C 
ENDBRANCH  19  21
ENDBRANCH  13  19
ENDBRANCH  10  16
ENDBRANCH   1  11
BRANCH   2  22
ATOM     22  N   UNL     1       1.846  -0.527  -0.075  0.00  0.00    +0.000 NA
ATOM     23  C   UNL     1       3.236  -0.808  -0.087  0.00  0.00    +0.000 C 
ATOM     24  O   UNL     1       4.084   0.107  -0.222  0.00  0.00    +0.000 OA
BRANCH  23  25
ATOM     25  C   UNL     1       3.738  -2.197   0.059  0.00  0.00    +0.000 C 
BRANCH  25  26
ATOM     26  C   UNL     1       5.205  -2.269   0.020  0.00  0.00    +0.000 A 
ATOM     27  C   UNL     1       6.022  -2.176   1.125  0.00  0.00    +0.000 A 
ATOM     28  C   UNL     1       7.394  -2.252   1.011  0.00  0.00    +0.000 A 
ATOM     29  C   UNL     1       7.991  -2.425  -0.217  0.00  0.00    +0.000 A 
ATOM     30  C   UNL     1       7.184  -2.520  -1.327  0.00  0.00    +0.000 A 
ATOM     31  C   UNL     1       5.819  -2.442  -1.201  0.00  0.00    +0.000 A 
ENDBRANCH  25  26
ENDBRANCH  23  25
ENDBRANCH   2  22
TORSDOF 7
