REMARK  Name = 
REMARK  8 active torsions:
REMARK  status: ('A' for Active; 'I' for Inactive)
REMARK    1  A    between atoms: C_7  and  S_8
REMARK    2  A    between atoms: S_8  and  C_9
REMARK    3  A    between atoms: C_9  and  C_11
REMARK    4  A    between atoms: N_13  and  N_14
REMARK    5  A    between atoms: C_15  and  C_16
REMARK    6  A    between atoms: C_19  and  O_20
REMARK    7  A    between atoms: O_20  and  C_21
REMARK    8  A    between atoms: C_21  and  C_22
REMARK                            x       y       z     vdW  Elec       q    Type
REMARK                         _______ _______ _______ _____ _____    ______ ____
ROOT
ATOM      1  N   UNL     1      -0.016   0.479  -0.177  0.00  0.00    +0.000 NA
ATOM      2  C   UNL     1       0.451  -0.723  -0.230  0.00  0.00    +0.000 C 
ENDROOT
BRANCH   2   3
ATOM      3  C   UNL     1       1.881  -0.995  -0.424  0.00  0.00    +0.000 A 
ATOM      4  C   UNL     1       2.806   0.017  -0.561  0.00  0.00    +0.000 A 
ATOM      5  C   UNL     1       4.148  -0.254  -0.743  0.00  0.00    +0.000 A 
ATOM      6  C   UNL     1       4.636  -1.544  -0.797  0.00  0.00    +0.000 A 
ATOM      7  C   UNL     1       3.716  -2.564  -0.661  0.00  0.00    +0.000 A 
ATOM      8  C   UNL     1       2.379  -2.277  -0.480  0.00  0.00    +0.000 A 
BRANCH   6   9
ATOM      9  O   UNL     1       5.981  -1.835  -0.979  0.00  0.00    +0.000 OA
BRANCH   9  10
ATOM     10  C   UNL     1       6.984  -0.858  -1.125  0.00  0.00    +0.000 C 
BRANCH  10  11
ATOM     11  C   UNL     1       7.048   0.014   0.074  0.00  0.00    +0.000 A 
ATOM     12  C   UNL     1       6.279  -0.120   1.192  0.00  0.00    +0.000 A 
ATOM     13  C   UNL     1       6.361   0.704   2.288  0.00  0.00    +0.000 A 
ATOM     14  C   UNL     1       7.294   1.735   2.236  0.00  0.00    +0.000 A 
ATOM     15  C   UNL     1       8.090   1.898   1.116  0.00  0.00    +0.000 A 
ATOM     16  C   UNL     1       7.968   1.051   0.053  0.00  0.00    +0.000 A 
ENDBRANCH  10  11
ENDBRANCH   9  10
ENDBRANCH   6   9
ENDBRANCH   2   3
BRANCH   1  19
ATOM     17  C   UNL     1      -2.043   1.567  -0.899  0.00  0.00    +0.000 C 
ATOM     18  O   UNL     1      -1.440   2.076  -1.876  0.00  0.00    +0.000 OA
ATOM     19  N   UNL     1      -1.382   0.742   0.008  0.00  0.00    +0.000 NA
BRANCH  17  20
ATOM     20  C   UNL     1      -3.550   1.915  -0.777  0.00  0.00    +0.000 C 
ATOM     21  C   UNL     1      -3.591   2.060   0.801  0.00  0.00    +0.000 C 
BRANCH  20  22
ATOM     22  S   UNL     1      -4.212   0.131  -0.863  0.00  0.00    +0.000 S 
BRANCH  22  29
ATOM     23  C   UNL     1      -7.499  -0.286   3.024  0.00  0.00    +0.000 C 
ATOM     24  C   UNL     1      -7.344  -0.060   1.547  0.00  0.00    +0.000 A 
ATOM     25  C   UNL     1      -8.445   0.136   0.739  0.00  0.00    +0.000 A 
ATOM     26  C   UNL     1      -8.195   0.335  -0.604  0.00  0.00    +0.000 A 
ATOM     27  C   UNL     1      -9.364   0.552  -1.518  0.00  0.00    +0.000 C 
ATOM     28  N   UNL     1      -6.945   0.336  -1.093  0.00  0.00    +0.000 NA
ATOM     29  C   UNL     1      -5.894   0.144  -0.295  0.00  0.00    +0.000 A 
ATOM     30  N   UNL     1      -6.105  -0.053   1.023  0.00  0.00    +0.000 NA
ENDBRANCH  22  29
ENDBRANCH  20  22
ENDBRANCH  17  20
ENDBRANCH   1  19
TORSDOF 8
