REMARK  Name = 
REMARK  7 active torsions:
REMARK  status: ('A' for Active; 'I' for Inactive)
REMARK    1  A    between atoms: C_5  and  N_6
REMARK    2  A    between atoms: C_7  and  C_9
REMARK    3  A    between atoms: C_9  and  S_10
REMARK    4  A    between atoms: S_10  and  C_11
REMARK    5  A    between atoms: C_14  and  C_15
REMARK    6  A    between atoms: N_21  and  C_22
REMARK    7  A    between atoms: C_22  and  C_23
REMARK                            x       y       z     vdW  Elec       q    Type
REMARK                         _______ _______ _______ _____ _____    ______ ____
ROOT
ATOM      1  C   UNL     1      -0.773  -0.420   0.141  0.00  0.00    +0.000 A 
ATOM      2  N   UNL     1      -0.189   0.081  -0.951  0.00  0.00    +0.000 NA
ATOM      3  N   UNL     1      -0.896   1.090  -1.351  0.00  0.00    +0.000 NA
ATOM      4  C   UNL     1      -1.948   1.269  -0.535  0.00  0.00    +0.000 A 
ATOM      5  N   UNL     1      -1.872   0.314   0.409  0.00  0.00    +0.000 N 
ENDROOT
BRANCH   4   6
ATOM      6  C   UNL     1      -2.961   2.312  -0.656  0.00  0.00    +0.000 A 
ATOM      7  C   UNL     1      -2.849   3.187  -1.748  0.00  0.00    +0.000 A 
ATOM      8  C   UNL     1      -3.733   4.215  -1.962  0.00  0.00    +0.000 A 
ATOM      9  C   UNL     1      -4.754   4.371  -1.060  0.00  0.00    +0.000 A 
ATOM     10  C   UNL     1      -4.890   3.536   0.012  0.00  0.00    +0.000 A 
ATOM     11  C   UNL     1      -3.994   2.518   0.202  0.00  0.00    +0.000 A 
ENDBRANCH   4   6
BRANCH   1  12
ATOM     12  S   UNL     1      -0.206  -1.807   1.073  0.00  0.00    +0.000 S 
BRANCH  12  13
ATOM     13  C   UNL     1       1.301  -2.527   0.399  0.00  0.00    +0.000 C 
BRANCH  13  15
ATOM     14  N   UNL     1       3.758  -1.932   0.052  0.00  0.00    +0.000 NA
ATOM     15  C   UNL     1       2.459  -1.592   0.519  0.00  0.00    +0.000 C 
ATOM     16  O   UNL     1       2.341  -0.449   1.045  0.00  0.00    +0.000 OA
BRANCH  14  21
ATOM     17  C   UNL     1       8.222   1.520   0.466  0.00  0.00    +0.000 C 
ATOM     18  C   UNL     1       7.043   0.620   0.361  0.00  0.00    +0.000 A 
ATOM     19  C   UNL     1       5.817   1.015   0.836  0.00  0.00    +0.000 A 
ATOM     20  C   UNL     1       4.679   0.227   0.771  0.00  0.00    +0.000 A 
ATOM     21  C   UNL     1       4.864  -1.026   0.175  0.00  0.00    +0.000 A 
ATOM     22  C   UNL     1       6.073  -1.438  -0.304  0.00  0.00    +0.000 A 
ATOM     23  C   UNL     1       6.238  -2.763  -0.926  0.00  0.00    +0.000 C 
ATOM     24  C   UNL     1       7.161  -0.616  -0.210  0.00  0.00    +0.000 A 
ENDBRANCH  14  21
ENDBRANCH  13  15
ENDBRANCH  12  13
ENDBRANCH   1  12
BRANCH   5  25
ATOM     25  C   UNL     1      -2.762   0.029   1.512  0.00  0.00    +0.000 C 
BRANCH  25  26
ATOM     26  C   UNL     1      -3.749  -0.991   1.123  0.00  0.00    +0.000 A 
ATOM     27  C   UNL     1      -3.496  -2.350   1.293  0.00  0.00    +0.000 A 
ATOM     28  C   UNL     1      -4.423  -3.290   0.929  0.00  0.00    +0.000 A 
ATOM     29  C   UNL     1      -5.610  -2.888   0.393  0.00  0.00    +0.000 A 
ATOM     30  C   UNL     1      -5.893  -1.568   0.212  0.00  0.00    +0.000 A 
ATOM     31  C   UNL     1      -4.957  -0.650   0.581  0.00  0.00    +0.000 A 
ENDBRANCH  25  26
ENDBRANCH   5  25
TORSDOF 7
