REMARK  Name = 
REMARK  9 active torsions:
REMARK  status: ('A' for Active; 'I' for Inactive)
REMARK    1  A    between atoms: C_2  and  O_3
REMARK    2  A    between atoms: C_2  and  C_21
REMARK    3  A    between atoms: O_3  and  C_4
REMARK    4  A    between atoms: C_4  and  C_6
REMARK    5  A    between atoms: C_6  and  O_7
REMARK    6  A    between atoms: O_7  and  C_8
REMARK    7  A    between atoms: C_11  and  N_12
REMARK    8  A    between atoms: N_12  and  C_13
REMARK    9  A    between atoms: C_21  and  C_23
REMARK                            x       y       z     vdW  Elec       q    Type
REMARK                         _______ _______ _______ _____ _____    ______ ____
ROOT
ATOM      1  C   UNL     1      -0.748   2.425  -0.533  0.00  0.00    +0.000 C 
ATOM      2  O   UNL     1      -0.394   1.561  -1.400  0.00  0.00    +0.000 OA
ENDROOT
BRANCH   1   3
ATOM      3  O   UNL     1      -2.056   2.267   0.012  0.00  0.00    +0.000 OA
BRANCH   3   5
ATOM      4  C   UNL     1      -2.644   0.254   0.948  0.00  0.00    +0.000 C 
ATOM      5  C   UNL     1      -2.757   1.068  -0.584  0.00  0.00    +0.000 C 
BRANCH   5   6
ATOM      6  C   UNL     1      -4.311   1.423  -0.151  0.00  0.00    +0.000 C 
ATOM      7  O   UNL     1      -4.699   2.472   0.200  0.00  0.00    +0.000 OA
BRANCH   6   8
ATOM      8  C   UNL     1      -4.985   0.186  -0.305  0.00  0.00    +0.000 A 
ATOM      9  C   UNL     1      -5.769  -0.230  -1.335  0.00  0.00    +0.000 A 
ATOM     10  C   UNL     1      -6.232  -1.506  -1.396  0.00  0.00    +0.000 A 
ATOM     11  C   UNL     1      -5.952  -2.451  -0.431  0.00  0.00    +0.000 A 
ATOM     12  C   UNL     1      -5.140  -2.070   0.659  0.00  0.00    +0.000 A 
ATOM     13  C   UNL     1      -4.694  -0.784   0.680  0.00  0.00    +0.000 A 
ATOM     14  C   UNL     1      -4.944  -3.211   1.580  0.00  0.00    +0.000 C 
ATOM     15  C   UNL     1      -5.073  -4.370   0.571  0.00  0.00    +0.000 C 
ATOM     16  C   UNL     1      -6.271  -3.907  -0.243  0.00  0.00    +0.000 C 
ENDBRANCH   6   8
ENDBRANCH   5   6
ENDBRANCH   3   5
ENDBRANCH   1   3
BRANCH   1  17
ATOM     17  C   UNL     1       0.100   3.529  -0.074  0.00  0.00    +0.000 C 
BRANCH  17  18
ATOM     18  O   UNL     1       1.410   3.402  -0.407  0.00  0.00    +0.000 OA
BRANCH  18  19
ATOM     19  C   UNL     1       2.281   2.407   0.007  0.00  0.00    +0.000 A 
ATOM     20  C   UNL     1       3.610   2.381  -0.395  0.00  0.00    +0.000 A 
ATOM     21  C   UNL     1       4.419   1.381   0.041  0.00  0.00    +0.000 A 
ATOM     22  C   UNL     1       3.976   0.359   0.899  0.00  0.00    +0.000 A 
ATOM     23  C   UNL     1       2.650   0.391   1.302  0.00  0.00    +0.000 A 
ATOM     24  C   UNL     1       1.821   1.415   0.845  0.00  0.00    +0.000 A 
BRANCH  22  25
ATOM     25  N   UNL     1       4.794  -0.709   1.298  0.00  0.00    +0.000 NA
BRANCH  25  26
ATOM     26  C   UNL     1       5.929  -0.970   0.437  0.00  0.00    +0.000 A 
ATOM     27  C   UNL     1       6.313  -0.049  -0.547  0.00  0.00    +0.000 A 
ATOM     28  C   UNL     1       7.291  -0.383  -1.435  0.00  0.00    +0.000 A 
ATOM     29  C   UNL     1       7.965  -1.603  -1.460  0.00  0.00    +0.000 A 
ATOM     30  C   UNL     1       7.550  -2.490  -0.472  0.00  0.00    +0.000 A 
ATOM     31  C   UNL     1       6.559  -2.188   0.455  0.00  0.00    +0.000 A 
ENDBRANCH  25  26
ENDBRANCH  22  25
ENDBRANCH  18  19
ENDBRANCH  17  18
ENDBRANCH   1  17
TORSDOF 9
