REMARK  Name = 
REMARK  9 active torsions:
REMARK  status: ('A' for Active; 'I' for Inactive)
REMARK    1  A    between atoms: C_2  and  C_3
REMARK    2  A    between atoms: C_3  and  C_4
REMARK    3  A    between atoms: C_4  and  O_5
REMARK    4  A    between atoms: O_5  and  C_6
REMARK    5  A    between atoms: C_9  and  O_10
REMARK    6  A    between atoms: O_10  and  C_11
REMARK    7  A    between atoms: C_11  and  C_12
REMARK    8  A    between atoms: C_12  and  N_13
REMARK    9  A    between atoms: C_22  and  C_24
REMARK                            x       y       z     vdW  Elec       q    Type
REMARK                         _______ _______ _______ _____ _____    ______ ____
ROOT
ATOM      1  N   UNL     1      -2.001  -0.763  -0.470  0.00  0.00    +0.000 N 
ATOM      2  C   UNL     1      -2.576  -0.789  -1.757  0.00  0.00    +0.000 C 
ATOM      3  O   UNL     1      -2.527  -1.702  -2.635  0.00  0.00    +0.000 OA
ATOM      4  C   UNL     1      -3.297   0.467  -1.985  0.00  0.00    +0.000 A 
ATOM      5  C   UNL     1      -4.026   0.939  -3.082  0.00  0.00    +0.000 A 
ATOM      6  C   UNL     1      -4.614   2.183  -3.041  0.00  0.00    +0.000 A 
ATOM      7  C   UNL     1      -4.446   2.912  -1.886  0.00  0.00    +0.000 A 
ATOM      8  C   UNL     1      -3.737   2.474  -0.794  0.00  0.00    +0.000 A 
ATOM      9  C   UNL     1      -3.140   1.204  -0.844  0.00  0.00    +0.000 A 
ATOM     10  C   UNL     1      -2.328   0.468   0.158  0.00  0.00    +0.000 C 
ATOM     11  O   UNL     1      -1.202   1.278   0.384  0.00  0.00    +0.000 OA
ENDROOT
BRANCH  10  12
ATOM     12  C   UNL     1      -3.100   0.294   1.421  0.00  0.00    +0.000 A 
ATOM     13  C   UNL     1      -2.666   0.859   2.598  0.00  0.00    +0.000 A 
ATOM     14  C   UNL     1      -3.368   0.711   3.782  0.00  0.00    +0.000 A 
ATOM     15  C   UNL     1      -4.541  -0.013   3.829  0.00  0.00    +0.000 A 
ATOM     16  C   UNL     1      -4.986  -0.583   2.657  0.00  0.00    +0.000 A 
ATOM     17  C   UNL     1      -4.271  -0.430   1.463  0.00  0.00    +0.000 A 
ENDBRANCH  10  12
BRANCH   1  18
ATOM     18  C   UNL     1      -1.213  -1.856   0.065  0.00  0.00    +0.000 C 
BRANCH  18  19
ATOM     19  C   UNL     1       0.242  -1.700  -0.266  0.00  0.00    +0.000 C 
BRANCH  19  20
ATOM     20  O   UNL     1       0.722  -0.493   0.285  0.00  0.00    +0.000 OA
BRANCH  20  24
ATOM     21  C   UNL     1       4.699   0.757  -0.166  0.00  0.00    +0.000 A 
ATOM     22  C   UNL     1       4.261  -0.428  -0.716  0.00  0.00    +0.000 A 
ATOM     23  C   UNL     1       2.945  -0.840  -0.566  0.00  0.00    +0.000 A 
ATOM     24  C   UNL     1       2.038  -0.072   0.141  0.00  0.00    +0.000 A 
ATOM     25  C   UNL     1       2.469   1.108   0.690  0.00  0.00    +0.000 A 
ATOM     26  C   UNL     1       3.780   1.502   0.531  0.00  0.00    +0.000 A 
BRANCH  21  27
ATOM     27  O   UNL     1       6.021   1.177  -0.314  0.00  0.00    +0.000 OA
BRANCH  27  28
ATOM     28  C   UNL     1       6.970   0.415  -1.032  0.00  0.00    +0.000 C 
BRANCH  28  29
ATOM     29  C   UNL     1       7.189  -0.961  -0.468  0.00  0.00    +0.000 C 
BRANCH  29  31
ATOM     30  C   UNL     1       9.015  -0.154   1.056  0.00  0.00    +0.000 C 
ATOM     31  C   UNL     1       7.689  -0.904   0.964  0.00  0.00    +0.000 C 
ENDBRANCH  29  31
ENDBRANCH  28  29
ENDBRANCH  27  28
ENDBRANCH  21  27
ENDBRANCH  20  24
ENDBRANCH  19  20
ENDBRANCH  18  19
ENDBRANCH   1  18
TORSDOF 9
