REMARK  Name = 
REMARK  8 active torsions:
REMARK  status: ('A' for Active; 'I' for Inactive)
REMARK    1  A    between atoms: C_2  and  O_3
REMARK    2  A    between atoms: O_3  and  C_4
REMARK    3  A    between atoms: C_6  and  C_7
REMARK    4  A    between atoms: C_15  and  O_16
REMARK    5  A    between atoms: O_16  and  C_17
REMARK    6  A    between atoms: C_17  and  C_18
REMARK    7  A    between atoms: C_27  and  C_28
REMARK    8  A    between atoms: C_28  and  O_29
REMARK                            x       y       z     vdW  Elec       q    Type
REMARK                         _______ _______ _______ _____ _____    ______ ____
ROOT
ATOM      1  C   UNL     1      -3.218  -1.627   0.467  0.00  0.00    +0.000 A 
ATOM      2  N   UNL     1      -3.276  -2.644   1.312  0.00  0.00    +0.000 NA
ATOM      3  C   UNL     1      -2.147  -3.208   1.783  0.00  0.00    +0.000 A 
ATOM      4  C   UNL     1      -0.924  -2.768   1.407  0.00  0.00    +0.000 A 
ATOM      5  N   UNL     1       0.365  -3.212   1.723  0.00  0.00    +0.000 NA
ATOM      6  C   UNL     1       1.231  -2.448   1.069  0.00  0.00    +0.000 A 
ATOM      7  C   UNL     1       2.607  -2.474   1.133  0.00  0.00    +0.000 A 
ATOM      8  C   UNL     1       3.276  -1.512   0.405  0.00  0.00    +0.000 A 
ATOM      9  C   UNL     1       2.690  -0.590  -0.338  0.00  0.00    +0.000 A 
ATOM     10  C   UNL     1       1.269  -0.510  -0.447  0.00  0.00    +0.000 A 
ATOM     11  C   UNL     1       0.574  -1.529   0.319  0.00  0.00    +0.000 A 
ATOM     12  C   UNL     1      -0.752  -1.706   0.527  0.00  0.00    +0.000 A 
ATOM     13  C   UNL     1      -1.929  -1.146   0.066  0.00  0.00    +0.000 A 
ENDROOT
BRANCH   1  16
ATOM     14  C   UNL     1      -5.691   0.790  -0.768  0.00  0.00    +0.000 A 
ATOM     15  C   UNL     1      -4.363   0.283  -0.730  0.00  0.00    +0.000 A 
ATOM     16  C   UNL     1      -4.357  -0.842   0.046  0.00  0.00    +0.000 A 
ATOM     17  N   UNL     1      -5.660  -0.985   0.419  0.00  0.00    +0.000 NA
ATOM     18  O   UNL     1      -6.382  -0.028  -0.070  0.00  0.00    +0.000 OA
BRANCH  14  19
ATOM     19  O   UNL     1      -5.965   1.966  -1.450  0.00  0.00    +0.000 OA
BRANCH  19  21
ATOM     20  C   UNL     1      -6.107   3.229   0.613  0.00  0.00    +0.000 C 
ATOM     21  C   UNL     1      -5.516   3.155  -0.742  0.00  0.00    +0.000 C 
ENDBRANCH  19  21
ENDBRANCH  14  19
ENDBRANCH   1  16
BRANCH   9  22
ATOM     22  O   UNL     1       3.468   0.427  -1.099  0.00  0.00    +0.000 OA
BRANCH  22  23
ATOM     23  C   UNL     1       4.859   0.131  -0.841  0.00  0.00    +0.000 C 
BRANCH  23  24
ATOM     24  C   UNL     1       5.729   1.296  -0.936  0.00  0.00    +0.000 A 
ATOM     25  C   UNL     1       6.816   1.252   0.036  0.00  0.00    +0.000 A 
ATOM     26  C   UNL     1       7.653   2.300   0.209  0.00  0.00    +0.000 A 
ATOM     27  C   UNL     1       7.481   3.446  -0.574  0.00  0.00    +0.000 A 
ATOM     28  C   UNL     1       6.491   3.556  -1.510  0.00  0.00    +0.000 A 
ATOM     29  C   UNL     1       5.628   2.437  -1.647  0.00  0.00    +0.000 A 
ENDBRANCH  23  24
ENDBRANCH  22  23
ENDBRANCH   9  22
BRANCH  13  30
ATOM     30  C   UNL     1      -2.008  -0.025  -0.845  0.00  0.00    +0.000 C 
BRANCH  30  31
ATOM     31  O   UNL     1      -1.373   1.043  -0.960  0.00  0.00    +0.000 OA
ATOM     32  C   UNL     1      -0.470   1.942  -1.041  0.00  0.00    +0.000 C 
ENDBRANCH  30  31
ENDBRANCH  13  30
TORSDOF 8
