REMARK  Name = 
REMARK  7 active torsions:
REMARK  status: ('A' for Active; 'I' for Inactive)
REMARK    1  A    between atoms: C_5  and  C_6
REMARK    2  A    between atoms: C_14  and  O_15
REMARK    3  A    between atoms: O_15  and  C_16
REMARK    4  A    between atoms: C_19  and  O_20
REMARK    5  A    between atoms: O_20  and  C_21
REMARK    6  A    between atoms: C_21  and  C_22
REMARK    7  A    between atoms: C_22  and  N_23
REMARK                            x       y       z     vdW  Elec       q    Type
REMARK                         _______ _______ _______ _____ _____    ______ ____
ROOT
ATOM      1  C   UNL     1      -3.057   0.468  -0.579  0.00  0.00    +0.000 A 
ATOM      2  S   UNL     1      -3.752   1.637  -1.608  0.00  0.00    +0.000 S 
ATOM      3  C   UNL     1      -2.854   2.999  -1.121  0.00  0.00    +0.000 A 
ATOM      4  C   UNL     1      -2.836   4.350  -1.499  0.00  0.00    +0.000 A 
ATOM      5  C   UNL     1      -1.976   5.258  -0.916  0.00  0.00    +0.000 A 
ATOM      6  C   UNL     1      -1.145   4.753   0.053  0.00  0.00    +0.000 A 
ATOM      7  C   UNL     1      -1.155   3.463   0.421  0.00  0.00    +0.000 A 
ATOM      8  C   UNL     1      -2.024   2.502  -0.155  0.00  0.00    +0.000 A 
ATOM      9  C   UNL     1      -2.136   1.179   0.122  0.00  0.00    +0.000 A 
ENDROOT
BRANCH   1  14
ATOM     10  O   UNL     1      -4.218  -4.996  -0.106  0.00  0.00    +0.000 OA
ATOM     11  C   UNL     1      -3.951  -3.636  -0.247  0.00  0.00    +0.000 A 
ATOM     12  C   UNL     1      -2.977  -3.084   0.548  0.00  0.00    +0.000 A 
ATOM     13  C   UNL     1      -2.694  -1.745   0.430  0.00  0.00    +0.000 A 
ATOM     14  C   UNL     1      -3.374  -0.978  -0.466  0.00  0.00    +0.000 A 
ATOM     15  C   UNL     1      -4.347  -1.504  -1.267  0.00  0.00    +0.000 A 
ATOM     16  C   UNL     1      -4.634  -2.846  -1.151  0.00  0.00    +0.000 A 
ENDBRANCH   1  14
BRANCH   9  17
ATOM     17  O   UNL     1      -1.342   0.524   1.097  0.00  0.00    +0.000 OA
BRANCH  17  18
ATOM     18  C   UNL     1      -0.116  -0.025   0.759  0.00  0.00    +0.000 A 
ATOM     19  C   UNL     1       0.634  -0.670   1.717  0.00  0.00    +0.000 A 
ATOM     20  C   UNL     1       1.875  -1.233   1.404  0.00  0.00    +0.000 A 
ATOM     21  C   UNL     1       2.393  -1.164   0.132  0.00  0.00    +0.000 A 
ATOM     22  C   UNL     1       1.647  -0.520  -0.830  0.00  0.00    +0.000 A 
ATOM     23  C   UNL     1       0.410   0.040  -0.515  0.00  0.00    +0.000 A 
BRANCH  21  24
ATOM     24  O   UNL     1       3.634  -1.719  -0.206  0.00  0.00    +0.000 OA
BRANCH  24  25
ATOM     25  C   UNL     1       4.434  -2.389   0.749  0.00  0.00    +0.000 C 
BRANCH  25  26
ATOM     26  C   UNL     1       4.732  -1.365   1.843  0.00  0.00    +0.000 C 
BRANCH  26  27
ATOM     27  N   UNL     1       5.436  -0.213   1.340  0.00  0.00    +0.000 NA
ATOM     28  C   UNL     1       4.663   0.610   0.465  0.00  0.00    +0.000 C 
ATOM     29  C   UNL     1       5.287   0.496  -0.911  0.00  0.00    +0.000 C 
ATOM     30  C   UNL     1       6.756   0.313  -0.555  0.00  0.00    +0.000 C 
ATOM     31  C   UNL     1       6.686  -0.505   0.712  0.00  0.00    +0.000 C 
ENDBRANCH  26  27
ENDBRANCH  25  26
ENDBRANCH  24  25
ENDBRANCH  21  24
ENDBRANCH  17  18
ENDBRANCH   9  17
TORSDOF 7
