REMARK  Name = 
REMARK  6 active torsions:
REMARK  status: ('A' for Active; 'I' for Inactive)
REMARK    1  A    between atoms: C_2  and  N_3
REMARK    2  A    between atoms: C_2  and  C_27
REMARK    3  A    between atoms: C_4  and  C_6
REMARK    4  A    between atoms: C_7  and  N_8
REMARK    5  A    between atoms: C_9  and  C_11
REMARK    6  A    between atoms: C_21  and  C_22
REMARK                            x       y       z     vdW  Elec       q    Type
REMARK                         _______ _______ _______ _____ _____    ______ ____
ROOT
ATOM      1  C   UNL     1       0.294  -0.030  -0.075  0.00  0.00    +0.000 A 
ATOM      2  C   UNL     1       0.728   1.148  -0.622  0.00  0.00    +0.000 A 
ATOM      3  S   UNL     1       2.199   0.718  -1.371  0.00  0.00    +0.000 S 
ATOM      4  C   UNL     1       2.230  -0.972  -0.967  0.00  0.00    +0.000 A 
ATOM      5  C   UNL     1       1.075  -1.109  -0.260  0.00  0.00    +0.000 A 
ATOM      6  C   UNL     1       0.945  -2.573   0.186  0.00  0.00    +0.000 C 
ATOM      7  C   UNL     1       2.167  -2.665   1.064  0.00  0.00    +0.000 C 
ATOM      8  C   UNL     1       3.443  -2.950   0.126  0.00  0.00    +0.000 C 
ATOM      9  C   UNL     1       3.077  -2.137  -1.185  0.00  0.00    +0.000 C 
ENDROOT
BRANCH   8  10
ATOM     10  C   UNL     1       4.457  -1.880   0.774  0.00  0.00    +0.000 C 
ATOM     11  C   UNL     1       4.678  -2.172   2.203  0.00  0.00    +0.000 C 
ATOM     12  C   UNL     1       4.149  -0.499   0.435  0.00  0.00    +0.000 C 
ATOM     13  C   UNL     1       5.689  -2.204  -0.098  0.00  0.00    +0.000 C 
ENDBRANCH   8  10
BRANCH   1  15
ATOM     14  N   UNL     1      -1.398  -1.316   1.230  0.00  0.00    +0.000 NA
ATOM     15  C   UNL     1      -0.988  -0.084   0.684  0.00  0.00    +0.000 C 
ATOM     16  O   UNL     1      -1.679   0.969   0.824  0.00  0.00    +0.000 OA
BRANCH  14  18
ATOM     17  C   UNL     1      -2.389  -2.409   3.044  0.00  0.00    +0.000 C 
ATOM     18  C   UNL     1      -2.758  -1.203   1.994  0.00  0.00    +0.000 C 
BRANCH  18  19
ATOM     19  C   UNL     1      -3.560  -2.148   0.988  0.00  0.00    +0.000 A 
ATOM     20  C   UNL     1      -4.796  -1.698   0.595  0.00  0.00    +0.000 A 
ATOM     21  C   UNL     1      -5.516  -2.479  -0.264  0.00  0.00    +0.000 A 
ATOM     22  C   UNL     1      -5.030  -3.680  -0.727  0.00  0.00    +0.000 A 
ATOM     23  C   UNL     1      -3.786  -4.077  -0.298  0.00  0.00    +0.000 A 
ATOM     24  C   UNL     1      -3.043  -3.296   0.573  0.00  0.00    +0.000 A 
ENDBRANCH  18  19
ENDBRANCH  14  18
ENDBRANCH   1  15
BRANCH   2  25
ATOM     25  N   UNL     1       0.074   2.435  -0.562  0.00  0.00    +0.000 NA
ATOM     26  C   UNL     1       0.666   3.537  -1.182  0.00  0.00    +0.000 C 
ATOM     27  O   UNL     1       1.741   3.427  -1.781  0.00  0.00    +0.000 OA
BRANCH  26  28
ATOM     28  C   UNL     1      -0.004   4.854  -1.121  0.00  0.00    +0.000 A 
ATOM     29  C   UNL     1       0.445   6.030  -1.676  0.00  0.00    +0.000 A 
ATOM     30  C   UNL     1      -0.495   6.986  -1.367  0.00  0.00    +0.000 A 
ATOM     31  C   UNL     1      -1.476   6.358  -0.639  0.00  0.00    +0.000 A 
ATOM     32  O   UNL     1      -1.139   5.118  -0.526  0.00  0.00    +0.000 OA
ENDBRANCH  26  28
ENDBRANCH   2  25
TORSDOF 6
