REMARK  Name = 
REMARK  10 active torsions:
REMARK  status: ('A' for Active; 'I' for Inactive)
REMARK    1  A    between atoms: O_2  and  C_3
REMARK    2  A    between atoms: C_6  and  C_7
REMARK    3  A    between atoms: C_7  and  N_8
REMARK    4  A    between atoms: N_8  and  C_9
REMARK    5  A    between atoms: C_9  and  C_10
REMARK    6  A    between atoms: C_10  and  C_12
REMARK    7  A    between atoms: C_12  and  O_13
REMARK    8  A    between atoms: O_13  and  C_14
REMARK    9  A    between atoms: C_17  and  C_18
REMARK   10  A    between atoms: C_18  and  C_21
REMARK                            x       y       z     vdW  Elec       q    Type
REMARK                         _______ _______ _______ _____ _____    ______ ____
ROOT
ATOM      1  O   UNL     1       0.568   0.178  -0.055  0.00  0.00    +0.000 OA
ENDROOT
BRANCH   1   2
ATOM      2  C   UNL     1      -0.791  -0.038   0.098  0.00  0.00    +0.000 A 
ATOM      3  C   UNL     1      -1.289  -0.394   1.335  0.00  0.00    +0.000 A 
ATOM      4  C   UNL     1      -2.635  -0.608   1.486  0.00  0.00    +0.000 A 
ATOM      5  C   UNL     1      -3.476  -0.470   0.420  0.00  0.00    +0.000 A 
ATOM      6  C   UNL     1      -3.010  -0.110  -0.852  0.00  0.00    +0.000 A 
ATOM      7  C   UNL     1      -1.642   0.099  -0.970  0.00  0.00    +0.000 A 
BRANCH   5   8
ATOM      8  C   UNL     1      -4.942  -0.705   0.605  0.00  0.00    +0.000 C 
ATOM      9  C   UNL     1      -5.198  -1.377   1.923  0.00  0.00    +0.000 C 
ATOM     10  C   UNL     1      -5.393  -1.660  -0.497  0.00  0.00    +0.000 C 
BRANCH   8  11
ATOM     11  C   UNL     1      -5.674   0.573   0.555  0.00  0.00    +0.000 A 
ATOM     12  C   UNL     1      -5.706   1.270  -0.623  0.00  0.00    +0.000 A 
ATOM     13  C   UNL     1      -6.374   2.466  -0.722  0.00  0.00    +0.000 A 
ATOM     14  C   UNL     1      -7.003   2.930   0.395  0.00  0.00    +0.000 A 
ATOM     15  C   UNL     1      -6.989   2.247   1.603  0.00  0.00    +0.000 A 
ATOM     16  C   UNL     1      -6.312   1.050   1.679  0.00  0.00    +0.000 A 
ENDBRANCH   8  11
ENDBRANCH   5   8
ENDBRANCH   1   2
BRANCH   1  17
ATOM     17  C   UNL     1       1.464   0.034   1.052  0.00  0.00    +0.000 C 
BRANCH  17  18
ATOM     18  C   UNL     1       1.263  -1.547   1.496  0.00  0.00    +0.000 C 
ATOM     19  O   UNL     1       1.702  -2.090   0.143  0.00  0.00    +0.000 OA
BRANCH  18  20
ATOM     20  C   UNL     1       2.764  -1.716   2.154  0.00  0.00    +0.000 C 
BRANCH  20  21
ATOM     21  N   UNL     1       3.681  -0.950   1.422  0.00  0.00    +0.000 NA
BRANCH  21  22
ATOM     22  C   UNL     1       3.963  -1.376   0.085  0.00  0.00    +0.000 C 
BRANCH  22  26
ATOM     23  C   UNL     1       6.779   1.228  -1.728  0.00  0.00    +0.000 A 
ATOM     24  C   UNL     1       6.338   1.448  -0.460  0.00  0.00    +0.000 A 
ATOM     25  C   UNL     1       5.420   0.603   0.135  0.00  0.00    +0.000 A 
ATOM     26  C   UNL     1       4.934  -0.499  -0.576  0.00  0.00    +0.000 A 
ATOM     27  C   UNL     1       5.384  -0.710  -1.849  0.00  0.00    +0.000 A 
ATOM     28  C   UNL     1       6.313   0.157  -2.434  0.00  0.00    +0.000 A 
BRANCH  23  30
ATOM     29  C   UNL     1       8.162   1.903  -3.566  0.00  0.00    +0.000 C 
ATOM     30  O   UNL     1       7.698   2.119  -2.255  0.00  0.00    +0.000 OA
ENDBRANCH  23  30
ENDBRANCH  22  26
ENDBRANCH  21  22
ENDBRANCH  20  21
ENDBRANCH  18  20
ENDBRANCH  17  18
ENDBRANCH   1  17
TORSDOF 10
