REMARK  Name = 
REMARK  8 active torsions:
REMARK  status: ('A' for Active; 'I' for Inactive)
REMARK    1  A    between atoms: C_5  and  N_6
REMARK    2  A    between atoms: C_7  and  C_9
REMARK    3  A    between atoms: C_9  and  C_10
REMARK    4  A    between atoms: C_9  and  N_17
REMARK    5  A    between atoms: C_10  and  C_11
REMARK    6  A    between atoms: C_18  and  O_20
REMARK    7  A    between atoms: O_20  and  C_21
REMARK    8  A    between atoms: C_21  and  C_22
REMARK                            x       y       z     vdW  Elec       q    Type
REMARK                         _______ _______ _______ _____ _____    ______ ____
ROOT
ATOM      1  C   UNL     1       0.415  -1.159   0.473  0.00  0.00    +0.000 C 
ENDROOT
BRANCH   1   3
ATOM      2  N   UNL     1      -1.737   0.096  -0.390  0.00  0.00    +0.000 NA
ATOM      3  C   UNL     1      -0.961  -0.385   0.652  0.00  0.00    +0.000 C 
ATOM      4  O   UNL     1      -1.243  -0.244   1.837  0.00  0.00    +0.000 OA
BRANCH   2   9
ATOM      5  C   UNL     1      -6.073   3.602   0.664  0.00  0.00    +0.000 C 
ATOM      6  C   UNL     1      -4.958   2.691   0.380  0.00  0.00    +0.000 A 
ATOM      7  C   UNL     1      -3.658   3.147   0.248  0.00  0.00    +0.000 A 
ATOM      8  C   UNL     1      -2.675   2.236  -0.021  0.00  0.00    +0.000 A 
ATOM      9  C   UNL     1      -2.930   0.846  -0.165  0.00  0.00    +0.000 A 
ATOM     10  C   UNL     1      -4.195   0.431  -0.043  0.00  0.00    +0.000 A 
ATOM     11  C   UNL     1      -5.200   1.342   0.230  0.00  0.00    +0.000 A 
ATOM     12  C   UNL     1      -6.592   0.816   0.383  0.00  0.00    +0.000 C 
ENDBRANCH   2   9
ENDBRANCH   1   3
BRANCH   1  13
ATOM     13  N   UNL     1       1.146   0.071  -0.066  0.00  0.00    +0.000 NA
ATOM     14  C   UNL     1       2.317   0.605   0.383  0.00  0.00    +0.000 C 
ATOM     15  O   UNL     1       2.905   0.022   1.371  0.00  0.00    +0.000 OA
BRANCH  14  16
ATOM     16  O   UNL     1       2.908   1.731  -0.146  0.00  0.00    +0.000 OA
BRANCH  16  17
ATOM     17  C   UNL     1       4.016   2.424   0.063  0.00  0.00    +0.000 C 
BRANCH  17  18
ATOM     18  C   UNL     1       5.256   1.643  -0.286  0.00  0.00    +0.000 A 
ATOM     19  C   UNL     1       5.515   1.673  -1.679  0.00  0.00    +0.000 A 
ATOM     20  C   UNL     1       6.702   0.987  -2.101  0.00  0.00    +0.000 A 
ATOM     21  C   UNL     1       7.484   0.380  -1.216  0.00  0.00    +0.000 A 
ATOM     22  C   UNL     1       7.233   0.348   0.141  0.00  0.00    +0.000 A 
ATOM     23  C   UNL     1       6.047   1.031   0.572  0.00  0.00    +0.000 A 
ENDBRANCH  17  18
ENDBRANCH  16  17
ENDBRANCH  14  16
ENDBRANCH   1  13
BRANCH   1  24
ATOM     24  C   UNL     1       0.244  -1.967  -0.901  0.00  0.00    +0.000 C 
BRANCH  24  25
ATOM     25  C   UNL     1      -0.880  -2.902  -0.861  0.00  0.00    +0.000 A 
ATOM     26  C   UNL     1      -0.885  -4.079  -0.211  0.00  0.00    +0.000 A 
ATOM     27  C   UNL     1      -1.959  -4.910  -0.255  0.00  0.00    +0.000 A 
ATOM     28  C   UNL     1      -3.081  -4.585  -0.962  0.00  0.00    +0.000 A 
ATOM     29  C   UNL     1      -3.130  -3.352  -1.654  0.00  0.00    +0.000 A 
ATOM     30  C   UNL     1      -2.031  -2.539  -1.589  0.00  0.00    +0.000 A 
ENDBRANCH  24  25
ENDBRANCH   1  24
TORSDOF 8
