REMARK  Name = 
REMARK  6 active torsions:
REMARK  status: ('A' for Active; 'I' for Inactive)
REMARK    1  A    between atoms: C_3  and  C_4
REMARK    2  A    between atoms: N_6  and  C_7
REMARK    3  A    between atoms: C_7  and  C_8
REMARK    4  A    between atoms: C_17  and  C_18
REMARK    5  A    between atoms: C_18  and  C_19
REMARK    6  A    between atoms: C_19  and  C_20
REMARK                            x       y       z     vdW  Elec       q    Type
REMARK                         _______ _______ _______ _____ _____    ______ ____
ROOT
ATOM      1  N   UNL     1      -1.332  -1.909   0.072  0.00  0.00    +0.000 NA
ATOM      2  C   UNL     1      -0.955  -0.500   0.111  0.00  0.00    +0.000 A 
ATOM      3  C   UNL     1      -1.883   0.390   0.581  0.00  0.00    +0.000 A 
ATOM      4  S   UNL     1      -1.062   1.881   0.460  0.00  0.00    +0.000 S 
ATOM      5  C   UNL     1       0.426   1.334  -0.179  0.00  0.00    +0.000 A 
ATOM      6  N   UNL     1       1.571   1.970  -0.534  0.00  0.00    +0.000 NA
ATOM      7  C   UNL     1       2.643   1.294  -1.030  0.00  0.00    +0.000 A 
ATOM      8  C   UNL     1       2.475  -0.059  -1.143  0.00  0.00    +0.000 A 
ATOM      9  C   UNL     1       1.333  -0.726  -0.794  0.00  0.00    +0.000 A 
ATOM     10  C   UNL     1       0.232  -0.018  -0.280  0.00  0.00    +0.000 A 
ATOM     11  C   UNL     1       1.276  -2.191  -0.981  0.00  0.00    +0.000 C 
ATOM     12  C   UNL     1       2.556  -2.910  -0.766  0.00  0.00    +0.000 C 
ATOM     13  C   UNL     1       3.794  -2.106  -0.923  0.00  0.00    +0.000 C 
ATOM     14  C   UNL     1       3.587  -0.858  -1.718  0.00  0.00    +0.000 C 
ENDROOT
BRANCH   3  15
ATOM     15  C   UNL     1      -3.258   0.119   1.070  0.00  0.00    +0.000 C 
ATOM     16  O   UNL     1      -3.706  -1.053   1.090  0.00  0.00    +0.000 OA
ATOM     17  N   UNL     1      -4.042   1.214   1.511  0.00  0.00    +0.000 NA
BRANCH  17  18
ATOM     18  C   UNL     1      -5.391   0.903   1.984  0.00  0.00    +0.000 C 
BRANCH  18  19
ATOM     19  C   UNL     1      -6.319   0.620   0.865  0.00  0.00    +0.000 A 
ATOM     20  C   UNL     1      -7.067   1.597   0.225  0.00  0.00    +0.000 A 
ATOM     21  C   UNL     1      -7.907   1.249  -0.809  0.00  0.00    +0.000 A 
ATOM     22  C   UNL     1      -8.043  -0.063  -1.250  0.00  0.00    +0.000 A 
ATOM     23  C   UNL     1      -7.302  -1.024  -0.615  0.00  0.00    +0.000 A 
ATOM     24  C   UNL     1      -6.460  -0.683   0.420  0.00  0.00    +0.000 A 
ENDBRANCH  18  19
ENDBRANCH  17  18
ENDBRANCH   3  15
BRANCH   7  25
ATOM     25  C   UNL     1       3.897   1.943  -1.392  0.00  0.00    +0.000 C 
BRANCH  25  26
ATOM     26  C   UNL     1       4.982   2.022  -0.444  0.00  0.00    +0.000 C 
BRANCH  26  27
ATOM     27  C   UNL     1       5.511   0.769   0.061  0.00  0.00    +0.000 A 
ATOM     28  C   UNL     1       4.952   0.246   1.210  0.00  0.00    +0.000 A 
ATOM     29  C   UNL     1       5.427  -0.932   1.766  0.00  0.00    +0.000 A 
ATOM     30  C   UNL     1       6.469  -1.565   1.144  0.00  0.00    +0.000 A 
ATOM     31  C   UNL     1       7.032  -1.055   0.002  0.00  0.00    +0.000 A 
ATOM     32  C   UNL     1       6.565   0.101  -0.544  0.00  0.00    +0.000 A 
ENDBRANCH  26  27
ENDBRANCH  25  26
ENDBRANCH   7  25
TORSDOF 6
