REMARK  Name = 
REMARK  8 active torsions:
REMARK  status: ('A' for Active; 'I' for Inactive)
REMARK    1  A    between atoms: C_7  and  N_8
REMARK    2  A    between atoms: C_9  and  C_11
REMARK    3  A    between atoms: C_11  and  C_12
REMARK    4  A    between atoms: C_11  and  N_19
REMARK    5  A    between atoms: C_12  and  C_13
REMARK    6  A    between atoms: C_20  and  O_22
REMARK    7  A    between atoms: O_22  and  C_23
REMARK    8  A    between atoms: C_23  and  C_24
REMARK                            x       y       z     vdW  Elec       q    Type
REMARK                         _______ _______ _______ _____ _____    ______ ____
ROOT
ATOM      1  C   UNL     1       0.199  -1.314   0.687  0.00  0.00    +0.000 C 
ENDROOT
BRANCH   1   3
ATOM      2  N   UNL     1       2.543  -1.433   0.163  0.00  0.00    +0.000 NA
ATOM      3  C   UNL     1       1.429  -0.789  -0.107  0.00  0.00    +0.000 C 
ATOM      4  O   UNL     1       1.654   0.016  -0.880  0.00  0.00    +0.000 OA
BRANCH   2  11
ATOM      5  C   UNL     1       6.747  -0.271  -2.026  0.00  0.00    +0.000 C 
ATOM      6  C   UNL     1       5.951  -1.092  -1.072  0.00  0.00    +0.000 A 
ATOM      7  C   UNL     1       6.575  -2.084  -0.352  0.00  0.00    +0.000 A 
ATOM      8  C   UNL     1       5.863  -2.879   0.556  0.00  0.00    +0.000 A 
ATOM      9  C   UNL     1       4.488  -2.631   0.708  0.00  0.00    +0.000 A 
ATOM     10  C   UNL     1       3.665  -3.442   1.660  0.00  0.00    +0.000 C 
ATOM     11  C   UNL     1       3.830  -1.653   0.010  0.00  0.00    +0.000 A 
ATOM     12  C   UNL     1       4.577  -0.896  -0.873  0.00  0.00    +0.000 A 
ENDBRANCH   2  11
ENDBRANCH   1   3
BRANCH   1  13
ATOM     13  N   UNL     1      -0.847  -0.313   0.089  0.00  0.00    +0.000 NA
ATOM     14  C   UNL     1      -2.187  -0.778   0.057  0.00  0.00    +0.000 C 
ATOM     15  O   UNL     1      -2.513  -1.917   0.480  0.00  0.00    +0.000 OA
BRANCH  14  16
ATOM     16  O   UNL     1      -3.177   0.036  -0.454  0.00  0.00    +0.000 OA
BRANCH  16  17
ATOM     17  C   UNL     1      -4.508  -0.447  -0.476  0.00  0.00    +0.000 C 
BRANCH  17  18
ATOM     18  C   UNL     1      -5.439   0.533  -1.047  0.00  0.00    +0.000 A 
ATOM     19  C   UNL     1      -4.942   1.748  -1.468  0.00  0.00    +0.000 A 
ATOM     20  C   UNL     1      -5.814   2.677  -2.008  0.00  0.00    +0.000 A 
ATOM     21  C   UNL     1      -7.146   2.353  -2.105  0.00  0.00    +0.000 A 
ATOM     22  C   UNL     1      -7.632   1.119  -1.674  0.00  0.00    +0.000 A 
ATOM     23  C   UNL     1      -6.767   0.191  -1.135  0.00  0.00    +0.000 A 
ENDBRANCH  17  18
ENDBRANCH  16  17
ENDBRANCH  14  16
ENDBRANCH   1  13
BRANCH   1  24
ATOM     24  C   UNL     1       0.411  -0.493   2.087  0.00  0.00    +0.000 C 
BRANCH  24  25
ATOM     25  C   UNL     1       0.387   0.919   1.815  0.00  0.00    +0.000 A 
ATOM     26  C   UNL     1       1.601   1.517   1.514  0.00  0.00    +0.000 A 
ATOM     27  C   UNL     1       1.743   2.854   1.233  0.00  0.00    +0.000 A 
ATOM     28  C   UNL     1       0.615   3.640   1.252  0.00  0.00    +0.000 A 
ATOM     29  C   UNL     1      -0.598   3.075   1.547  0.00  0.00    +0.000 A 
ATOM     30  C   UNL     1      -0.708   1.755   1.820  0.00  0.00    +0.000 A 
ENDBRANCH  24  25
ENDBRANCH   1  24
TORSDOF 8
