REMARK  Name = 
REMARK  7 active torsions:
REMARK  status: ('A' for Active; 'I' for Inactive)
REMARK    1  A    between atoms: C_5  and  O_6
REMARK    2  A    between atoms: O_6  and  C_7
REMARK    3  A    between atoms: C_7  and  C_8
REMARK    4  A    between atoms: N_10  and  C_11
REMARK    5  A    between atoms: C_15  and  C_16
REMARK    6  A    between atoms: N_18  and  C_19
REMARK    7  A    between atoms: C_19  and  C_20
REMARK                            x       y       z     vdW  Elec       q    Type
REMARK                         _______ _______ _______ _____ _____    ______ ____
ROOT
ATOM      1  C   UNL     1      -0.043  -1.356  -0.037  0.00  0.00    +0.000 A 
ATOM      2  S   UNL     1       0.572  -2.856   0.472  0.00  0.00    +0.000 S 
ATOM      3  C   UNL     1      -0.853  -3.777   0.412  0.00  0.00    +0.000 A 
ATOM      4  C   UNL     1      -1.792  -2.880  -0.011  0.00  0.00    +0.000 A 
ATOM      5  C   UNL     1      -1.377  -1.609  -0.248  0.00  0.00    +0.000 A 
ATOM      6  C   UNL     1      -3.187  -3.491  -0.142  0.00  0.00    +0.000 C 
ATOM      7  C   UNL     1      -2.996  -4.714  -1.013  0.00  0.00    +0.000 C 
ATOM      8  C   UNL     1      -2.238  -5.743  -0.249  0.00  0.00    +0.000 C 
ATOM      9  C   UNL     1      -1.214  -5.217   0.704  0.00  0.00    +0.000 C 
ENDROOT
BRANCH   1  12
ATOM     10  C   UNL     1       2.032  -0.065   0.076  0.00  0.00    +0.000 C 
ATOM     11  O   UNL     1       2.571  -1.133   0.464  0.00  0.00    +0.000 OA
ATOM     12  N   UNL     1       0.643  -0.090  -0.214  0.00  0.00    +0.000 NA
BRANCH  10  13
ATOM     13  C   UNL     1       2.842   1.189  -0.070  0.00  0.00    +0.000 C 
BRANCH  13  14
ATOM     14  O   UNL     1       4.159   0.905   0.289  0.00  0.00    +0.000 OA
BRANCH  14  19
ATOM     15  C   UNL     1       8.765   4.175   0.458  0.00  0.00    +0.000 C 
ATOM     16  C   UNL     1       7.523   3.364   0.395  0.00  0.00    +0.000 A 
ATOM     17  C   UNL     1       6.323   3.887  -0.002  0.00  0.00    +0.000 A 
ATOM     18  C   UNL     1       5.189   3.083  -0.043  0.00  0.00    +0.000 A 
ATOM     19  C   UNL     1       5.224   1.764   0.302  0.00  0.00    +0.000 A 
ATOM     20  C   UNL     1       6.446   1.237   0.704  0.00  0.00    +0.000 A 
ATOM     21  C   UNL     1       7.582   2.032   0.749  0.00  0.00    +0.000 A 
ENDBRANCH  14  19
ENDBRANCH  13  14
ENDBRANCH  10  13
ENDBRANCH   1  12
BRANCH   5  22
ATOM     22  C   UNL     1      -2.325  -0.553  -0.714  0.00  0.00    +0.000 C 
ATOM     23  O   UNL     1      -1.882   0.595  -0.915  0.00  0.00    +0.000 OA
ATOM     24  N   UNL     1      -3.693  -0.784  -0.938  0.00  0.00    +0.000 NA
BRANCH  24  25
ATOM     25  C   UNL     1      -4.637   0.191  -1.382  0.00  0.00    +0.000 C 
BRANCH  25  26
ATOM     26  C   UNL     1      -5.076   1.148  -0.359  0.00  0.00    +0.000 A 
ATOM     27  C   UNL     1      -6.264   0.842   0.302  0.00  0.00    +0.000 A 
ATOM     28  C   UNL     1      -6.807   1.638   1.284  0.00  0.00    +0.000 A 
ATOM     29  C   UNL     1      -6.121   2.798   1.617  0.00  0.00    +0.000 A 
ATOM     30  C   UNL     1      -4.937   3.131   0.979  0.00  0.00    +0.000 A 
ATOM     31  C   UNL     1      -4.428   2.288  -0.013  0.00  0.00    +0.000 A 
ENDBRANCH  25  26
ENDBRANCH  24  25
ENDBRANCH   5  22
TORSDOF 7
