REMARK  Name = 
REMARK  6 active torsions:
REMARK  status: ('A' for Active; 'I' for Inactive)
REMARK    1  A    between atoms: C_2  and  N_3
REMARK    2  A    between atoms: C_4  and  S_5
REMARK    3  A    between atoms: S_5  and  C_6
REMARK    4  A    between atoms: C_6  and  C_7
REMARK    5  A    between atoms: N_9  and  N_10
REMARK    6  A    between atoms: C_11  and  C_13
REMARK                            x       y       z     vdW  Elec       q    Type
REMARK                         _______ _______ _______ _____ _____    ______ ____
ROOT
ATOM      1  C   UNL     1       0.524   0.659   3.005  0.00  0.00    +0.000 C 
ATOM      2  O   UNL     1      -0.395   1.530   3.176  0.00  0.00    +0.000 OA
ATOM      3  N   UNL     1       0.204  -0.453   2.193  0.00  0.00    +0.000 NA
ENDROOT
BRANCH   3   4
ATOM      4  N   UNL     1      -1.028  -0.657   1.577  0.00  0.00    +0.000 NA
ATOM      5  C   UNL     1      -1.628   0.162   0.800  0.00  0.00    +0.000 C 
ATOM      6  C   UNL     1      -0.957   1.463   0.516  0.00  0.00    +0.000 C 
BRANCH   5   7
ATOM      7  C   UNL     1      -2.898  -0.093   0.162  0.00  0.00    +0.000 A 
ATOM      8  C   UNL     1      -3.526  -1.303   0.325  0.00  0.00    +0.000 A 
ATOM      9  C   UNL     1      -4.755  -1.564  -0.283  0.00  0.00    +0.000 A 
ATOM     10  C   UNL     1      -5.346  -0.591  -1.058  0.00  0.00    +0.000 A 
ATOM     11  C   UNL     1      -6.556  -0.838  -1.663  0.00  0.00    +0.000 A 
ATOM     12  C   UNL     1      -7.176   0.115  -2.447  0.00  0.00    +0.000 A 
ATOM     13  C   UNL     1      -6.553   1.321  -2.610  0.00  0.00    +0.000 A 
ATOM     14  C   UNL     1      -5.355   1.577  -2.018  0.00  0.00    +0.000 A 
ATOM     15  C   UNL     1      -4.741   0.624  -1.237  0.00  0.00    +0.000 A 
ATOM     16  C   UNL     1      -3.522   0.848  -0.619  0.00  0.00    +0.000 A 
ENDBRANCH   5   7
ENDBRANCH   3   4
BRANCH   1  17
ATOM     17  C   UNL     1       1.838   0.785   3.613  0.00  0.00    +0.000 C 
BRANCH  17  18
ATOM     18  S   UNL     1       3.027  -0.381   3.125  0.00  0.00    +0.000 S 
BRANCH  18  20
ATOM     19  N   UNL     1       3.478  -0.867   0.406  0.00  0.00    +0.000 N 
ATOM     20  C   UNL     1       3.788  -0.291   1.553  0.00  0.00    +0.000 A 
ATOM     21  N   UNL     1       4.931   0.445   1.336  0.00  0.00    +0.000 NA
ATOM     22  C   UNL     1       5.337   0.335   0.072  0.00  0.00    +0.000 A 
ATOM     23  C   UNL     1       6.396   0.852  -0.656  0.00  0.00    +0.000 A 
ATOM     24  C   UNL     1       6.557   0.551  -1.975  0.00  0.00    +0.000 A 
ATOM     25  C   UNL     1       5.651  -0.278  -2.588  0.00  0.00    +0.000 A 
ATOM     26  C   UNL     1       4.606  -0.786  -1.866  0.00  0.00    +0.000 A 
ATOM     27  C   UNL     1       4.423  -0.496  -0.531  0.00  0.00    +0.000 A 
BRANCH  19  29
ATOM     28  C   UNL     1       1.293  -0.946  -0.694  0.00  0.00    +0.000 C 
ATOM     29  C   UNL     1       2.383  -1.725  -0.019  0.00  0.00    +0.000 C 
ENDBRANCH  19  29
ENDBRANCH  18  20
ENDBRANCH  17  18
ENDBRANCH   1  17
TORSDOF 6
