REMARK  Name = 
REMARK  6 active torsions:
REMARK  status: ('A' for Active; 'I' for Inactive)
REMARK    1  A    between atoms: C_2  and  C_3
REMARK    2  A    between atoms: C_3  and  C_4
REMARK    3  A    between atoms: N_14  and  C_15
REMARK    4  A    between atoms: C_19  and  C_20
REMARK    5  A    between atoms: N_22  and  C_23
REMARK    6  A    between atoms: C_23  and  C_24
REMARK                            x       y       z     vdW  Elec       q    Type
REMARK                         _______ _______ _______ _____ _____    ______ ____
ROOT
ATOM      1  C   UNL     1       0.332  -0.474   0.227  0.00  0.00    +0.000 A 
ATOM      2  S   UNL     1      -0.041  -1.389   1.621  0.00  0.00    +0.000 S 
ATOM      3  C   UNL     1       1.514  -1.542   2.277  0.00  0.00    +0.000 A 
ATOM      4  C   UNL     1       2.294  -0.875   1.394  0.00  0.00    +0.000 A 
ATOM      5  C   UNL     1       1.691  -0.308   0.310  0.00  0.00    +0.000 A 
ATOM      6  C   UNL     1       3.712  -0.968   1.925  0.00  0.00    +0.000 C 
ATOM      7  C   UNL     1       3.726  -2.180   2.786  0.00  0.00    +0.000 C 
ATOM      8  C   UNL     1       2.340  -2.109   3.413  0.00  0.00    +0.000 C 
ENDROOT
BRANCH   1  11
ATOM      9  O   UNL     1      -2.306  -0.976   0.328  0.00  0.00    +0.000 OA
ATOM     10  C   UNL     1      -1.953  -0.301  -0.671  0.00  0.00    +0.000 C 
ATOM     11  N   UNL     1      -0.575   0.008  -0.800  0.00  0.00    +0.000 NA
BRANCH  10  12
ATOM     12  C   UNL     1      -2.970   0.139  -1.659  0.00  0.00    +0.000 C 
BRANCH  12  13
ATOM     13  C   UNL     1      -4.298  -0.354  -1.231  0.00  0.00    +0.000 A 
ATOM     14  C   UNL     1      -4.895  -1.428  -1.853  0.00  0.00    +0.000 A 
ATOM     15  C   UNL     1      -6.152  -1.868  -1.424  0.00  0.00    +0.000 A 
ATOM     16  C   UNL     1      -6.789  -1.229  -0.385  0.00  0.00    +0.000 A 
ATOM     17  C   UNL     1      -6.186  -0.155   0.233  0.00  0.00    +0.000 A 
ATOM     18  C   UNL     1      -6.817   0.489   1.273  0.00  0.00    +0.000 A 
ATOM     19  C   UNL     1      -6.223   1.564   1.898  0.00  0.00    +0.000 A 
ATOM     20  C   UNL     1      -4.987   2.014   1.493  0.00  0.00    +0.000 A 
ATOM     21  C   UNL     1      -4.364   1.366   0.454  0.00  0.00    +0.000 A 
ATOM     22  C   UNL     1      -4.935   0.287  -0.190  0.00  0.00    +0.000 A 
ENDBRANCH  12  13
ENDBRANCH  10  12
ENDBRANCH   1  11
BRANCH   5  23
ATOM     23  C   UNL     1       2.392   0.463  -0.762  0.00  0.00    +0.000 C 
ATOM     24  O   UNL     1       1.755   0.941  -1.700  0.00  0.00    +0.000 OA
ATOM     25  N   UNL     1       3.797   0.664  -0.736  0.00  0.00    +0.000 NA
BRANCH  25  26
ATOM     26  C   UNL     1       4.496   1.411  -1.770  0.00  0.00    +0.000 C 
BRANCH  26  27
ATOM     27  C   UNL     1       5.961   1.415  -1.427  0.00  0.00    +0.000 A 
ATOM     28  C   UNL     1       6.679   2.301  -0.685  0.00  0.00    +0.000 A 
ATOM     29  C   UNL     1       7.982   1.889  -0.651  0.00  0.00    +0.000 A 
ATOM     30  C   UNL     1       8.016   0.720  -1.402  0.00  0.00    +0.000 A 
ATOM     31  O   UNL     1       6.806   0.485  -1.835  0.00  0.00    +0.000 OA
ENDBRANCH  26  27
ENDBRANCH  25  26
ENDBRANCH   5  23
TORSDOF 6
