REMARK  Name = 
REMARK  7 active torsions:
REMARK  status: ('A' for Active; 'I' for Inactive)
REMARK    1  A    between atoms: C_2  and  O_3
REMARK    2  A    between atoms: O_3  and  C_4
REMARK    3  A    between atoms: C_7  and  N_8
REMARK    4  A    between atoms: N_8  and  C_9
REMARK    5  A    between atoms: C_10  and  S_11
REMARK    6  A    between atoms: S_11  and  C_12
REMARK    7  A    between atoms: N_20  and  C_21
REMARK                            x       y       z     vdW  Elec       q    Type
REMARK                         _______ _______ _______ _____ _____    ______ ____
ROOT
ATOM      1  C   UNL     1       0.284  -0.099  -1.472  0.00  0.00    +0.000 C 
ATOM      2  C   UNL     1      -0.067   1.051  -0.928  0.00  0.00    +0.000 C 
ATOM      3  C   UNL     1      -1.392   0.855  -0.342  0.00  0.00    +0.000 C 
ATOM      4  O   UNL     1      -2.046   1.728   0.262  0.00  0.00    +0.000 OA
ATOM      5  N   UNL     1      -1.819  -0.493  -0.570  0.00  0.00    +0.000 N 
ATOM      6  C   UNL     1      -0.754  -1.096  -1.288  0.00  0.00    +0.000 C 
ATOM      7  O   UNL     1      -0.781  -2.302  -1.666  0.00  0.00    +0.000 OA
ENDROOT
BRANCH   5   8
ATOM      8  C   UNL     1      -3.052  -1.099  -0.155  0.00  0.00    +0.000 A 
ATOM      9  C   UNL     1      -4.088  -1.161  -1.035  0.00  0.00    +0.000 A 
ATOM     10  C   UNL     1      -5.285  -1.726  -0.698  0.00  0.00    +0.000 A 
ATOM     11  C   UNL     1      -5.461  -2.253   0.574  0.00  0.00    +0.000 A 
ATOM     12  C   UNL     1      -6.730  -2.882   1.010  0.00  0.00    +0.000 C 
ATOM     13  C   UNL     1      -4.402  -2.184   1.459  0.00  0.00    +0.000 A 
ATOM     14  C   UNL     1      -3.204  -1.615   1.108  0.00  0.00    +0.000 A 
ATOM     15  C   UNL     1      -2.057  -1.537   2.045  0.00  0.00    +0.000 C 
ENDBRANCH   5   8
BRANCH   1  16
ATOM     16  N   UNL     1       1.519  -0.367  -2.155  0.00  0.00    +0.000 NA
BRANCH  16  20
ATOM     17  C   UNL     1       4.650  -1.863   0.305  0.00  0.00    +0.000 A 
ATOM     18  C   UNL     1       4.814  -1.638  -1.043  0.00  0.00    +0.000 A 
ATOM     19  C   UNL     1       3.816  -1.154  -1.861  0.00  0.00    +0.000 A 
ATOM     20  C   UNL     1       2.591  -0.874  -1.329  0.00  0.00    +0.000 A 
ATOM     21  C   UNL     1       2.401  -1.093   0.031  0.00  0.00    +0.000 A 
ATOM     22  C   UNL     1       3.401  -1.578   0.847  0.00  0.00    +0.000 A 
BRANCH  17  23
ATOM     23  O   UNL     1       5.654  -2.350   1.125  0.00  0.00    +0.000 OA
BRANCH  23  25
ATOM     24  C   UNL     1       7.889  -3.149   1.582  0.00  0.00    +0.000 C 
ATOM     25  C   UNL     1       6.898  -2.628   0.556  0.00  0.00    +0.000 C 
ENDBRANCH  23  25
ENDBRANCH  17  23
ENDBRANCH  16  20
ENDBRANCH   1  16
BRANCH   2  26
ATOM     26  S   UNL     1       0.909   2.563  -0.906  0.00  0.00    +0.000 S 
BRANCH  26  27
ATOM     27  C   UNL     1       0.044   3.836  -0.006  0.00  0.00    +0.000 A 
ATOM     28  C   UNL     1      -0.833   4.730  -0.577  0.00  0.00    +0.000 A 
ATOM     29  C   UNL     1      -1.492   5.707   0.141  0.00  0.00    +0.000 A 
ATOM     30  C   UNL     1      -1.263   5.792   1.492  0.00  0.00    +0.000 A 
ATOM     31  C   UNL     1      -0.391   4.920   2.122  0.00  0.00    +0.000 A 
ATOM     32  C   UNL     1       0.248   3.959   1.371  0.00  0.00    +0.000 A 
ENDBRANCH  26  27
ENDBRANCH   2  26
TORSDOF 7
