REMARK  Name = 
REMARK  9 active torsions:
REMARK  status: ('A' for Active; 'I' for Inactive)
REMARK    1  A    between atoms: C_7  and  C_8
REMARK    2  A    between atoms: C_8  and  N_9
REMARK    3  A    between atoms: C_13  and  C_14
REMARK    4  A    between atoms: C_14  and  N_15
REMARK    5  A    between atoms: N_15  and  C_16
REMARK    6  A    between atoms: N_15  and  C_26
REMARK    7  A    between atoms: C_16  and  C_17
REMARK    8  A    between atoms: C_17  and  C_19
REMARK    9  A    between atoms: C_19  and  C_20
REMARK                            x       y       z     vdW  Elec       q    Type
REMARK                         _______ _______ _______ _____ _____    ______ ____
ROOT
ATOM      1  N   UNL     1       0.913  -0.157  -0.654  0.00  0.00    +0.000 NA
ENDROOT
BRANCH   1   2
ATOM      2  C   UNL     1       0.958  -0.778   0.653  0.00  0.00    +0.000 C 
ATOM      3  C   UNL     1       0.240  -2.049   0.594  0.00  0.00    +0.000 C 
ATOM      4  C   UNL     1       0.021  -2.569   1.989  0.00  0.00    +0.000 C 
ATOM      5  C   UNL     1      -0.397  -1.527   2.958  0.00  0.00    +0.000 C 
ATOM      6  C   UNL     1       0.460  -0.299   3.014  0.00  0.00    +0.000 C 
ATOM      7  C   UNL     1       0.540   0.247   1.610  0.00  0.00    +0.000 C 
ENDBRANCH   1   2
BRANCH   1   8
ATOM      8  C   UNL     1      -0.384   0.079  -0.975  0.00  0.00    +0.000 C 
BRANCH   8  13
ATOM      9  N   UNL     1      -2.172   0.626   0.803  0.00  0.00    +0.000 N 
ATOM     10  C   UNL     1      -2.501   1.754   1.521  0.00  0.00    +0.000 A 
ATOM     11  C   UNL     1      -1.662   2.779   1.142  0.00  0.00    +0.000 A 
ATOM     12  C   UNL     1      -0.832   2.233   0.187  0.00  0.00    +0.000 A 
ATOM     13  C   UNL     1      -1.159   0.884  -0.016  0.00  0.00    +0.000 A 
BRANCH   9  14
ATOM     14  C   UNL     1      -2.895  -0.597   0.926  0.00  0.00    +0.000 C 
BRANCH  14  21
ATOM     15  C   UNL     1      -3.104  -1.313  -1.969  0.00  0.00    +0.000 C 
ATOM     16  C   UNL     1      -4.274  -0.992  -1.122  0.00  0.00    +0.000 A 
ATOM     17  C   UNL     1      -5.504  -1.046  -1.792  0.00  0.00    +0.000 A 
ATOM     18  C   UNL     1      -6.646  -0.793  -1.106  0.00  0.00    +0.000 A 
ATOM     19  C   UNL     1      -6.555  -0.489   0.239  0.00  0.00    +0.000 A 
ATOM     20  C   UNL     1      -5.356  -0.433   0.905  0.00  0.00    +0.000 A 
ATOM     21  C   UNL     1      -4.162  -0.695   0.193  0.00  0.00    +0.000 A 
ENDBRANCH  14  21
ENDBRANCH   9  14
ENDBRANCH   8  13
ENDBRANCH   1   8
BRANCH   1  22
ATOM     22  C   UNL     1       1.937  -0.759  -1.241  0.00  0.00    +0.000 C 
BRANCH  22  23
ATOM     23  C   UNL     1       2.584  -0.112  -2.573  0.00  0.00    +0.000 C 
ATOM     24  O   UNL     1       3.619  -1.214  -2.693  0.00  0.00    +0.000 OA
BRANCH  23  25
ATOM     25  C   UNL     1       3.540   0.930  -1.749  0.00  0.00    +0.000 C 
BRANCH  25  26
ATOM     26  C   UNL     1       4.453   0.241  -0.885  0.00  0.00    +0.000 A 
ATOM     27  C   UNL     1       4.273  -0.134   0.427  0.00  0.00    +0.000 A 
ATOM     28  C   UNL     1       5.226  -0.792   1.175  0.00  0.00    +0.000 A 
ATOM     29  C   UNL     1       6.454  -1.103   0.582  0.00  0.00    +0.000 A 
ATOM     30  C   UNL     1       6.680  -0.753  -0.714  0.00  0.00    +0.000 A 
ATOM     31  C   UNL     1       5.704  -0.097  -1.429  0.00  0.00    +0.000 A 
ENDBRANCH  25  26
ENDBRANCH  23  25
ENDBRANCH  22  23
ENDBRANCH   1  22
TORSDOF 9
