REMARK  Name = 
REMARK  8 active torsions:
REMARK  status: ('A' for Active; 'I' for Inactive)
REMARK    1  A    between atoms: C_7  and  S_8
REMARK    2  A    between atoms: S_8  and  C_9
REMARK    3  A    between atoms: C_9  and  C_10
REMARK    4  A    between atoms: N_12  and  N_13
REMARK    5  A    between atoms: C_14  and  C_15
REMARK    6  A    between atoms: C_19  and  O_20
REMARK    7  A    between atoms: O_20  and  C_21
REMARK    8  A    between atoms: C_21  and  C_22
REMARK                            x       y       z     vdW  Elec       q    Type
REMARK                         _______ _______ _______ _____ _____    ______ ____
ROOT
ATOM      1  N   UNL     1       0.615  -0.610  -1.910  0.00  0.00    +0.000 NA
ATOM      2  C   UNL     1       0.499  -0.128  -0.738  0.00  0.00    +0.000 C 
ENDROOT
BRANCH   2   3
ATOM      3  C   UNL     1      -0.759   0.391  -0.182  0.00  0.00    +0.000 A 
ATOM      4  C   UNL     1      -0.811   0.908   1.101  0.00  0.00    +0.000 A 
ATOM      5  C   UNL     1      -1.962   1.420   1.678  0.00  0.00    +0.000 A 
ATOM      6  C   UNL     1      -3.104   1.396   0.890  0.00  0.00    +0.000 A 
ATOM      7  C   UNL     1      -3.130   0.898  -0.389  0.00  0.00    +0.000 A 
ATOM      8  C   UNL     1      -1.920   0.391  -0.911  0.00  0.00    +0.000 A 
BRANCH   7   9
ATOM      9  O   UNL     1      -4.259   0.883  -1.148  0.00  0.00    +0.000 OA
BRANCH   9  10
ATOM     10  C   UNL     1      -5.521   1.292  -0.946  0.00  0.00    +0.000 C 
BRANCH  10  11
ATOM     11  C   UNL     1      -6.244   0.631   0.150  0.00  0.00    +0.000 A 
ATOM     12  C   UNL     1      -7.653   0.626   0.137  0.00  0.00    +0.000 A 
ATOM     13  C   UNL     1      -8.319   0.027   1.148  0.00  0.00    +0.000 A 
ATOM     14  C   UNL     1      -7.687  -0.586   2.203  0.00  0.00    +0.000 A 
ATOM     15  C   UNL     1      -6.283  -0.574   2.203  0.00  0.00    +0.000 A 
ATOM     16  C   UNL     1      -5.587   0.026   1.192  0.00  0.00    +0.000 A 
ENDBRANCH  10  11
ENDBRANCH   9  10
ENDBRANCH   7   9
ENDBRANCH   2   3
BRANCH   1  19
ATOM     17  C   UNL     1       2.951  -0.256  -2.633  0.00  0.00    +0.000 C 
ATOM     18  O   UNL     1       2.823   0.968  -2.380  0.00  0.00    +0.000 OA
ATOM     19  N   UNL     1       1.839  -1.099  -2.411  0.00  0.00    +0.000 NA
BRANCH  17  20
ATOM     20  C   UNL     1       4.208  -0.832  -3.141  0.00  0.00    +0.000 C 
BRANCH  20  21
ATOM     21  S   UNL     1       4.927  -1.878  -1.849  0.00  0.00    +0.000 S 
BRANCH  21  28
ATOM     22  C   UNL     1       8.148   1.014   1.003  0.00  0.00    +0.000 C 
ATOM     23  C   UNL     1       6.806   0.378   0.850  0.00  0.00    +0.000 A 
ATOM     24  C   UNL     1       5.863   0.524   1.824  0.00  0.00    +0.000 A 
ATOM     25  C   UNL     1       4.652  -0.077   1.650  0.00  0.00    +0.000 A 
ATOM     26  C   UNL     1       3.638   0.082   2.733  0.00  0.00    +0.000 C 
ATOM     27  N   UNL     1       4.403  -0.792   0.537  0.00  0.00    +0.000 NA
ATOM     28  C   UNL     1       5.338  -0.923  -0.410  0.00  0.00    +0.000 A 
ATOM     29  N   UNL     1       6.527  -0.341  -0.249  0.00  0.00    +0.000 NA
ENDBRANCH  21  28
ENDBRANCH  20  21
ENDBRANCH  17  20
ENDBRANCH   1  19
TORSDOF 8
