REMARK  Name = 
REMARK  5 active torsions:
REMARK  status: ('A' for Active; 'I' for Inactive)
REMARK    1  A    between atoms: N_5  and  C_6
REMARK    2  A    between atoms: C_6  and  C_7
REMARK    3  A    between atoms: C_7  and  C_8
REMARK    4  A    between atoms: C_11  and  N_12
REMARK    5  A    between atoms: C_13  and  C_15
REMARK                            x       y       z     vdW  Elec       q    Type
REMARK                         _______ _______ _______ _____ _____    ______ ____
ROOT
ATOM      1  C   UNL     1      -1.105  -0.259   0.004  0.00  0.00    +0.000 C 
ATOM      2  C   UNL     1      -0.099  -1.341  -0.332  0.00  0.00    +0.000 C 
ATOM      3  C   UNL     1       0.697  -1.739   0.897  0.00  0.00    +0.000 C 
ATOM      4  C   UNL     1       1.644  -0.562   1.209  0.00  0.00    +0.000 C 
ATOM      5  C   UNL     1       1.126   0.674   0.475  0.00  0.00    +0.000 C 
ATOM      6  C   UNL     1      -0.357   0.764   0.860  0.00  0.00    +0.000 C 
ENDROOT
BRANCH   4   7
ATOM      7  N   UNL     1       2.993  -0.906   0.850  0.00  0.00    +0.000 NA
ATOM      8  C   UNL     1       3.867  -0.109   0.082  0.00  0.00    +0.000 C 
ATOM      9  O   UNL     1       3.419   1.012  -0.322  0.00  0.00    +0.000 OA
BRANCH   8  10
ATOM     10  C   UNL     1       5.224  -0.562  -0.230  0.00  0.00    +0.000 A 
ATOM     11  C   UNL     1       5.636  -1.842  -0.561  0.00  0.00    +0.000 A 
ATOM     12  N   UNL     1       6.954  -1.808  -0.770  0.00  0.00    +0.000 NA
ATOM     13  C   UNL     1       7.449  -0.557  -0.593  0.00  0.00    +0.000 A 
ATOM     14  N   UNL     1       8.693  -0.074  -0.696  0.00  0.00    +0.000 NA
ATOM     15  C   UNL     1       8.923   1.221  -0.465  0.00  0.00    +0.000 A 
ATOM     16  C   UNL     1       7.876   2.046  -0.123  0.00  0.00    +0.000 A 
ATOM     17  C   UNL     1       6.609   1.542  -0.022  0.00  0.00    +0.000 A 
ATOM     18  C   UNL     1       6.343   0.220  -0.253  0.00  0.00    +0.000 A 
ENDBRANCH   8  10
ENDBRANCH   4   7
BRANCH   1  19
ATOM     19  C   UNL     1      -1.540   0.505  -1.255  0.00  0.00    +0.000 C 
BRANCH  19  20
ATOM     20  C   UNL     1      -2.570   1.545  -0.775  0.00  0.00    +0.000 C 
BRANCH  20  25
ATOM     21  C   UNL     1      -6.420  -0.603  -2.288  0.00  0.00    +0.000 C 
ATOM     22  C   UNL     1      -5.788   0.348  -1.298  0.00  0.00    +0.000 C 
ATOM     23  C   UNL     1      -6.005   1.764  -1.750  0.00  0.00    +0.000 C 
ATOM     24  C   UNL     1      -4.329  -0.027  -1.182  0.00  0.00    +0.000 C 
ATOM     25  N   UNL     1      -3.631   0.746  -0.179  0.00  0.00    +0.000 NA
ATOM     26  C   UNL     1      -4.476   1.480   0.700  0.00  0.00    +0.000 C 
ATOM     27  C   UNL     1      -5.707   0.747   1.089  0.00  0.00    +0.000 A 
ATOM     28  C   UNL     1      -6.150   0.651   2.392  0.00  0.00    +0.000 A 
ATOM     29  C   UNL     1      -7.316  -0.059   2.636  0.00  0.00    +0.000 A 
ATOM     30  C   UNL     1      -7.993  -0.644   1.577  0.00  0.00    +0.000 A 
ATOM     31  C   UNL     1      -7.554  -0.550   0.278  0.00  0.00    +0.000 A 
ATOM     32  C   UNL     1      -6.412   0.146   0.044  0.00  0.00    +0.000 A 
ENDBRANCH  20  25
ENDBRANCH  19  20
ENDBRANCH   1  19
TORSDOF 5
