REMARK  Name = 
REMARK  7 active torsions:
REMARK  status: ('A' for Active; 'I' for Inactive)
REMARK    1  A    between atoms: C_2  and  O_3
REMARK    2  A    between atoms: O_3  and  C_4
REMARK    3  A    between atoms: C_7  and  N_8
REMARK    4  A    between atoms: C_11  and  N_12
REMARK    5  A    between atoms: N_12  and  C_13
REMARK    6  A    between atoms: C_20  and  S_21
REMARK    7  A    between atoms: S_21  and  C_22
REMARK                            x       y       z     vdW  Elec       q    Type
REMARK                         _______ _______ _______ _____ _____    ______ ____
ROOT
ATOM      1  N   UNL     1       0.667  -0.119  -0.210  0.00  0.00    +0.000 N 
ATOM      2  C   UNL     1      -0.254  -1.212  -0.387  0.00  0.00    +0.000 C 
ATOM      3  O   UNL     1       0.158  -2.391  -0.590  0.00  0.00    +0.000 OA
ATOM      4  C   UNL     1      -1.632  -0.759  -0.298  0.00  0.00    +0.000 C 
ATOM      5  C   UNL     1      -1.543   0.572  -0.073  0.00  0.00    +0.000 C 
ATOM      6  C   UNL     1      -0.167   1.004  -0.011  0.00  0.00    +0.000 C 
ATOM      7  O   UNL     1       0.195   2.216   0.192  0.00  0.00    +0.000 OA
ENDROOT
BRANCH   1  11
ATOM      8  C   UNL     1       4.908  -0.290  -0.283  0.00  0.00    +0.000 A 
ATOM      9  C   UNL     1       4.186   0.317  -1.283  0.00  0.00    +0.000 A 
ATOM     10  C   UNL     1       2.805   0.378  -1.268  0.00  0.00    +0.000 A 
ATOM     11  C   UNL     1       2.087  -0.179  -0.228  0.00  0.00    +0.000 A 
ATOM     12  C   UNL     1       2.808  -0.791   0.779  0.00  0.00    +0.000 A 
ATOM     13  C   UNL     1       4.188  -0.849   0.758  0.00  0.00    +0.000 A 
BRANCH   8  14
ATOM     14  O   UNL     1       6.291  -0.316  -0.365  0.00  0.00    +0.000 OA
BRANCH  14  16
ATOM     15  C   UNL     1       8.553  -0.828   0.336  0.00  0.00    +0.000 C 
ATOM     16  C   UNL     1       7.086  -0.925   0.640  0.00  0.00    +0.000 C 
ENDBRANCH  14  16
ENDBRANCH   8  14
ENDBRANCH   1  11
BRANCH   4  17
ATOM     17  N   UNL     1      -2.861  -1.438  -0.392  0.00  0.00    +0.000 NA
BRANCH  17  18
ATOM     18  C   UNL     1      -3.026  -2.809  -0.564  0.00  0.00    +0.000 A 
ATOM     19  C   UNL     1      -4.351  -3.309  -0.511  0.00  0.00    +0.000 A 
ATOM     20  C   UNL     1      -4.552  -4.648  -0.677  0.00  0.00    +0.000 A 
ATOM     21  C   UNL     1      -3.523  -5.541  -0.896  0.00  0.00    +0.000 A 
ATOM     22  C   UNL     1      -2.219  -5.057  -0.950  0.00  0.00    +0.000 A 
ATOM     23  C   UNL     1      -1.103  -6.016  -1.190  0.00  0.00    +0.000 C 
ATOM     24  C   UNL     1      -2.050  -3.728  -0.781  0.00  0.00    +0.000 A 
ENDBRANCH  17  18
ENDBRANCH   4  17
BRANCH   5  25
ATOM     25  S   UNL     1      -2.969   1.640   0.124  0.00  0.00    +0.000 S 
BRANCH  25  26
ATOM     26  C   UNL     1      -2.467   3.309   0.477  0.00  0.00    +0.000 A 
ATOM     27  C   UNL     1      -2.281   3.761   1.774  0.00  0.00    +0.000 A 
ATOM     28  C   UNL     1      -1.891   5.056   2.026  0.00  0.00    +0.000 A 
ATOM     29  C   UNL     1      -1.674   5.941   0.991  0.00  0.00    +0.000 A 
ATOM     30  C   UNL     1      -1.254   7.349   1.168  0.00  0.00    +0.000 C 
ATOM     31  C   UNL     1      -1.862   5.479  -0.290  0.00  0.00    +0.000 A 
ATOM     32  C   UNL     1      -2.253   4.183  -0.544  0.00  0.00    +0.000 A 
ENDBRANCH  25  26
ENDBRANCH   5  25
TORSDOF 7
