REMARK  Name = 
REMARK  7 active torsions:
REMARK  status: ('A' for Active; 'I' for Inactive)
REMARK    1  A    between atoms: C_5  and  C_6
REMARK    2  A    between atoms: C_9  and  S_10
REMARK    3  A    between atoms: S_10  and  C_11
REMARK    4  A    between atoms: C_11  and  C_12
REMARK    5  A    between atoms: C_15  and  C_16
REMARK    6  A    between atoms: N_18  and  C_19
REMARK    7  A    between atoms: C_19  and  C_21
REMARK                            x       y       z     vdW  Elec       q    Type
REMARK                         _______ _______ _______ _____ _____    ______ ____
ROOT
ATOM      1  C   UNL     1      -0.235  -0.205   2.108  0.00  0.00    +0.000 C 
ENDROOT
BRANCH   1   2
ATOM      2  C   UNL     1      -1.484   0.110   1.381  0.00  0.00    +0.000 A 
ATOM      3  C   UNL     1      -1.678   0.894   0.292  0.00  0.00    +0.000 A 
ATOM      4  C   UNL     1      -2.994   1.069  -0.207  0.00  0.00    +0.000 A 
ATOM      5  C   UNL     1      -4.053   0.494   0.353  0.00  0.00    +0.000 A 
ATOM      6  C   UNL     1      -3.867  -0.313   1.481  0.00  0.00    +0.000 A 
ATOM      7  C   UNL     1      -2.620  -0.490   1.964  0.00  0.00    +0.000 A 
BRANCH   5   8
ATOM      8  C   UNL     1      -5.481   0.543  -0.024  0.00  0.00    +0.000 C 
ATOM      9  O   UNL     1      -5.943   0.513  -1.154  0.00  0.00    +0.000 OA
ATOM     10  N   UNL     1      -6.487   0.626   0.988  0.00  0.00    +0.000 NA
BRANCH  10  11
ATOM     11  C   UNL     1      -7.985   0.652   0.548  0.00  0.00    +0.000 C 
ATOM     12  C   UNL     1      -7.728   1.705  -0.698  0.00  0.00    +0.000 C 
BRANCH  11  13
ATOM     13  C   UNL     1      -7.872  -0.693  -0.409  0.00  0.00    +0.000 C 
ATOM     14  C   UNL     1      -9.254  -0.905  -0.944  0.00  0.00    +0.000 C 
ATOM     15  C   UNL     1      -7.658  -1.748   0.671  0.00  0.00    +0.000 C 
ENDBRANCH  11  13
ENDBRANCH  10  11
ENDBRANCH   5   8
ENDBRANCH   1   2
BRANCH   1  16
ATOM     16  S   UNL     1       0.552  -1.603   1.287  0.00  0.00    +0.000 S 
BRANCH  16  20
ATOM     17  C   UNL     1       4.694  -0.348  -0.155  0.00  0.00    +0.000 A 
ATOM     18  C   UNL     1       4.196  -1.538  -0.617  0.00  0.00    +0.000 A 
ATOM     19  C   UNL     1       2.909  -1.886  -0.216  0.00  0.00    +0.000 A 
ATOM     20  C   UNL     1       2.124  -1.120   0.592  0.00  0.00    +0.000 A 
ATOM     21  N   UNL     1       2.696   0.051   1.003  0.00  0.00    +0.000 NA
ATOM     22  N   UNL     1       3.906   0.408   0.652  0.00  0.00    +0.000 NA
BRANCH  17  27
ATOM     23  C   UNL     1      10.105   1.191  -1.223  0.00  0.00    +0.000 C 
ATOM     24  C   UNL     1       8.686   0.786  -0.981  0.00  0.00    +0.000 A 
ATOM     25  C   UNL     1       7.869   1.554  -0.146  0.00  0.00    +0.000 A 
ATOM     26  C   UNL     1       6.574   1.236   0.141  0.00  0.00    +0.000 A 
ATOM     27  C   UNL     1       6.066   0.067  -0.451  0.00  0.00    +0.000 A 
ATOM     28  C   UNL     1       6.827  -0.715  -1.272  0.00  0.00    +0.000 A 
ATOM     29  C   UNL     1       8.133  -0.336  -1.524  0.00  0.00    +0.000 A 
ENDBRANCH  17  27
ENDBRANCH  16  20
ENDBRANCH   1  16
TORSDOF 7
