REMARK  Name = 
REMARK  6 active torsions:
REMARK  status: ('A' for Active; 'I' for Inactive)
REMARK    1  A    between atoms: C_2  and  C_3
REMARK    2  A    between atoms: C_3  and  C_5
REMARK    3  A    between atoms: C_8  and  N_9
REMARK    4  A    between atoms: C_16  and  C_17
REMARK    5  A    between atoms: N_21  and  C_22
REMARK    6  A    between atoms: C_22  and  C_23
REMARK                            x       y       z     vdW  Elec       q    Type
REMARK                         _______ _______ _______ _____ _____    ______ ____
ROOT
ATOM      1  N   UNL     1      -2.138  -0.202   0.698  0.00  0.00    +0.000 N 
ATOM      2  C   UNL     1      -2.424   0.414   1.939  0.00  0.00    +0.000 C 
ATOM      3  O   UNL     1      -3.669   0.525   2.206  0.00  0.00    +0.000 OA
ATOM      4  N   UNL     1      -1.458   0.888   2.845  0.00  0.00    +0.000 NA
ATOM      5  C   UNL     1      -0.198   0.764   2.550  0.00  0.00    +0.000 C 
ATOM      6  O   UNL     1       0.769   1.236   3.448  0.00  0.00    +0.000 OA
ATOM      7  C   UNL     1       0.298   0.159   1.329  0.00  0.00    +0.000 C 
ATOM      8  C   UNL     1       1.553  -0.020   1.017  0.00  0.00    +0.000 C 
ATOM      9  C   UNL     1      -0.766  -0.327   0.398  0.00  0.00    +0.000 C 
ATOM     10  O   UNL     1      -0.382  -0.852  -0.663  0.00  0.00    +0.000 OA
ENDROOT
BRANCH   1  14
ATOM     11  C   UNL     1      -4.992  -1.626  -2.125  0.00  0.00    +0.000 A 
ATOM     12  C   UNL     1      -4.971  -2.115  -0.869  0.00  0.00    +0.000 A 
ATOM     13  C   UNL     1      -4.040  -1.647   0.043  0.00  0.00    +0.000 A 
ATOM     14  C   UNL     1      -3.101  -0.687  -0.236  0.00  0.00    +0.000 A 
ATOM     15  C   UNL     1      -3.170  -0.224  -1.533  0.00  0.00    +0.000 A 
ATOM     16  C   UNL     1      -4.081  -0.666  -2.468  0.00  0.00    +0.000 A 
BRANCH  11  17
ATOM     17  C   UNL     1      -6.030  -2.138  -3.194  0.00  0.00    +0.000 C 
ATOM     18  C   UNL     1      -5.855  -0.987  -4.319  0.00  0.00    +0.000 C 
BRANCH  17  20
ATOM     19  C   UNL     1      -8.259  -1.384  -3.695  0.00  0.00    +0.000 C 
ATOM     20  C   UNL     1      -7.325  -1.390  -2.499  0.00  0.00    +0.000 C 
ENDBRANCH  17  20
ENDBRANCH  11  17
ENDBRANCH   1  14
BRANCH   8  21
ATOM     21  C   UNL     1       2.627   0.368   1.887  0.00  0.00    +0.000 A 
ATOM     22  C   UNL     1       2.832  -0.094   3.194  0.00  0.00    +0.000 A 
ATOM     23  C   UNL     1       3.954   0.490   3.729  0.00  0.00    +0.000 A 
ATOM     24  C   UNL     1       4.421   1.309   2.724  0.00  0.00    +0.000 A 
ATOM     25  N   UNL     1       3.636   1.230   1.650  0.00  0.00    +0.000 N 
BRANCH  25  26
ATOM     26  C   UNL     1       3.796   1.933   0.413  0.00  0.00    +0.000 C 
BRANCH  26  27
ATOM     27  C   UNL     1       4.629   1.214  -0.585  0.00  0.00    +0.000 A 
ATOM     28  C   UNL     1       4.049   0.588  -1.656  0.00  0.00    +0.000 A 
ATOM     29  C   UNL     1       4.754  -0.087  -2.617  0.00  0.00    +0.000 A 
ATOM     30  C   UNL     1       6.131  -0.140  -2.498  0.00  0.00    +0.000 A 
ATOM     31  C   UNL     1       6.723   0.487  -1.422  0.00  0.00    +0.000 A 
ATOM     32  C   UNL     1       5.996   1.159  -0.471  0.00  0.00    +0.000 A 
ATOM     33  C   UNL     1       6.694   1.824   0.687  0.00  0.00    +0.000 C 
ENDBRANCH  26  27
ENDBRANCH  25  26
ENDBRANCH   8  21
TORSDOF 6
