REMARK  Name = 
REMARK  6 active torsions:
REMARK  status: ('A' for Active; 'I' for Inactive)
REMARK    1  A    between atoms: O_2  and  C_3
REMARK    2  A    between atoms: C_6  and  C_7
REMARK    3  A    between atoms: C_17  and  O_18
REMARK    4  A    between atoms: O_18  and  C_19
REMARK    5  A    between atoms: C_19  and  C_20
REMARK    6  A    between atoms: C_28  and  C_29
REMARK                            x       y       z     vdW  Elec       q    Type
REMARK                         _______ _______ _______ _____ _____    ______ ____
ROOT
ATOM      1  C   UNL     1      -2.366  -1.059   1.100  0.00  0.00    +0.000 C 
ATOM      2  N   UNL     1      -1.725  -0.394   2.389  0.00  0.00    +0.000 NA
ATOM      3  C   UNL     1      -0.835  -1.329   2.970  0.00  0.00    +0.000 C 
ATOM      4  C   UNL     1       0.472  -1.274   2.259  0.00  0.00    +0.000 C 
ATOM      5  C   UNL     1       0.186  -1.242   0.814  0.00  0.00    +0.000 A 
ATOM      6  C   UNL     1      -0.998  -1.147   0.256  0.00  0.00    +0.000 A 
ATOM      7  N   UNL     1      -0.949  -1.145  -1.107  0.00  0.00    +0.000 NA
ATOM      8  C   UNL     1       0.364  -1.246  -1.412  0.00  0.00    +0.000 A 
ATOM      9  C   UNL     1       1.056  -1.295  -2.604  0.00  0.00    +0.000 A 
ATOM     10  C   UNL     1       2.427  -1.402  -2.660  0.00  0.00    +0.000 A 
ATOM     11  C   UNL     1       3.175  -1.465  -1.488  0.00  0.00    +0.000 A 
ATOM     12  C   UNL     1       2.462  -1.415  -0.312  0.00  0.00    +0.000 A 
ATOM     13  C   UNL     1       1.097  -1.308  -0.224  0.00  0.00    +0.000 A 
ENDROOT
BRANCH   1  17
ATOM     14  C   UNL     1      -3.801   2.620  -0.647  0.00  0.00    +0.000 A 
ATOM     15  C   UNL     1      -2.539   2.567  -0.101  0.00  0.00    +0.000 A 
ATOM     16  C   UNL     1      -2.078   1.395   0.459  0.00  0.00    +0.000 A 
ATOM     17  C   UNL     1      -2.891   0.318   0.454  0.00  0.00    +0.000 A 
ATOM     18  C   UNL     1      -4.151   0.304  -0.070  0.00  0.00    +0.000 A 
ATOM     19  C   UNL     1      -4.614   1.486  -0.633  0.00  0.00    +0.000 A 
BRANCH  18  20
ATOM     20  C   UNL     1      -5.040  -0.877  -0.074  0.00  0.00    +0.000 C 
ATOM     21  C   UNL     1      -6.369  -0.592  -0.718  0.00  0.00    +0.000 C 
ATOM     22  C   UNL     1      -4.409  -2.088  -0.677  0.00  0.00    +0.000 C 
ENDBRANCH  18  20
BRANCH  14  24
ATOM     23  C   UNL     1      -3.391   4.947  -1.201  0.00  0.00    +0.000 C 
ATOM     24  O   UNL     1      -4.237   3.816  -1.203  0.00  0.00    +0.000 OA
ENDBRANCH  14  24
ENDBRANCH   1  17
BRANCH  11  25
ATOM     25  O   UNL     1       4.548  -1.573  -1.578  0.00  0.00    +0.000 OA
BRANCH  25  26
ATOM     26  C   UNL     1       5.301  -1.632  -0.394  0.00  0.00    +0.000 C 
BRANCH  26  27
ATOM     27  C   UNL     1       5.060  -0.380   0.357  0.00  0.00    +0.000 A 
ATOM     28  C   UNL     1       5.612   0.785  -0.149  0.00  0.00    +0.000 A 
ATOM     29  C   UNL     1       5.430   1.978   0.512  0.00  0.00    +0.000 A 
ATOM     30  C   UNL     1       4.701   2.060   1.688  0.00  0.00    +0.000 A 
ATOM     31  C   UNL     1       4.160   0.891   2.175  0.00  0.00    +0.000 A 
ATOM     32  C   UNL     1       4.340  -0.302   1.517  0.00  0.00    +0.000 A 
ENDBRANCH  26  27
ENDBRANCH  25  26
ENDBRANCH  11  25
TORSDOF 6
