REMARK  Name = 
REMARK  7 active torsions:
REMARK  status: ('A' for Active; 'I' for Inactive)
REMARK    1  A    between atoms: N_2  and  C_4
REMARK    2  A    between atoms: C_4  and  C_5
REMARK    3  A    between atoms: C_5  and  C_6
REMARK    4  A    between atoms: C_6  and  N_7
REMARK    5  A    between atoms: C_13  and  C_14
REMARK    6  A    between atoms: N_16  and  C_17
REMARK    7  A    between atoms: C_20  and  C_21
REMARK                            x       y       z     vdW  Elec       q    Type
REMARK                         _______ _______ _______ _____ _____    ______ ____
ROOT
ATOM      1  C   UNL     1       1.446   0.179  -1.230  0.00  0.00    +0.000 C 
ATOM      2  O   UNL     1       1.388  -0.812  -0.457  0.00  0.00    +0.000 OA
ATOM      3  N   UNL     1       0.303   1.041  -1.212  0.00  0.00    +0.000 NA
ENDROOT
BRANCH   1  10
ATOM      4  N   UNL     1       3.579  -1.547  -1.176  0.00  0.00    +0.000 NA
ATOM      5  C   UNL     1       3.673  -0.453  -2.044  0.00  0.00    +0.000 A 
ATOM      6  N   UNL     1       4.725  -0.196  -2.844  0.00  0.00    +0.000 NA
ATOM      7  C   UNL     1       4.819   0.839  -3.670  0.00  0.00    +0.000 A 
ATOM      8  C   UNL     1       3.781   1.731  -3.735  0.00  0.00    +0.000 A 
ATOM      9  C   UNL     1       2.678   1.514  -2.937  0.00  0.00    +0.000 A 
ATOM     10  C   UNL     1       2.592   0.441  -2.087  0.00  0.00    +0.000 A 
BRANCH   4  11
ATOM     11  C   UNL     1       4.453  -2.593  -0.900  0.00  0.00    +0.000 C 
BRANCH  11  12
ATOM     12  C   UNL     1       5.788  -2.341  -0.351  0.00  0.00    +0.000 C 
BRANCH  12  13
ATOM     13  C   UNL     1       6.761  -1.557  -1.132  0.00  0.00    +0.000 C 
BRANCH  13  15
ATOM     14  C   UNL     1       8.034  -1.435  -3.162  0.00  0.00    +0.000 C 
ATOM     15  N   UNL     1       7.085  -2.190  -2.389  0.00  0.00    +0.000 NA
ATOM     16  C   UNL     1       7.444  -3.576  -2.248  0.00  0.00    +0.000 C 
ENDBRANCH  13  15
ENDBRANCH  12  13
ENDBRANCH  11  12
ENDBRANCH   4  11
ENDBRANCH   1  10
BRANCH   3  17
ATOM     17  C   UNL     1      -0.825   0.798  -0.380  0.00  0.00    +0.000 A 
ATOM     18  C   UNL     1      -1.860   1.706  -0.458  0.00  0.00    +0.000 A 
ATOM     19  C   UNL     1      -2.992   1.544   0.316  0.00  0.00    +0.000 A 
ATOM     20  C   UNL     1      -3.105   0.480   1.174  0.00  0.00    +0.000 A 
ATOM     21  C   UNL     1      -2.074  -0.411   1.243  0.00  0.00    +0.000 A 
ATOM     22  C   UNL     1      -0.916  -0.273   0.472  0.00  0.00    +0.000 A 
BRANCH  20  23
ATOM     23  C   UNL     1      -4.322   0.358   1.968  0.00  0.00    +0.000 A 
ATOM     24  C   UNL     1      -4.592  -0.652   2.877  0.00  0.00    +0.000 A 
ATOM     25  C   UNL     1      -5.838  -0.395   3.405  0.00  0.00    +0.000 A 
ATOM     26  C   UNL     1      -6.658  -0.992   4.324  0.00  0.00    +0.000 A 
ATOM     27  C   UNL     1      -7.901  -0.510   4.682  0.00  0.00    +0.000 A 
ATOM     28  C   UNL     1      -8.328   0.654   4.061  0.00  0.00    +0.000 A 
ATOM     29  C   UNL     1      -7.517   1.271   3.132  0.00  0.00    +0.000 A 
ATOM     30  C   UNL     1      -6.273   0.759   2.796  0.00  0.00    +0.000 A 
ATOM     31  O   UNL     1      -5.350   1.164   1.961  0.00  0.00    +0.000 OA
ENDBRANCH  20  23
ENDBRANCH   3  17
TORSDOF 7
