REMARK  Name = 
REMARK  8 active torsions:
REMARK  status: ('A' for Active; 'I' for Inactive)
REMARK    1  A    between atoms: C_2  and  C_3
REMARK    2  A    between atoms: C_3  and  N_4
REMARK    3  A    between atoms: C_5  and  C_6
REMARK    4  A    between atoms: C_6  and  C_8
REMARK    5  A    between atoms: C_11  and  O_12
REMARK    6  A    between atoms: O_12  and  C_13
REMARK    7  A    between atoms: C_13  and  C_14
REMARK    8  A    between atoms: C_20  and  O_21
REMARK                            x       y       z     vdW  Elec       q    Type
REMARK                         _______ _______ _______ _____ _____    ______ ____
ROOT
ATOM      1  C   UNL     1       0.661  -1.417   0.981  0.00  0.00    +0.000 A 
ATOM      2  C   UNL     1      -0.205  -2.382   0.625  0.00  0.00    +0.000 A 
ATOM      3  C   UNL     1      -1.545  -2.024   0.516  0.00  0.00    +0.000 A 
ATOM      4  C   UNL     1      -1.993  -0.744   0.756  0.00  0.00    +0.000 A 
ATOM      5  C   UNL     1      -1.058   0.203   1.117  0.00  0.00    +0.000 A 
ATOM      6  C   UNL     1       0.290  -0.142   1.231  0.00  0.00    +0.000 A 
ENDROOT
BRANCH   1   7
ATOM      7  C   UNL     1       2.193  -1.769   1.103  0.00  0.00    +0.000 C 
ATOM      8  O   UNL     1       2.372  -1.103   2.451  0.00  0.00    +0.000 OA
BRANCH   7  10
ATOM      9  N   UNL     1       3.643  -0.692  -0.727  0.00  0.00    +0.000 N 
ATOM     10  C   UNL     1       2.770  -0.561   0.271  0.00  0.00    +0.000 A 
ATOM     11  N   UNL     1       2.510   0.722   0.401  0.00  0.00    +0.000 NA
ATOM     12  C   UNL     1       3.208   1.455  -0.507  0.00  0.00    +0.000 A 
ATOM     13  C   UNL     1       3.252   2.817  -0.741  0.00  0.00    +0.000 A 
ATOM     14  C   UNL     1       4.066   3.278  -1.748  0.00  0.00    +0.000 A 
ATOM     15  C   UNL     1       4.796   2.381  -2.478  0.00  0.00    +0.000 A 
ATOM     16  C   UNL     1       4.743   1.006  -2.233  0.00  0.00    +0.000 A 
ATOM     17  C   UNL     1       3.937   0.545  -1.234  0.00  0.00    +0.000 A 
BRANCH   9  18
ATOM     18  C   UNL     1       4.260  -1.876  -1.286  0.00  0.00    +0.000 C 
BRANCH  18  20
ATOM     19  C   UNL     1       6.115  -3.468  -1.260  0.00  0.00    +0.000 C 
ATOM     20  C   UNL     1       5.557  -2.236  -0.613  0.00  0.00    +0.000 C 
ENDBRANCH  18  20
ENDBRANCH   9  18
ENDBRANCH   7  10
ENDBRANCH   1   7
BRANCH   5  21
ATOM     21  O   UNL     1      -1.498   1.489   1.360  0.00  0.00    +0.000 OA
ATOM     22  C   UNL     1      -0.619   2.537   1.737  0.00  0.00    +0.000 C 
ENDBRANCH   5  21
BRANCH   4  23
ATOM     23  O   UNL     1      -3.301  -0.535   0.616  0.00  0.00    +0.000 OA
BRANCH  23  24
ATOM     24  C   UNL     1      -4.416  -1.180   0.300  0.00  0.00    +0.000 C 
BRANCH  24  25
ATOM     25  C   UNL     1      -5.564  -0.256   0.354  0.00  0.00    +0.000 A 
ATOM     26  C   UNL     1      -5.897   0.423  -0.783  0.00  0.00    +0.000 A 
ATOM     27  C   UNL     1      -6.946   1.295  -0.812  0.00  0.00    +0.000 A 
ATOM     28  C   UNL     1      -7.689   1.496   0.336  0.00  0.00    +0.000 A 
ATOM     29  C   UNL     1      -7.357   0.812   1.486  0.00  0.00    +0.000 A 
ATOM     30  C   UNL     1      -6.282  -0.076   1.499  0.00  0.00    +0.000 A 
ENDBRANCH  24  25
ENDBRANCH  23  24
ENDBRANCH   4  23
TORSDOF 8
