REMARK  Name = 
REMARK  9 active torsions:
REMARK  status: ('A' for Active; 'I' for Inactive)
REMARK    1  A    between atoms: C_2  and  C_3
REMARK    2  A    between atoms: C_3  and  C_5
REMARK    3  A    between atoms: C_5  and  O_6
REMARK    4  A    between atoms: O_6  and  C_7
REMARK    5  A    between atoms: C_7  and  C_9
REMARK    6  A    between atoms: N_12  and  C_13
REMARK    7  A    between atoms: C_13  and  C_14
REMARK    8  A    between atoms: C_14  and  C_15
REMARK    9  A    between atoms: C_18  and  O_19
REMARK                            x       y       z     vdW  Elec       q    Type
REMARK                         _______ _______ _______ _____ _____    ______ ____
ROOT
ATOM      1  C   UNL     1      -0.276   0.487  -1.002  0.00  0.00    +0.000 A 
ATOM      2  C   UNL     1       1.033   0.096  -1.190  0.00  0.00    +0.000 A 
ATOM      3  N   UNL     1       2.149   0.984  -1.270  0.00  0.00    +0.000 NA
ATOM      4  N   UNL     1       1.042  -1.257  -1.280  0.00  0.00    +0.000 N 
ATOM      5  C   UNL     1      -0.206  -1.752  -1.158  0.00  0.00    +0.000 A 
ATOM      6  N   UNL     1      -0.738  -2.992  -1.173  0.00  0.00    +0.000 NA
ATOM      7  C   UNL     1      -2.061  -3.196  -1.023  0.00  0.00    +0.000 A 
ATOM      8  C   UNL     1      -2.610  -4.479  -1.039  0.00  0.00    +0.000 A 
ATOM      9  C   UNL     1      -3.968  -4.669  -0.884  0.00  0.00    +0.000 A 
ATOM     10  C   UNL     1      -4.823  -3.603  -0.708  0.00  0.00    +0.000 A 
ATOM     11  C   UNL     1      -4.260  -2.344  -0.695  0.00  0.00    +0.000 A 
ATOM     12  C   UNL     1      -2.904  -2.128  -0.849  0.00  0.00    +0.000 A 
ATOM     13  N   UNL     1      -2.366  -0.892  -0.835  0.00  0.00    +0.000 NA
ATOM     14  C   UNL     1      -1.052  -0.647  -0.981  0.00  0.00    +0.000 A 
ENDROOT
BRANCH   1  15
ATOM     15  C   UNL     1      -0.820   1.854  -0.846  0.00  0.00    +0.000 C 
ATOM     16  O   UNL     1      -0.100   2.863  -0.869  0.00  0.00    +0.000 OA
BRANCH  15  17
ATOM     17  O   UNL     1      -2.134   2.147  -0.664  0.00  0.00    +0.000 OA
BRANCH  17  18
ATOM     18  C   UNL     1      -2.703   3.272  -0.490  0.00  0.00    +0.000 C 
BRANCH  18  19
ATOM     19  C   UNL     1      -2.762   4.166   0.775  0.00  0.00    +0.000 C 
ATOM     20  C   UNL     1      -2.880   5.540  -0.174  0.00  0.00    +0.000 C 
BRANCH  19  22
ATOM     21  C   UNL     1      -0.839   3.252   2.014  0.00  0.00    +0.000 C 
ATOM     22  C   UNL     1      -1.212   4.391   1.056  0.00  0.00    +0.000 C 
ENDBRANCH  19  22
ENDBRANCH  18  19
ENDBRANCH  17  18
ENDBRANCH  15  17
ENDBRANCH   1  15
BRANCH   4  23
ATOM     23  C   UNL     1       2.233  -2.032  -1.477  0.00  0.00    +0.000 C 
BRANCH  23  24
ATOM     24  C   UNL     1       2.914  -2.456  -0.226  0.00  0.00    +0.000 C 
BRANCH  24  25
ATOM     25  C   UNL     1       3.319  -1.286   0.571  0.00  0.00    +0.000 A 
ATOM     26  C   UNL     1       2.425  -0.802   1.492  0.00  0.00    +0.000 A 
ATOM     27  C   UNL     1       2.711   0.291   2.288  0.00  0.00    +0.000 A 
ATOM     28  C   UNL     1       3.918   0.908   2.157  0.00  0.00    +0.000 A 
ATOM     29  C   UNL     1       4.828   0.439   1.241  0.00  0.00    +0.000 A 
ATOM     30  C   UNL     1       4.535  -0.667   0.438  0.00  0.00    +0.000 A 
BRANCH  28  31
ATOM     31  O   UNL     1       4.271   2.018   2.931  0.00  0.00    +0.000 OA
ATOM     32  C   UNL     1       3.337   2.498   3.870  0.00  0.00    +0.000 C 
ENDBRANCH  28  31
ENDBRANCH  24  25
ENDBRANCH  23  24
ENDBRANCH   4  23
TORSDOF 9
