REMARK  Name = 
REMARK  7 active torsions:
REMARK  status: ('A' for Active; 'I' for Inactive)
REMARK    1  A    between atoms: C_5  and  C_6
REMARK    2  A    between atoms: N_7  and  N_8
REMARK    3  A    between atoms: C_9  and  C_11
REMARK    4  A    between atoms: C_11  and  S_12
REMARK    5  A    between atoms: S_12  and  C_13
REMARK    6  A    between atoms: N_21  and  C_22
REMARK    7  A    between atoms: C_22  and  C_23
REMARK                            x       y       z     vdW  Elec       q    Type
REMARK                         _______ _______ _______ _____ _____    ______ ____
ROOT
ATOM      1  C   UNL     1      -1.407   0.605   0.245  0.00  0.00    +0.000 A 
ATOM      2  N   UNL     1      -0.619  -0.465   0.026  0.00  0.00    +0.000 NA
ATOM      3  C   UNL     1      -0.973  -1.012  -1.166  0.00  0.00    +0.000 A 
ATOM      4  C   UNL     1      -0.506  -2.106  -1.874  0.00  0.00    +0.000 A 
ATOM      5  C   UNL     1      -1.080  -2.413  -3.078  0.00  0.00    +0.000 A 
ATOM      6  C   UNL     1      -2.106  -1.668  -3.608  0.00  0.00    +0.000 A 
ATOM      7  C   UNL     1      -2.568  -0.585  -2.907  0.00  0.00    +0.000 A 
ATOM      8  C   UNL     1      -1.993  -0.273  -1.695  0.00  0.00    +0.000 A 
ATOM      9  N   UNL     1      -2.242   0.727  -0.794  0.00  0.00    +0.000 N 
ENDROOT
BRANCH   1  10
ATOM     10  S   UNL     1      -1.412   1.730   1.650  0.00  0.00    +0.000 S 
BRANCH  10  11
ATOM     11  C   UNL     1      -0.271   3.071   1.301  0.00  0.00    +0.000 C 
BRANCH  11  13
ATOM     12  N   UNL     1       1.380   1.152   1.479  0.00  0.00    +0.000 NA
ATOM     13  C   UNL     1       1.101   2.525   1.259  0.00  0.00    +0.000 C 
ATOM     14  O   UNL     1       2.061   3.294   1.022  0.00  0.00    +0.000 OA
BRANCH  12  16
ATOM     15  C   UNL     1       2.993  -0.559   1.091  0.00  0.00    +0.000 C 
ATOM     16  N   UNL     1       2.651   0.608   1.449  0.00  0.00    +0.000 NA
BRANCH  15  21
ATOM     17  C   UNL     1       8.420  -2.527   1.084  0.00  0.00    +0.000 C 
ATOM     18  C   UNL     1       7.013  -2.047   1.076  0.00  0.00    +0.000 A 
ATOM     19  C   UNL     1       6.744  -0.746   1.489  0.00  0.00    +0.000 A 
ATOM     20  C   UNL     1       5.439  -0.274   1.490  0.00  0.00    +0.000 A 
ATOM     21  C   UNL     1       4.369  -1.048   1.093  0.00  0.00    +0.000 A 
ATOM     22  C   UNL     1       4.646  -2.341   0.684  0.00  0.00    +0.000 A 
ATOM     23  C   UNL     1       5.951  -2.826   0.678  0.00  0.00    +0.000 A 
ENDBRANCH  15  21
ENDBRANCH  12  16
ENDBRANCH  11  13
ENDBRANCH  10  11
ENDBRANCH   1  10
BRANCH   9  24
ATOM     24  C   UNL     1      -3.258   1.751  -0.957  0.00  0.00    +0.000 C 
BRANCH  24  25
ATOM     25  C   UNL     1      -4.530   1.311  -0.377  0.00  0.00    +0.000 A 
ATOM     26  C   UNL     1      -4.786   1.579   0.940  0.00  0.00    +0.000 A 
ATOM     27  C   UNL     1      -5.981   1.165   1.482  0.00  0.00    +0.000 A 
ATOM     28  C   UNL     1      -6.941   0.490   0.763  0.00  0.00    +0.000 A 
ATOM     29  C   UNL     1      -6.640   0.241  -0.563  0.00  0.00    +0.000 A 
ATOM     30  C   UNL     1      -5.454   0.642  -1.135  0.00  0.00    +0.000 A 
ENDBRANCH  24  25
ENDBRANCH   9  24
TORSDOF 7
