REMARK  Name = 
REMARK  10 active torsions:
REMARK  status: ('A' for Active; 'I' for Inactive)
REMARK    1  A    between atoms: C_2  and  C_3
REMARK    2  A    between atoms: C_3  and  C_4
REMARK    3  A    between atoms: C_4  and  N_5
REMARK    4  A    between atoms: C_6  and  C_8
REMARK    5  A    between atoms: C_11  and  C_12
REMARK    6  A    between atoms: C_12  and  N_13
REMARK    7  A    between atoms: N_13  and  C_14
REMARK    8  A    between atoms: N_13  and  C_21
REMARK    9  A    between atoms: C_14  and  C_15
REMARK   10  A    between atoms: C_21  and  C_22
REMARK                            x       y       z     vdW  Elec       q    Type
REMARK                         _______ _______ _______ _____ _____    ______ ____
ROOT
ATOM      1  N   UNL     1      -1.710  -0.692   1.979  0.00  0.00    +0.000 NA
ENDROOT
BRANCH   1   2
ATOM      2  C   UNL     1      -0.383  -0.759   2.429  0.00  0.00    +0.000 C 
BRANCH   2   6
ATOM      3  C   UNL     1       2.449  -0.109   0.300  0.00  0.00    +0.000 A 
ATOM      4  C   UNL     1       1.697  -0.918  -0.520  0.00  0.00    +0.000 A 
ATOM      5  C   UNL     1       0.544  -1.274   0.146  0.00  0.00    +0.000 A 
ATOM      6  C   UNL     1       0.646  -0.642   1.391  0.00  0.00    +0.000 A 
ATOM      7  O   UNL     1       1.785   0.026   1.423  0.00  0.00    +0.000 OA
BRANCH   3   9
ATOM      8  N   UNL     1       4.492   1.291   0.792  0.00  0.00    +0.000 NA
ATOM      9  C   UNL     1       3.734   0.455  -0.080  0.00  0.00    +0.000 C 
ATOM     10  O   UNL     1       4.233   0.223  -1.208  0.00  0.00    +0.000 OA
BRANCH   8  11
ATOM     11  C   UNL     1       5.768   1.857   0.429  0.00  0.00    +0.000 C 
BRANCH  11  12
ATOM     12  C   UNL     1       6.795   0.794   0.109  0.00  0.00    +0.000 C 
BRANCH  12  14
ATOM     13  C   UNL     1       7.772   2.378  -1.468  0.00  0.00    +0.000 C 
ATOM     14  C   UNL     1       8.084   1.504  -0.255  0.00  0.00    +0.000 C 
ENDBRANCH  12  14
ENDBRANCH  11  12
ENDBRANCH   8  11
ENDBRANCH   3   9
ENDBRANCH   2   6
ENDBRANCH   1   2
BRANCH   1  15
ATOM     15  C   UNL     1      -2.117   0.534   1.442  0.00  0.00    +0.000 C 
BRANCH  15  16
ATOM     16  C   UNL     1      -1.478   1.056   0.235  0.00  0.00    +0.000 A 
ATOM     17  C   UNL     1      -0.444   1.966   0.244  0.00  0.00    +0.000 A 
ATOM     18  C   UNL     1       0.091   2.421  -0.936  0.00  0.00    +0.000 A 
ATOM     19  C   UNL     1      -0.425   1.951  -2.136  0.00  0.00    +0.000 A 
ATOM     20  C   UNL     1      -1.457   1.042  -2.178  0.00  0.00    +0.000 A 
ATOM     21  C   UNL     1      -1.980   0.598  -0.987  0.00  0.00    +0.000 A 
ENDBRANCH  15  16
ENDBRANCH   1  15
BRANCH   1  22
ATOM     22  C   UNL     1      -2.031  -1.796   1.103  0.00  0.00    +0.000 C 
BRANCH  22  23
ATOM     23  C   UNL     1      -3.439  -1.734   0.638  0.00  0.00    +0.000 A 
ATOM     24  C   UNL     1      -3.903  -2.667  -0.250  0.00  0.00    +0.000 A 
ATOM     25  C   UNL     1      -5.216  -2.658  -0.719  0.00  0.00    +0.000 A 
ATOM     26  C   UNL     1      -6.078  -1.689  -0.282  0.00  0.00    +0.000 A 
ATOM     27  C   UNL     1      -7.500  -1.656  -0.771  0.00  0.00    +0.000 C 
ATOM     28  C   UNL     1      -5.625  -0.742   0.612  0.00  0.00    +0.000 A 
ATOM     29  C   UNL     1      -4.305  -0.762   1.074  0.00  0.00    +0.000 A 
ENDBRANCH  22  23
ENDBRANCH   1  22
TORSDOF 10
