REMARK  Name = 
REMARK  9 active torsions:
REMARK  status: ('A' for Active; 'I' for Inactive)
REMARK    1  A    between atoms: C_2  and  C_3
REMARK    2  A    between atoms: C_3  and  C_4
REMARK    3  A    between atoms: C_4  and  C_5
REMARK    4  A    between atoms: C_5  and  C_6
REMARK    5  A    between atoms: C_6  and  C_7
REMARK    6  A    between atoms: C_8  and  C_9
REMARK    7  A    between atoms: N_11  and  C_12
REMARK    8  A    between atoms: C_12  and  C_13
REMARK    9  A    between atoms: C_20  and  C_21
REMARK                            x       y       z     vdW  Elec       q    Type
REMARK                         _______ _______ _______ _____ _____    ______ ____
ROOT
ATOM      1  C   UNL     1       0.102   0.812  -0.602  0.00  0.00    +0.000 C 
ATOM      2  C   UNL     1       0.066  -0.255  -1.319  0.00  0.00    +0.000 C 
ATOM      3  C   UNL     1       1.485  -0.402  -1.997  0.00  0.00    +0.000 C 
ATOM      4  O   UNL     1       1.805   1.095  -2.023  0.00  0.00    +0.000 OA
ATOM      5  N   UNL     1       1.388   1.409  -0.769  0.00  0.00    +0.000 NA
ENDROOT
BRANCH   3   6
ATOM      6  C   UNL     1       2.324  -0.734  -0.691  0.00  0.00    +0.000 A 
ATOM      7  C   UNL     1       1.827  -1.619   0.209  0.00  0.00    +0.000 A 
ATOM      8  C   UNL     1       2.556  -1.920   1.373  0.00  0.00    +0.000 A 
ATOM      9  C   UNL     1       3.771  -1.302   1.572  0.00  0.00    +0.000 A 
ATOM     10  C   UNL     1       4.292  -0.399   0.667  0.00  0.00    +0.000 A 
ATOM     11  C   UNL     1       5.506   0.227   0.848  0.00  0.00    +0.000 A 
ATOM     12  C   UNL     1       5.952   1.105  -0.093  0.00  0.00    +0.000 A 
ATOM     13  C   UNL     1       5.225   1.401  -1.246  0.00  0.00    +0.000 A 
ATOM     14  C   UNL     1       4.029   0.754  -1.379  0.00  0.00    +0.000 A 
ATOM     15  C   UNL     1       3.520  -0.141  -0.471  0.00  0.00    +0.000 A 
ENDBRANCH   3   6
BRANCH   2  16
ATOM     16  C   UNL     1      -1.005  -1.186  -1.500  0.00  0.00    +0.000 C 
ATOM     17  O   UNL     1      -0.837  -2.185  -2.258  0.00  0.00    +0.000 OA
ATOM     18  N   UNL     1      -2.268  -1.082  -0.888  0.00  0.00    +0.000 NA
BRANCH  18  19
ATOM     19  C   UNL     1      -3.282  -2.053  -1.121  0.00  0.00    +0.000 C 
BRANCH  19  20
ATOM     20  C   UNL     1      -4.546  -1.730  -0.358  0.00  0.00    +0.000 A 
ATOM     21  C   UNL     1      -4.645  -0.632   0.439  0.00  0.00    +0.000 A 
ATOM     22  C   UNL     1      -5.815  -0.383   1.111  0.00  0.00    +0.000 A 
ATOM     23  C   UNL     1      -6.912  -1.216   1.008  0.00  0.00    +0.000 A 
ATOM     24  C   UNL     1      -6.806  -2.330   0.197  0.00  0.00    +0.000 A 
ATOM     25  C   UNL     1      -5.629  -2.572  -0.472  0.00  0.00    +0.000 A 
ATOM     26 BR   UNL     1      -5.482  -4.126  -1.603  0.00  0.00    +0.000 Br
ENDBRANCH  19  20
ENDBRANCH  18  19
ENDBRANCH   2  16
BRANCH   1  27
ATOM     27  C   UNL     1      -0.947   1.433   0.275  0.00  0.00    +0.000 C 
BRANCH  27  28
ATOM     28  C   UNL     1      -0.390   1.486   1.680  0.00  0.00    +0.000 C 
BRANCH  28  29
ATOM     29  C   UNL     1       0.876   2.313   1.740  0.00  0.00    +0.000 C 
BRANCH  29  30
ATOM     30  C   UNL     1       0.586   3.706   1.295  0.00  0.00    +0.000 C 
BRANCH  30  32
ATOM     31  C   UNL     1       1.435   5.956   0.873  0.00  0.00    +0.000 C 
ATOM     32  C   UNL     1       1.821   4.570   1.338  0.00  0.00    +0.000 C 
ENDBRANCH  30  32
ENDBRANCH  29  30
ENDBRANCH  28  29
ENDBRANCH  27  28
ENDBRANCH   1  27
TORSDOF 9
