REMARK  Name = 
REMARK  6 active torsions:
REMARK  status: ('A' for Active; 'I' for Inactive)
REMARK    1  A    between atoms: C_2  and  O_3
REMARK    2  A    between atoms: O_3  and  C_4
REMARK    3  A    between atoms: C_9  and  N_10
REMARK    4  A    between atoms: C_11  and  C_13
REMARK    5  A    between atoms: C_14  and  N_15
REMARK    6  A    between atoms: C_16  and  C_18
REMARK                            x       y       z     vdW  Elec       q    Type
REMARK                         _______ _______ _______ _____ _____    ______ ____
ROOT
ATOM      1  C   UNL     1       0.411  -1.286   0.125  0.00  0.00    +0.000 A 
ATOM      2  C   UNL     1       1.735  -1.176   0.410  0.00  0.00    +0.000 A 
ATOM      3  S   UNL     1       2.223  -2.889   0.296  0.00  0.00    +0.000 S 
ATOM      4  C   UNL     1       0.751  -3.571  -0.101  0.00  0.00    +0.000 A 
ATOM      5  C   UNL     1      -0.094  -2.512  -0.140  0.00  0.00    +0.000 A 
ATOM      6  C   UNL     1      -1.523  -2.929  -0.499  0.00  0.00    +0.000 C 
ATOM      7  C   UNL     1      -1.502  -3.691  -1.810  0.00  0.00    +0.000 C 
ATOM      8  C   UNL     1      -0.584  -4.893  -1.733  0.00  0.00    +0.000 C 
ATOM      9  C   UNL     1       0.156  -4.928  -0.400  0.00  0.00    +0.000 C 
ENDROOT
BRANCH   1  11
ATOM     10  N   UNL     1      -1.856  -0.210  -0.139  0.00  0.00    +0.000 NA
ATOM     11  C   UNL     1      -0.501  -0.114   0.301  0.00  0.00    +0.000 C 
ATOM     12  O   UNL     1      -0.184   0.962   0.803  0.00  0.00    +0.000 OA
BRANCH  10  18
ATOM     13  C   UNL     1      -4.068   0.786  -0.424  0.00  0.00    +0.000 A 
ATOM     14  C   UNL     1      -4.938   1.861  -0.276  0.00  0.00    +0.000 A 
ATOM     15  C   UNL     1      -4.526   3.041   0.297  0.00  0.00    +0.000 A 
ATOM     16  C   UNL     1      -3.221   3.133   0.725  0.00  0.00    +0.000 A 
ATOM     17  C   UNL     1      -2.346   2.050   0.575  0.00  0.00    +0.000 A 
ATOM     18  C   UNL     1      -2.766   0.871  -0.000  0.00  0.00    +0.000 A 
BRANCH  13  19
ATOM     19  O   UNL     1      -4.510  -0.390  -1.005  0.00  0.00    +0.000 OA
BRANCH  19  21
ATOM     20  C   UNL     1      -5.880  -2.017  -2.038  0.00  0.00    +0.000 C 
ATOM     21  C   UNL     1      -5.813  -0.598  -1.476  0.00  0.00    +0.000 C 
ENDBRANCH  19  21
ENDBRANCH  13  19
ENDBRANCH  10  18
ENDBRANCH   1  11
BRANCH   2  22
ATOM     22  N   UNL     1       2.697  -0.182   0.565  0.00  0.00    +0.000 NA
ATOM     23  C   UNL     1       2.904   1.123   0.259  0.00  0.00    +0.000 C 
ATOM     24  O   UNL     1       2.027   1.737  -0.401  0.00  0.00    +0.000 OA
BRANCH  23  25
ATOM     25  C   UNL     1       4.115   1.881   0.661  0.00  0.00    +0.000 A 
ATOM     26  C   UNL     1       5.145   1.332   1.380  0.00  0.00    +0.000 A 
ATOM     27  C   UNL     1       6.262   2.071   1.738  0.00  0.00    +0.000 A 
ATOM     28  C   UNL     1       6.345   3.382   1.367  0.00  0.00    +0.000 A 
ATOM     29  C   UNL     1       5.332   3.962   0.646  0.00  0.00    +0.000 A 
ATOM     30  C   UNL     1       4.206   3.194   0.293  0.00  0.00    +0.000 A 
ENDBRANCH  23  25
ENDBRANCH   2  22
TORSDOF 6
