REMARK  Name = 
REMARK  8 active torsions:
REMARK  status: ('A' for Active; 'I' for Inactive)
REMARK    1  A    between atoms: C_2  and  O_3
REMARK    2  A    between atoms: O_3  and  C_4
REMARK    3  A    between atoms: C_7  and  N_8
REMARK    4  A    between atoms: C_11  and  N_12
REMARK    5  A    between atoms: N_12  and  C_13
REMARK    6  A    between atoms: C_16  and  O_17
REMARK    7  A    between atoms: C_21  and  S_22
REMARK    8  A    between atoms: S_22  and  C_23
REMARK                            x       y       z     vdW  Elec       q    Type
REMARK                         _______ _______ _______ _____ _____    ______ ____
ROOT
ATOM      1  N   UNL     1       1.164  -0.026   0.484  0.00  0.00    +0.000 N 
ATOM      2  C   UNL     1       0.192  -0.745   1.234  0.00  0.00    +0.000 C 
ATOM      3  O   UNL     1       0.421  -1.843   1.790  0.00  0.00    +0.000 OA
ATOM      4  C   UNL     1      -1.064   0.032   1.218  0.00  0.00    +0.000 C 
ATOM      5  C   UNL     1      -0.881   1.136   0.516  0.00  0.00    +0.000 C 
ATOM      6  C   UNL     1       0.493   1.144   0.038  0.00  0.00    +0.000 C 
ATOM      7  O   UNL     1       1.065   2.031  -0.672  0.00  0.00    +0.000 OA
ENDROOT
BRANCH   1  11
ATOM      8  C   UNL     1       5.190  -0.947  -0.374  0.00  0.00    +0.000 A 
ATOM      9  C   UNL     1       4.560   0.111  -0.992  0.00  0.00    +0.000 A 
ATOM     10  C   UNL     1       3.233   0.382  -0.685  0.00  0.00    +0.000 A 
ATOM     11  C   UNL     1       2.514  -0.367   0.218  0.00  0.00    +0.000 A 
ATOM     12  C   UNL     1       3.162  -1.420   0.825  0.00  0.00    +0.000 A 
ATOM     13  C   UNL     1       4.498  -1.712   0.531  0.00  0.00    +0.000 A 
BRANCH   8  14
ATOM     14  O   UNL     1       6.522  -1.193  -0.704  0.00  0.00    +0.000 OA
BRANCH  14  16
ATOM     15  C   UNL     1       7.351  -2.141   1.372  0.00  0.00    +0.000 C 
ATOM     16  C   UNL     1       7.255  -2.255  -0.122  0.00  0.00    +0.000 C 
ENDBRANCH  14  16
ENDBRANCH   8  14
ENDBRANCH   1  11
BRANCH   4  17
ATOM     17  N   UNL     1      -2.276  -0.343   1.853  0.00  0.00    +0.000 NA
BRANCH  17  18
ATOM     18  C   UNL     1      -3.179  -1.289   1.307  0.00  0.00    +0.000 A 
ATOM     19  C   UNL     1      -4.322  -1.589   2.011  0.00  0.00    +0.000 A 
ATOM     20  C   UNL     1      -5.274  -2.508   1.557  0.00  0.00    +0.000 A 
ATOM     21  C   UNL     1      -5.074  -3.148   0.354  0.00  0.00    +0.000 A 
ATOM     22  C   UNL     1      -3.926  -2.846  -0.350  0.00  0.00    +0.000 A 
ATOM     23  C   UNL     1      -2.977  -1.929   0.103  0.00  0.00    +0.000 A 
BRANCH  21  24
ATOM     24  O   UNL     1      -5.999  -4.074  -0.137  0.00  0.00    +0.000 OA
ATOM     25  C   UNL     1      -5.780  -4.723  -1.370  0.00  0.00    +0.000 C 
ENDBRANCH  21  24
ENDBRANCH  17  18
ENDBRANCH   4  17
BRANCH   5  26
ATOM     26  S   UNL     1      -2.062   2.424   0.179  0.00  0.00    +0.000 S 
BRANCH  26  27
ATOM     27  C   UNL     1      -1.332   3.701  -0.823  0.00  0.00    +0.000 A 
ATOM     28  C   UNL     1      -0.676   4.801  -0.318  0.00  0.00    +0.000 A 
ATOM     29  C   UNL     1      -0.146   5.738  -1.209  0.00  0.00    +0.000 A 
ATOM     30  C   UNL     1      -0.272   5.574  -2.570  0.00  0.00    +0.000 A 
ATOM     31  C   UNL     1      -0.932   4.466  -3.068  0.00  0.00    +0.000 A 
ATOM     32  C   UNL     1      -1.447   3.557  -2.199  0.00  0.00    +0.000 A 
ENDBRANCH  26  27
ENDBRANCH   5  26
TORSDOF 8
