REMARK  Name = 
REMARK  9 active torsions:
REMARK  status: ('A' for Active; 'I' for Inactive)
REMARK    1  A    between atoms: C_2  and  C_3
REMARK    2  A    between atoms: C_7  and  C_8
REMARK    3  A    between atoms: C_10  and  N_11
REMARK    4  A    between atoms: C_12  and  C_14
REMARK    5  A    between atoms: C_14  and  O_15
REMARK    6  A    between atoms: O_15  and  C_16
REMARK    7  A    between atoms: C_16  and  C_18
REMARK    8  A    between atoms: C_18  and  C_19
REMARK    9  A    between atoms: C_22  and  C_23
REMARK                            x       y       z     vdW  Elec       q    Type
REMARK                         _______ _______ _______ _____ _____    ______ ____
ROOT
ATOM      1  O   UNL     1      -0.512   1.489  -1.264  0.00  0.00    +0.000 OA
ENDROOT
BRANCH   1   2
ATOM      2  C   UNL     1       0.094   1.055  -0.083  0.00  0.00    +0.000 C 
ATOM      3  O   UNL     1      -0.300   0.013   0.468  0.00  0.00    +0.000 OA
BRANCH   2   4
ATOM      4  C   UNL     1       1.188   1.894   0.429  0.00  0.00    +0.000 C 
BRANCH   4   5
ATOM      5  C   UNL     1       2.443   1.086   0.420  0.00  0.00    +0.000 A 
ATOM      6  C   UNL     1       3.194   1.015  -0.744  0.00  0.00    +0.000 A 
ATOM      7  C   UNL     1       4.365   0.303  -0.797  0.00  0.00    +0.000 A 
ATOM      8  C   UNL     1       4.856  -0.383   0.318  0.00  0.00    +0.000 A 
ATOM      9  C   UNL     1       4.104  -0.306   1.464  0.00  0.00    +0.000 A 
ATOM     10  C   UNL     1       2.923   0.409   1.522  0.00  0.00    +0.000 A 
BRANCH   8  11
ATOM     11  C   UNL     1       6.107  -1.127   0.268  0.00  0.00    +0.000 A 
ATOM     12  C   UNL     1       6.944  -1.275   1.362  0.00  0.00    +0.000 A 
ATOM     13  C   UNL     1       8.140  -1.994   1.256  0.00  0.00    +0.000 A 
ATOM     14  C   UNL     1       8.507  -2.567   0.066  0.00  0.00    +0.000 A 
ATOM     15  C   UNL     1       7.684  -2.426  -1.022  0.00  0.00    +0.000 A 
ATOM     16  C   UNL     1       6.505  -1.716  -0.914  0.00  0.00    +0.000 A 
ENDBRANCH   8  11
ENDBRANCH   4   5
ENDBRANCH   2   4
ENDBRANCH   1   2
BRANCH   1  17
ATOM     17  C   UNL     1      -1.561   0.783  -1.851  0.00  0.00    +0.000 C 
BRANCH  17  19
ATOM     18  N   UNL     1      -3.930   0.064  -1.282  0.00  0.00    +0.000 NA
ATOM     19  C   UNL     1      -2.712   0.761  -0.930  0.00  0.00    +0.000 C 
ATOM     20  O   UNL     1      -2.675   1.332   0.167  0.00  0.00    +0.000 OA
BRANCH  18  26
ATOM     21  C   UNL     1      -5.961   1.104  -0.520  0.00  0.00    +0.000 A 
ATOM     22  C   UNL     1      -7.022   1.186   0.367  0.00  0.00    +0.000 A 
ATOM     23  C   UNL     1      -7.133   0.297   1.404  0.00  0.00    +0.000 A 
ATOM     24  C   UNL     1      -6.163  -0.693   1.556  0.00  0.00    +0.000 A 
ATOM     25  C   UNL     1      -5.117  -0.786   0.695  0.00  0.00    +0.000 A 
ATOM     26  C   UNL     1      -4.997   0.101  -0.349  0.00  0.00    +0.000 A 
BRANCH  21  28
ATOM     27  C   UNL     1      -4.805   3.120  -1.452  0.00  0.00    +0.000 C 
ATOM     28  C   UNL     1      -5.834   2.049  -1.639  0.00  0.00    +0.000 C 
ENDBRANCH  21  28
BRANCH  25  29
ATOM     29  C   UNL     1      -4.093  -1.833   0.871  0.00  0.00    +0.000 C 
ATOM     30  C   UNL     1      -4.240  -2.954  -0.118  0.00  0.00    +0.000 C 
ENDBRANCH  25  29
ENDBRANCH  18  26
ENDBRANCH  17  19
ENDBRANCH   1  17
TORSDOF 9
