REMARK  Name = 
REMARK  9 active torsions:
REMARK  status: ('A' for Active; 'I' for Inactive)
REMARK    1  A    between atoms: C_2  and  N_3
REMARK    2  A    between atoms: N_3  and  C_4
REMARK    3  A    between atoms: N_3  and  C_6
REMARK    4  A    between atoms: C_6  and  C_7
REMARK    5  A    between atoms: C_7  and  O_8
REMARK    6  A    between atoms: O_8  and  C_9
REMARK    7  A    between atoms: C_12  and  C_13
REMARK    8  A    between atoms: C_13  and  C_14
REMARK    9  A    between atoms: C_15  and  C_16
REMARK                            x       y       z     vdW  Elec       q    Type
REMARK                         _______ _______ _______ _____ _____    ______ ____
ROOT
ATOM      1  C   UNL     1      -2.328   0.776   0.424  0.00  0.00    +0.000 A 
ATOM      2  C   UNL     1      -2.806  -0.325  -0.237  0.00  0.00    +0.000 A 
ATOM      3  C   UNL     1      -3.689  -0.079  -1.296  0.00  0.00    +0.000 A 
ATOM      4  C   UNL     1      -4.063   1.194  -1.660  0.00  0.00    +0.000 A 
ATOM      5  C   UNL     1      -3.576   2.301  -0.986  0.00  0.00    +0.000 A 
ATOM      6  C   UNL     1      -3.954   3.578  -1.355  0.00  0.00    +0.000 A 
ATOM      7  C   UNL     1      -3.464   4.693  -0.676  0.00  0.00    +0.000 A 
ATOM      8  O   UNL     1      -3.844   5.964  -1.046  0.00  0.00    +0.000 OA
ATOM      9  C   UNL     1      -2.598   4.446   0.363  0.00  0.00    +0.000 A 
ATOM     10  C   UNL     1      -2.218   3.172   0.733  0.00  0.00    +0.000 A 
ATOM     11  C   UNL     1      -2.708   2.073   0.055  0.00  0.00    +0.000 A 
ENDROOT
BRANCH   2  12
ATOM     12  C   UNL     1      -2.458  -1.700   0.109  0.00  0.00    +0.000 A 
ATOM     13  C   UNL     1      -2.088  -2.583  -0.882  0.00  0.00    +0.000 A 
ATOM     14  C   UNL     1      -1.761  -3.890  -0.605  0.00  0.00    +0.000 A 
ATOM     15  C   UNL     1      -1.787  -4.388   0.683  0.00  0.00    +0.000 A 
ATOM     16  O   UNL     1      -1.458  -5.715   0.963  0.00  0.00    +0.000 OA
ATOM     17  C   UNL     1      -2.156  -3.511   1.678  0.00  0.00    +0.000 A 
ATOM     18  C   UNL     1      -2.484  -2.199   1.402  0.00  0.00    +0.000 A 
ENDBRANCH   2  12
BRANCH   1  19
ATOM     19  C   UNL     1      -1.368   0.607   1.544  0.00  0.00    +0.000 C 
BRANCH  19  23
ATOM     20  C   UNL     1       2.526   0.008  -0.193  0.00  0.00    +0.000 A 
ATOM     21  C   UNL     1       1.798  -1.061   0.237  0.00  0.00    +0.000 A 
ATOM     22  C   UNL     1       0.537  -0.892   0.801  0.00  0.00    +0.000 A 
ATOM     23  C   UNL     1      -0.010   0.362   0.939  0.00  0.00    +0.000 A 
ATOM     24  C   UNL     1       0.751   1.439   0.494  0.00  0.00    +0.000 A 
ATOM     25  C   UNL     1       1.990   1.264  -0.058  0.00  0.00    +0.000 A 
BRANCH  20  26
ATOM     26  O   UNL     1       3.790  -0.066  -0.766  0.00  0.00    +0.000 OA
BRANCH  26  27
ATOM     27  C   UNL     1       4.502  -1.260  -0.975  0.00  0.00    +0.000 C 
BRANCH  27  28
ATOM     28  C   UNL     1       4.765  -1.954   0.354  0.00  0.00    +0.000 C 
BRANCH  28  29
ATOM     29  N   UNL     1       5.556  -1.085   1.224  0.00  0.00    +0.000 NA
BRANCH  29  31
ATOM     30  C   UNL     1       5.605   0.853   2.634  0.00  0.00    +0.000 C 
ATOM     31  C   UNL     1       4.750   0.077   1.640  0.00  0.00    +0.000 C 
ENDBRANCH  29  31
BRANCH  29  32
ATOM     32  C   UNL     1       6.664  -0.502   0.441  0.00  0.00    +0.000 C 
ATOM     33  C   UNL     1       7.584  -1.597  -0.044  0.00  0.00    +0.000 C 
ENDBRANCH  29  32
ENDBRANCH  28  29
ENDBRANCH  27  28
ENDBRANCH  26  27
ENDBRANCH  20  26
ENDBRANCH  19  23
ENDBRANCH   1  19
TORSDOF 9
