REMARK  Name = 
REMARK  8 active torsions:
REMARK  status: ('A' for Active; 'I' for Inactive)
REMARK    1  A    between atoms: O_2  and  C_3
REMARK    2  A    between atoms: C_8  and  C_9
REMARK    3  A    between atoms: C_9  and  C_10
REMARK    4  A    between atoms: C_10  and  N_11
REMARK    5  A    between atoms: C_12  and  C_14
REMARK    6  A    between atoms: C_14  and  N_21
REMARK    7  A    between atoms: C_15  and  C_16
REMARK    8  A    between atoms: C_22  and  C_24
REMARK                            x       y       z     vdW  Elec       q    Type
REMARK                         _______ _______ _______ _____ _____    ______ ____
ROOT
ATOM      1  C   UNL     1      -1.041   0.697  -0.198  0.00  0.00    +0.000 C 
ATOM      2  C   UNL     1      -1.483   1.894  -0.004  0.00  0.00    +0.000 C 
ENDROOT
BRANCH   2   3
ATOM      3  C   UNL     1      -0.689   3.082  -0.075  0.00  0.00    +0.000 A 
ATOM      4  C   UNL     1      -1.079   4.180  -0.808  0.00  0.00    +0.000 A 
ATOM      5  C   UNL     1      -0.307   5.252  -0.783  0.00  0.00    +0.000 A 
ATOM      6  C   UNL     1       0.834   5.214  -0.034  0.00  0.00    +0.000 A 
ATOM      7  S   UNL     1       0.765   3.638   0.614  0.00  0.00    +0.000 S 
ENDBRANCH   2   3
BRANCH   1   9
ATOM      8  N   UNL     1       1.371   1.341  -0.681  0.00  0.00    +0.000 NA
ATOM      9  C   UNL     1       0.326   0.421  -0.518  0.00  0.00    +0.000 C 
ATOM     10  O   UNL     1       0.663  -0.803  -0.677  0.00  0.00    +0.000 OA
BRANCH   8  11
ATOM     11  C   UNL     1       2.735   0.887  -1.009  0.00  0.00    +0.000 C 
BRANCH  11  12
ATOM     12  C   UNL     1       3.152  -0.009   0.141  0.00  0.00    +0.000 C 
BRANCH  12  18
ATOM     13  C   UNL     1       5.657   0.145   0.203  0.00  0.00    +0.000 A 
ATOM     14  C   UNL     1       6.878  -0.487   0.063  0.00  0.00    +0.000 A 
ATOM     15  C   UNL     1       6.991  -1.802  -0.260  0.00  0.00    +0.000 A 
ATOM     16  C   UNL     1       5.828  -2.516  -0.452  0.00  0.00    +0.000 A 
ATOM     17  C   UNL     1       4.588  -1.936  -0.325  0.00  0.00    +0.000 A 
ATOM     18  C   UNL     1       4.491  -0.582   0.008  0.00  0.00    +0.000 A 
BRANCH  13  20
ATOM     19  C   UNL     1       6.697   2.260   0.734  0.00  0.00    +0.000 C 
ATOM     20  O   UNL     1       5.532   1.488   0.533  0.00  0.00    +0.000 OA
ENDBRANCH  13  20
ENDBRANCH  12  18
ENDBRANCH  11  12
ENDBRANCH   8  11
ENDBRANCH   1   9
BRANCH   1  21
ATOM     21  N   UNL     1      -1.946  -0.451  -0.093  0.00  0.00    +0.000 NA
ATOM     22  C   UNL     1      -3.307  -0.173   0.251  0.00  0.00    +0.000 C 
ATOM     23  O   UNL     1      -3.695   1.009   0.452  0.00  0.00    +0.000 OA
BRANCH  22  24
ATOM     24  C   UNL     1      -4.295  -1.230   0.384  0.00  0.00    +0.000 A 
ATOM     25  C   UNL     1      -5.479  -1.042   1.042  0.00  0.00    +0.000 A 
ATOM     26  C   UNL     1      -6.411  -2.061   1.157  0.00  0.00    +0.000 A 
ATOM     27  C   UNL     1      -6.127  -3.284   0.593  0.00  0.00    +0.000 A 
ATOM     28  C   UNL     1      -7.107  -4.409   0.699  0.00  0.00    +0.000 C 
ATOM     29  C   UNL     1      -4.928  -3.486  -0.078  0.00  0.00    +0.000 A 
ATOM     30  C   UNL     1      -4.583  -4.786  -0.706  0.00  0.00    +0.000 C 
ATOM     31  C   UNL     1      -4.030  -2.450  -0.171  0.00  0.00    +0.000 A 
ENDBRANCH  22  24
ENDBRANCH   1  21
TORSDOF 8
