REMARK  Name = 
REMARK  7 active torsions:
REMARK  status: ('A' for Active; 'I' for Inactive)
REMARK    1  A    between atoms: O_2  and  C_3
REMARK    2  A    between atoms: C_8  and  N_9
REMARK    3  A    between atoms: C_12  and  N_13
REMARK    4  A    between atoms: N_13  and  C_14
REMARK    5  A    between atoms: C_17  and  C_18
REMARK    6  A    between atoms: C_23  and  S_24
REMARK    7  A    between atoms: S_24  and  C_25
REMARK                            x       y       z     vdW  Elec       q    Type
REMARK                         _______ _______ _______ _____ _____    ______ ____
ROOT
ATOM      1  N   UNL     1      -0.756  -1.690  -0.003  0.00  0.00    +0.000 N 
ATOM      2  C   UNL     1      -1.282  -0.721  -0.894  0.00  0.00    +0.000 C 
ATOM      3  O   UNL     1      -2.483  -0.773  -1.332  0.00  0.00    +0.000 OA
ATOM      4  C   UNL     1      -0.290   0.273  -1.202  0.00  0.00    +0.000 C 
ATOM      5  C   UNL     1       0.840  -0.043  -0.533  0.00  0.00    +0.000 C 
ATOM      6  C   UNL     1       0.606  -1.250   0.226  0.00  0.00    +0.000 C 
ATOM      7  O   UNL     1       1.375  -1.907   0.993  0.00  0.00    +0.000 OA
ENDROOT
BRANCH   1  13
ATOM      8  C   UNL     1      -0.738  -4.066   0.364  0.00  0.00    +0.000 A 
ATOM      9  C   UNL     1      -1.308  -5.176   0.923  0.00  0.00    +0.000 A 
ATOM     10  C   UNL     1      -2.458  -5.132   1.688  0.00  0.00    +0.000 A 
ATOM     11  C   UNL     1      -3.022  -3.887   1.869  0.00  0.00    +0.000 A 
ATOM     12  C   UNL     1      -2.513  -2.722   1.341  0.00  0.00    +0.000 A 
ATOM     13  C   UNL     1      -1.345  -2.843   0.576  0.00  0.00    +0.000 A 
BRANCH   8  15
ATOM     14  C   UNL     1       1.032  -5.364  -0.618  0.00  0.00    +0.000 C 
ATOM     15  O   UNL     1       0.417  -4.106  -0.405  0.00  0.00    +0.000 OA
ENDBRANCH   8  15
ENDBRANCH   1  13
BRANCH   4  16
ATOM     16  N   UNL     1      -0.436   1.380  -2.041  0.00  0.00    +0.000 NA
BRANCH  16  17
ATOM     17  C   UNL     1      -1.303   2.469  -1.727  0.00  0.00    +0.000 A 
ATOM     18  C   UNL     1      -2.029   2.448  -0.563  0.00  0.00    +0.000 A 
ATOM     19  C   UNL     1      -2.893   3.467  -0.186  0.00  0.00    +0.000 A 
ATOM     20  C   UNL     1      -3.016   4.548  -1.038  0.00  0.00    +0.000 A 
ATOM     21  C   UNL     1      -2.293   4.580  -2.209  0.00  0.00    +0.000 A 
ATOM     22  C   UNL     1      -1.441   3.550  -2.555  0.00  0.00    +0.000 A 
BRANCH  20  23
ATOM     23  C   UNL     1      -3.912   5.683  -0.724  0.00  0.00    +0.000 C 
ATOM     24  C   UNL     1      -5.351   5.220  -0.691  0.00  0.00    +0.000 C 
ATOM     25  C   UNL     1      -3.530   6.375   0.564  0.00  0.00    +0.000 C 
ENDBRANCH  20  23
ENDBRANCH  16  17
ENDBRANCH   4  16
BRANCH   5  26
ATOM     26  S   UNL     1       2.307   0.919  -0.631  0.00  0.00    +0.000 S 
BRANCH  26  27
ATOM     27  C   UNL     1       3.632   0.307   0.328  0.00  0.00    +0.000 A 
ATOM     28  C   UNL     1       3.670  -0.802   1.131  0.00  0.00    +0.000 A 
ATOM     29  C   UNL     1       4.743  -1.224   1.854  0.00  0.00    +0.000 A 
ATOM     30  C   UNL     1       5.894  -0.447   1.757  0.00  0.00    +0.000 A 
ATOM     31  C   UNL     1       7.129  -0.807   2.500  0.00  0.00    +0.000 C 
ATOM     32  C   UNL     1       5.921   0.677   0.969  0.00  0.00    +0.000 A 
ATOM     33  C   UNL     1       4.832   1.060   0.268  0.00  0.00    +0.000 A 
ENDBRANCH  26  27
ENDBRANCH   5  26
TORSDOF 7
