REMARK  Name = 
REMARK  6 active torsions:
REMARK  status: ('A' for Active; 'I' for Inactive)
REMARK    1  A    between atoms: C_2  and  C_3
REMARK    2  A    between atoms: C_5  and  O_6
REMARK    3  A    between atoms: C_10  and  C_11
REMARK    4  A    between atoms: C_21  and  O_22
REMARK    5  A    between atoms: O_22  and  C_23
REMARK    6  A    between atoms: C_23  and  C_24
REMARK                            x       y       z     vdW  Elec       q    Type
REMARK                         _______ _______ _______ _____ _____    ______ ____
ROOT
ATOM      1  C   UNL     1      -2.879  -1.961   1.052  0.00  0.00    +0.000 C 
ATOM      2  N   UNL     1      -2.676  -2.728  -0.348  0.00  0.00    +0.000 NA
ATOM      3  C   UNL     1      -1.502  -3.514  -0.233  0.00  0.00    +0.000 C 
ATOM      4  C   UNL     1      -0.432  -2.546  -0.795  0.00  0.00    +0.000 C 
ATOM      5  C   UNL     1      -0.472  -1.480   0.246  0.00  0.00    +0.000 A 
ATOM      6  C   UNL     1      -1.506  -1.222   1.034  0.00  0.00    +0.000 A 
ATOM      7  N   UNL     1      -1.195  -0.223   1.831  0.00  0.00    +0.000 NA
ATOM      8  C   UNL     1       0.061   0.216   1.597  0.00  0.00    +0.000 A 
ATOM      9  C   UNL     1       0.830   1.204   2.148  0.00  0.00    +0.000 A 
ATOM     10  C   UNL     1       2.130   1.409   1.669  0.00  0.00    +0.000 A 
ATOM     11  C   UNL     1       2.643   0.632   0.655  0.00  0.00    +0.000 A 
ATOM     12  C   UNL     1       1.829  -0.345   0.137  0.00  0.00    +0.000 A 
ATOM     13  C   UNL     1       0.546  -0.591   0.568  0.00  0.00    +0.000 A 
ENDROOT
BRANCH   1  19
ATOM     14  C   UNL     1      -4.579  -0.891  -0.550  0.00  0.00    +0.000 A 
ATOM     15  C   UNL     1      -5.320   0.197  -1.016  0.00  0.00    +0.000 A 
ATOM     16  C   UNL     1      -5.172   1.394  -0.385  0.00  0.00    +0.000 A 
ATOM     17  C   UNL     1      -4.324   1.557   0.683  0.00  0.00    +0.000 A 
ATOM     18  C   UNL     1      -3.609   0.460   1.114  0.00  0.00    +0.000 A 
ATOM     19  C   UNL     1      -3.759  -0.750   0.476  0.00  0.00    +0.000 A 
BRANCH  14  21
ATOM     20  C   UNL     1      -5.564  -3.175  -0.449  0.00  0.00    +0.000 C 
ATOM     21  C   UNL     1      -4.727  -2.184  -1.214  0.00  0.00    +0.000 C 
ENDBRANCH  14  21
BRANCH  16  22
ATOM     22  O   UNL     1      -5.938   2.445  -0.895  0.00  0.00    +0.000 OA
ATOM     23  C   UNL     1      -5.839   3.716  -0.295  0.00  0.00    +0.000 C 
ENDBRANCH  16  22
ENDBRANCH   1  19
BRANCH  11  24
ATOM     24  O   UNL     1       3.938   0.867   0.211  0.00  0.00    +0.000 OA
BRANCH  24  25
ATOM     25  C   UNL     1       4.538   0.117  -0.826  0.00  0.00    +0.000 C 
BRANCH  25  26
ATOM     26  C   UNL     1       5.908   0.661  -0.994  0.00  0.00    +0.000 A 
ATOM     27  C   UNL     1       6.061   1.732  -1.843  0.00  0.00    +0.000 A 
ATOM     28  C   UNL     1       7.284   2.284  -2.049  0.00  0.00    +0.000 A 
ATOM     29  C   UNL     1       8.423   1.812  -1.431  0.00  0.00    +0.000 A 
ATOM     30  C   UNL     1       8.274   0.733  -0.575  0.00  0.00    +0.000 A 
ATOM     31  C   UNL     1       7.030   0.175  -0.367  0.00  0.00    +0.000 A 
ENDBRANCH  25  26
ENDBRANCH  24  25
ENDBRANCH  11  24
TORSDOF 6
