REMARK  Name = 
REMARK  8 active torsions:
REMARK  status: ('A' for Active; 'I' for Inactive)
REMARK    1  A    between atoms: C_2  and  C_4
REMARK    2  A    between atoms: C_8  and  C_9
REMARK    3  A    between atoms: C_12  and  O_13
REMARK    4  A    between atoms: O_13  and  S_14
REMARK    5  A    between atoms: S_14  and  N_17
REMARK    6  A    between atoms: C_18  and  C_20
REMARK    7  A    between atoms: C_20  and  C_22
REMARK    8  A    between atoms: C_20  and  C_28
REMARK                            x       y       z     vdW  Elec       q    Type
REMARK                         _______ _______ _______ _____ _____    ______ ____
ROOT
ATOM      1  N   UNL     1      -0.125  -0.085   0.322  0.00  0.00    +0.000 NA
ATOM      2  C   UNL     1      -1.407  -0.704   0.323  0.00  0.00    +0.000 C 
ATOM      3  O   UNL     1      -1.483  -1.950   0.097  0.00  0.00    +0.000 OA
ENDROOT
BRANCH   1   4
ATOM      4  S   UNL     1       1.245  -1.058   0.016  0.00  0.00    +0.000 S 
ATOM      5  O   UNL     1       1.896  -1.373   1.355  0.00  0.00    +0.000 OA
ATOM      6  O   UNL     1       0.819  -2.347  -0.632  0.00  0.00    +0.000 OA
BRANCH   4   7
ATOM      7  O   UNL     1       2.364  -0.338  -1.039  0.00  0.00    +0.000 OA
BRANCH   7  13
ATOM      8  C   UNL     1       4.697  -0.640  -0.387  0.00  0.00    +0.000 A 
ATOM      9  C   UNL     1       5.869  -0.159   0.152  0.00  0.00    +0.000 A 
ATOM     10  C   UNL     1       5.951   1.133   0.616  0.00  0.00    +0.000 A 
ATOM     11  C   UNL     1       4.809   1.924   0.516  0.00  0.00    +0.000 A 
ATOM     12  C   UNL     1       3.648   1.417  -0.030  0.00  0.00    +0.000 A 
ATOM     13  C   UNL     1       3.555   0.120  -0.499  0.00  0.00    +0.000 A 
BRANCH   8  15
ATOM     14  C   UNL     1       5.954  -2.754  -0.765  0.00  0.00    +0.000 C 
ATOM     15  C   UNL     1       4.612  -2.060  -0.889  0.00  0.00    +0.000 C 
ATOM     16  C   UNL     1       4.112  -2.122  -2.305  0.00  0.00    +0.000 C 
ENDBRANCH   8  15
BRANCH  12  17
ATOM     17  C   UNL     1       2.427   2.258  -0.140  0.00  0.00    +0.000 C 
ATOM     18  C   UNL     1       2.681   3.633   0.459  0.00  0.00    +0.000 C 
ATOM     19  C   UNL     1       1.915   2.332  -1.559  0.00  0.00    +0.000 C 
ENDBRANCH  12  17
ENDBRANCH   7  13
ENDBRANCH   4   7
ENDBRANCH   1   4
BRANCH   2  20
ATOM     20  C   UNL     1      -2.654   0.033   0.574  0.00  0.00    +0.000 C 
ATOM     21  C   UNL     1      -2.618   0.618   1.997  0.00  0.00    +0.000 C 
BRANCH  20  22
ATOM     22  C   UNL     1      -2.927   1.108  -0.407  0.00  0.00    +0.000 A 
ATOM     23  C   UNL     1      -3.100   0.922  -1.749  0.00  0.00    +0.000 A 
ATOM     24  C   UNL     1      -3.349   1.947  -2.635  0.00  0.00    +0.000 A 
ATOM     25  C   UNL     1      -3.434   3.254  -2.180  0.00  0.00    +0.000 A 
ATOM     26  C   UNL     1      -3.261   3.462  -0.829  0.00  0.00    +0.000 A 
ATOM     27  C   UNL     1      -3.011   2.419   0.043  0.00  0.00    +0.000 A 
ENDBRANCH  20  22
BRANCH  20  28
ATOM     28  C   UNL     1      -3.806  -0.917   0.536  0.00  0.00    +0.000 A 
ATOM     29  C   UNL     1      -4.965  -0.702   1.228  0.00  0.00    +0.000 A 
ATOM     30  C   UNL     1      -6.016  -1.593   1.177  0.00  0.00    +0.000 A 
ATOM     31  C   UNL     1      -5.930  -2.760   0.408  0.00  0.00    +0.000 A 
ATOM     32  C   UNL     1      -4.760  -2.939  -0.266  0.00  0.00    +0.000 A 
ATOM     33  C   UNL     1      -3.710  -2.080  -0.235  0.00  0.00    +0.000 A 
ENDBRANCH  20  28
ENDBRANCH   2  20
TORSDOF 8
