REMARK  Name = 
REMARK  6 active torsions:
REMARK  status: ('A' for Active; 'I' for Inactive)
REMARK    1  A    between atoms: C_2  and  C_18
REMARK    2  A    between atoms: N_3  and  N_4
REMARK    3  A    between atoms: C_5  and  C_6
REMARK    4  A    between atoms: C_9  and  N_10
REMARK    5  A    between atoms: C_18  and  C_20
REMARK    6  A    between atoms: C_18  and  C_26
REMARK                            x       y       z     vdW  Elec       q    Type
REMARK                         _______ _______ _______ _____ _____    ______ ____
ROOT
ATOM      1  O   UNL     1      -1.354  -0.299  -1.435  0.00  0.00    +0.000 OA
ATOM      2  C   UNL     1      -2.028   0.054  -0.438  0.00  0.00    +0.000 C 
ATOM      3  N   UNL     1      -1.298   0.219   0.793  0.00  0.00    +0.000 NA
ENDROOT
BRANCH   3   4
ATOM      4  N   UNL     1       0.017   0.045   0.987  0.00  0.00    +0.000 NA
ATOM      5  C   UNL     1       0.785  -0.665   1.648  0.00  0.00    +0.000 C 
BRANCH   5   6
ATOM      6  C   UNL     1       2.249  -0.604   1.633  0.00  0.00    +0.000 A 
ATOM      7  C   UNL     1       2.915   0.290   0.814  0.00  0.00    +0.000 A 
ATOM      8  C   UNL     1       4.303   0.335   0.829  0.00  0.00    +0.000 A 
ATOM      9  C   UNL     1       5.084  -0.478   1.632  0.00  0.00    +0.000 A 
ATOM     10  C   UNL     1       4.413  -1.362   2.442  0.00  0.00    +0.000 A 
ATOM     11  F   UNL     1       5.126  -2.190   3.253  0.00  0.00    +0.000 F 
ATOM     12  C   UNL     1       3.017  -1.412   2.431  0.00  0.00    +0.000 A 
BRANCH   9  13
ATOM     13  N   UNL     1       6.498  -0.377   1.630  0.00  0.00    +0.000 N 
ATOM     14  C   UNL     1       7.349   0.443   0.795  0.00  0.00    +0.000 C 
ATOM     15  C   UNL     1       8.363   0.979   1.762  0.00  0.00    +0.000 C 
ATOM     16  C   UNL     1       8.586  -0.190   2.687  0.00  0.00    +0.000 C 
ATOM     17  C   UNL     1       7.382  -1.094   2.516  0.00  0.00    +0.000 C 
ENDBRANCH   9  13
ENDBRANCH   5   6
ENDBRANCH   3   4
BRANCH   2  18
ATOM     18  C   UNL     1      -3.459   0.309  -0.430  0.00  0.00    +0.000 C 
ATOM     19  O   UNL     1      -3.883   0.642   0.883  0.00  0.00    +0.000 OA
BRANCH  18  20
ATOM     20  C   UNL     1      -3.680   1.529  -1.290  0.00  0.00    +0.000 A 
ATOM     21  C   UNL     1      -3.800   1.476  -2.638  0.00  0.00    +0.000 A 
ATOM     22  C   UNL     1      -3.996   2.624  -3.407  0.00  0.00    +0.000 A 
ATOM     23  C   UNL     1      -4.066   3.822  -2.784  0.00  0.00    +0.000 A 
ATOM     24  C   UNL     1      -3.946   3.905  -1.418  0.00  0.00    +0.000 A 
ATOM     25  C   UNL     1      -3.755   2.759  -0.678  0.00  0.00    +0.000 A 
ENDBRANCH  18  20
BRANCH  18  26
ATOM     26  C   UNL     1      -4.330  -0.759  -0.914  0.00  0.00    +0.000 A 
ATOM     27  C   UNL     1      -4.012  -1.408  -2.096  0.00  0.00    +0.000 A 
ATOM     28  C   UNL     1      -4.798  -2.418  -2.608  0.00  0.00    +0.000 A 
ATOM     29  C   UNL     1      -5.938  -2.809  -1.940  0.00  0.00    +0.000 A 
ATOM     30  C   UNL     1      -6.273  -2.195  -0.786  0.00  0.00    +0.000 A 
ATOM     31  C   UNL     1      -5.472  -1.169  -0.269  0.00  0.00    +0.000 A 
ENDBRANCH  18  26
ENDBRANCH   2  18
TORSDOF 6
