REMARK  Name = 
REMARK  9 active torsions:
REMARK  status: ('A' for Active; 'I' for Inactive)
REMARK    1  A    between atoms: C_2  and  O_3
REMARK    2  A    between atoms: O_3  and  C_4
REMARK    3  A    between atoms: C_4  and  C_6
REMARK    4  A    between atoms: C_7  and  C_8
REMARK    5  A    between atoms: C_10  and  C_11
REMARK    6  A    between atoms: C_16  and  O_17
REMARK    7  A    between atoms: O_17  and  C_18
REMARK    8  A    between atoms: C_18  and  C_19
REMARK    9  A    between atoms: C_25  and  C_26
REMARK                            x       y       z     vdW  Elec       q    Type
REMARK                         _______ _______ _______ _____ _____    ______ ____
ROOT
ATOM      1  C   UNL     1      -0.013   0.780   0.445  0.00  0.00    +0.000 A 
ATOM      2  C   UNL     1      -0.229   1.904   1.213  0.00  0.00    +0.000 A 
ATOM      3  C   UNL     1       0.572   3.038   1.104  0.00  0.00    +0.000 A 
ATOM      4  C   UNL     1       1.601   3.038   0.213  0.00  0.00    +0.000 A 
ATOM      5  C   UNL     1       1.844   1.946  -0.561  0.00  0.00    +0.000 A 
ATOM      6  C   UNL     1       1.038   0.809  -0.450  0.00  0.00    +0.000 A 
ENDROOT
BRANCH   1   8
ATOM      7  C   UNL     1      -2.007  -0.653  -0.159  0.00  0.00    +0.000 A 
ATOM      8  C   UNL     1      -0.860  -0.411   0.565  0.00  0.00    +0.000 A 
ATOM      9  C   UNL     1      -0.687  -1.495   1.401  0.00  0.00    +0.000 A 
ATOM     10  N   UNL     1      -1.687  -2.380   1.205  0.00  0.00    +0.000 N 
ATOM     11  C   UNL     1      -1.974  -3.586   1.766  0.00  0.00    +0.000 A 
ATOM     12  C   UNL     1      -3.079  -4.306   1.383  0.00  0.00    +0.000 A 
ATOM     13  C   UNL     1      -3.914  -3.801   0.414  0.00  0.00    +0.000 A 
ATOM     14  C   UNL     1      -3.611  -2.579  -0.144  0.00  0.00    +0.000 A 
ATOM     15  C   UNL     1      -2.479  -1.877   0.271  0.00  0.00    +0.000 A 
BRANCH   7  16
ATOM     16  C   UNL     1      -2.617   0.209  -1.187  0.00  0.00    +0.000 C 
ATOM     17  O   UNL     1      -2.038   1.293  -1.444  0.00  0.00    +0.000 OA
BRANCH  16  18
ATOM     18  O   UNL     1      -3.762  -0.134  -1.844  0.00  0.00    +0.000 OA
BRANCH  18  20
ATOM     19  C   UNL     1      -5.618  -0.071  -3.312  0.00  0.00    +0.000 C 
ATOM     20  C   UNL     1      -4.372   0.689  -2.846  0.00  0.00    +0.000 C 
ENDBRANCH  18  20
ENDBRANCH  16  18
ENDBRANCH   7  16
BRANCH   9  21
ATOM     21  C   UNL     1       0.392  -1.677   2.347  0.00  0.00    +0.000 C 
ATOM     22  O   UNL     1       0.446  -2.701   3.052  0.00  0.00    +0.000 OA
ENDBRANCH   9  21
ENDBRANCH   1   8
BRANCH   3  23
ATOM     23  C   UNL     1       0.258   4.196   1.974  0.00  0.00    +0.000 C 
ATOM     24  C   UNL     1      -0.387   5.328   1.222  0.00  0.00    +0.000 C 
ATOM     25  C   UNL     1      -0.494   3.806   3.215  0.00  0.00    +0.000 C 
ENDBRANCH   3  23
BRANCH   6  26
ATOM     26  O   UNL     1       1.315  -0.288  -1.256  0.00  0.00    +0.000 OA
BRANCH  26  27
ATOM     27  C   UNL     1       2.339  -0.382  -2.191  0.00  0.00    +0.000 C 
BRANCH  27  28
ATOM     28  C   UNL     1       3.699  -0.224  -1.619  0.00  0.00    +0.000 A 
ATOM     29  C   UNL     1       4.388  -1.334  -1.115  0.00  0.00    +0.000 A 
ATOM     30  C   UNL     1       5.646  -1.218  -0.582  0.00  0.00    +0.000 A 
ATOM     31  C   UNL     1       6.288  -0.001  -0.522  0.00  0.00    +0.000 A 
ATOM     32  C   UNL     1       5.628   1.107  -1.014  0.00  0.00    +0.000 A 
ATOM     33  C   UNL     1       4.373   0.975  -1.542  0.00  0.00    +0.000 A 
ENDBRANCH  27  28
ENDBRANCH  26  27
ENDBRANCH   6  26
TORSDOF 9
