REMARK  Name = 
REMARK  7 active torsions:
REMARK  status: ('A' for Active; 'I' for Inactive)
REMARK    1  A    between atoms: C_2  and  C_3
REMARK    2  A    between atoms: C_3  and  C_5
REMARK    3  A    between atoms: C_5  and  O_6
REMARK    4  A    between atoms: O_6  and  C_7
REMARK    5  A    between atoms: C_7  and  C_9
REMARK    6  A    between atoms: N_12  and  C_13
REMARK    7  A    between atoms: C_13  and  C_15
REMARK                            x       y       z     vdW  Elec       q    Type
REMARK                         _______ _______ _______ _____ _____    ______ ____
ROOT
ATOM      1  C   UNL     1       1.102   0.460  -0.590  0.00  0.00    +0.000 A 
ATOM      2  C   UNL     1       0.366   1.619  -0.822  0.00  0.00    +0.000 A 
ATOM      3  N   UNL     1       0.789   2.626  -1.717  0.00  0.00    +0.000 NA
ATOM      4  N   UNL     1      -0.747   1.598  -0.083  0.00  0.00    +0.000 N 
ATOM      5  C   UNL     1      -0.744   0.489   0.597  0.00  0.00    +0.000 A 
ATOM      6  N   UNL     1      -1.676   0.058   1.470  0.00  0.00    +0.000 NA
ATOM      7  C   UNL     1      -1.532  -1.125   2.103  0.00  0.00    +0.000 A 
ATOM      8  C   UNL     1      -2.478  -1.589   3.006  0.00  0.00    +0.000 A 
ATOM      9  C   UNL     1      -2.315  -2.800   3.644  0.00  0.00    +0.000 A 
ATOM     10  C   UNL     1      -1.214  -3.554   3.388  0.00  0.00    +0.000 A 
ATOM     11  C   UNL     1      -0.273  -3.084   2.485  0.00  0.00    +0.000 A 
ATOM     12  C   UNL     1      -0.404  -1.877   1.829  0.00  0.00    +0.000 A 
ATOM     13  N   UNL     1       0.524  -1.436   0.953  0.00  0.00    +0.000 NA
ATOM     14  C   UNL     1       0.403  -0.271   0.316  0.00  0.00    +0.000 A 
ENDROOT
BRANCH   1  15
ATOM     15  C   UNL     1       2.369   0.057  -1.169  0.00  0.00    +0.000 C 
ATOM     16  O   UNL     1       2.884   0.874  -2.007  0.00  0.00    +0.000 OA
BRANCH  15  17
ATOM     17  O   UNL     1       3.042  -1.079  -0.910  0.00  0.00    +0.000 OA
BRANCH  17  18
ATOM     18  C   UNL     1       4.275  -1.339  -1.555  0.00  0.00    +0.000 C 
BRANCH  18  19
ATOM     19  C   UNL     1       5.258  -0.095  -1.112  0.00  0.00    +0.000 C 
ATOM     20  C   UNL     1       6.625  -0.986  -1.314  0.00  0.00    +0.000 C 
BRANCH  19  22
ATOM     21  C   UNL     1       5.100  -1.771   0.797  0.00  0.00    +0.000 C 
ATOM     22  C   UNL     1       5.205  -0.362   0.503  0.00  0.00    +0.000 C 
ENDBRANCH  19  22
ENDBRANCH  18  19
ENDBRANCH  17  18
ENDBRANCH  15  17
ENDBRANCH   1  15
BRANCH   4  23
ATOM     23  C   UNL     1      -1.774   2.750  -0.121  0.00  0.00    +0.000 C 
ATOM     24  C   UNL     1      -2.449   2.562   1.389  0.00  0.00    +0.000 C 
BRANCH  23  25
ATOM     25  C   UNL     1      -2.878   1.968  -0.967  0.00  0.00    +0.000 A 
ATOM     26  C   UNL     1      -3.845   1.232  -0.486  0.00  0.00    +0.000 A 
ATOM     27  C   UNL     1      -4.734   0.611  -1.371  0.00  0.00    +0.000 A 
ATOM     28  C   UNL     1      -4.588   0.774  -2.707  0.00  0.00    +0.000 A 
ATOM     29  C   UNL     1      -3.584   1.539  -3.233  0.00  0.00    +0.000 A 
ATOM     30  C   UNL     1      -2.707   2.150  -2.316  0.00  0.00    +0.000 A 
ENDBRANCH  23  25
ENDBRANCH   4  23
TORSDOF 7
