REMARK  Name = 
REMARK  7 active torsions:
REMARK  status: ('A' for Active; 'I' for Inactive)
REMARK    1  A    between atoms: N_11  and  C_12
REMARK    2  A    between atoms: C_12  and  C_13
REMARK    3  A    between atoms: C_16  and  O_17
REMARK    4  A    between atoms: O_17  and  C_18
REMARK    5  A    between atoms: C_18  and  C_19
REMARK    6  A    between atoms: C_19  and  N_20
REMARK    7  A    between atoms: C_29  and  C_30
REMARK                            x       y       z     vdW  Elec       q    Type
REMARK                         _______ _______ _______ _____ _____    ______ ____
ROOT
ATOM      1  C   UNL     1      -1.817   0.420  -2.556  0.00  0.00    +0.000 C 
ATOM      2  C   UNL     1      -2.887   0.631  -1.514  0.00  0.00    +0.000 C 
ATOM      3  C   UNL     1      -3.975   1.513  -1.977  0.00  0.00    +0.000 C 
ATOM      4  C   UNL     1      -2.376   1.003  -0.208  0.00  0.00    +0.000 A 
ATOM      5  C   UNL     1      -2.190   2.254   0.329  0.00  0.00    +0.000 A 
ATOM      6  C   UNL     1      -1.678   2.461   1.597  0.00  0.00    +0.000 A 
ATOM      7  O   UNL     1      -1.492   3.732   2.135  0.00  0.00    +0.000 OA
ATOM      8  C   UNL     1      -1.354   1.334   2.320  0.00  0.00    +0.000 A 
ATOM      9  C   UNL     1      -1.542   0.059   1.778  0.00  0.00    +0.000 A 
ATOM     10  C   UNL     1      -2.051  -0.119   0.519  0.00  0.00    +0.000 A 
ATOM     11  N   UNL     1      -2.323  -1.245  -0.227  0.00  0.00    +0.000 N 
ATOM     12  C   UNL     1      -3.517  -0.850  -1.221  0.00  0.00    +0.000 C 
ENDROOT
BRANCH  12  13
ATOM     13  C   UNL     1      -4.522  -0.456  -0.106  0.00  0.00    +0.000 A 
ATOM     14  C   UNL     1      -5.279   0.611  -0.375  0.00  0.00    +0.000 A 
ATOM     15  C   UNL     1      -6.237   1.100   0.510  0.00  0.00    +0.000 A 
ATOM     16  C   UNL     1      -6.403   0.456   1.702  0.00  0.00    +0.000 A 
ATOM     17  C   UNL     1      -5.603  -0.664   1.976  0.00  0.00    +0.000 A 
ATOM     18  C   UNL     1      -4.667  -1.108   1.061  0.00  0.00    +0.000 A 
ENDBRANCH  12  13
BRANCH  11  19
ATOM     19  C   UNL     1      -1.772  -2.582  -0.252  0.00  0.00    +0.000 C 
BRANCH  19  20
ATOM     20  C   UNL     1      -0.332  -2.546  -0.542  0.00  0.00    +0.000 A 
ATOM     21  C   UNL     1       0.357  -1.376  -0.380  0.00  0.00    +0.000 A 
ATOM     22  C   UNL     1       1.727  -1.276  -0.646  0.00  0.00    +0.000 A 
ATOM     23  C   UNL     1       2.374  -2.411  -1.083  0.00  0.00    +0.000 A 
ATOM     24  C   UNL     1       1.714  -3.604  -1.256  0.00  0.00    +0.000 A 
ATOM     25  C   UNL     1       0.336  -3.662  -0.978  0.00  0.00    +0.000 A 
BRANCH  23  26
ATOM     26  O   UNL     1       3.729  -2.381  -1.364  0.00  0.00    +0.000 OA
BRANCH  26  27
ATOM     27  C   UNL     1       4.467  -1.183  -1.207  0.00  0.00    +0.000 C 
BRANCH  27  28
ATOM     28  C   UNL     1       4.389  -0.736   0.238  0.00  0.00    +0.000 C 
BRANCH  28  29
ATOM     29  N   UNL     1       5.177   0.504   0.305  0.00  0.00    +0.000 NA
ATOM     30  C   UNL     1       6.555   0.057   0.073  0.00  0.00    +0.000 C 
ATOM     31  C   UNL     1       7.536   1.013   0.686  0.00  0.00    +0.000 C 
ATOM     32  C   UNL     1       6.853   2.130   1.444  0.00  0.00    +0.000 C 
ATOM     33  C   UNL     1       6.106   3.072   0.533  0.00  0.00    +0.000 C 
ATOM     34  C   UNL     1       5.870   2.484  -0.838  0.00  0.00    +0.000 C 
ATOM     35  C   UNL     1       4.827   1.362  -0.806  0.00  0.00    +0.000 C 
ENDBRANCH  28  29
ENDBRANCH  27  28
ENDBRANCH  26  27
ENDBRANCH  23  26
ENDBRANCH  19  20
ENDBRANCH  11  19
TORSDOF 7
