REMARK  Name = 
REMARK  7 active torsions:
REMARK  status: ('A' for Active; 'I' for Inactive)
REMARK    1  A    between atoms: C_2  and  C_3
REMARK    2  A    between atoms: C_6  and  O_7
REMARK    3  A    between atoms: O_7  and  C_8
REMARK    4  A    between atoms: C_8  and  C_9
REMARK    5  A    between atoms: C_12  and  C_13
REMARK    6  A    between atoms: N_15  and  C_16
REMARK    7  A    between atoms: C_28  and  O_29
REMARK                            x       y       z     vdW  Elec       q    Type
REMARK                         _______ _______ _______ _____ _____    ______ ____
ROOT
ATOM      1  C   UNL     1      -0.265   0.225  -0.848  0.00  0.00    +0.000 C 
ATOM      2  O   UNL     1      -1.027  -0.534  -1.499  0.00  0.00    +0.000 OA
ATOM      3  N   UNL     1      -0.781   0.874   0.304  0.00  0.00    +0.000 NA
ENDROOT
BRANCH   3   4
ATOM      4  C   UNL     1      -2.117   0.678   0.716  0.00  0.00    +0.000 A 
ATOM      5  C   UNL     1      -2.946  -0.162  -0.011  0.00  0.00    +0.000 A 
ATOM      6  C   UNL     1      -4.260  -0.396   0.339  0.00  0.00    +0.000 A 
ATOM      7  O   UNL     1      -5.239  -1.133  -0.172  0.00  0.00    +0.000 OA
ATOM      8  C   UNL     1      -6.319  -1.020   0.533  0.00  0.00    +0.000 A 
ATOM      9  C   UNL     1      -7.571  -1.585   0.398  0.00  0.00    +0.000 A 
ATOM     10  C   UNL     1      -8.556  -1.273   1.327  0.00  0.00    +0.000 A 
ATOM     11  C   UNL     1      -8.298  -0.406   2.382  0.00  0.00    +0.000 A 
ATOM     12  C   UNL     1      -7.037   0.142   2.490  0.00  0.00    +0.000 A 
ATOM     13  C   UNL     1      -6.053  -0.153   1.584  0.00  0.00    +0.000 A 
ATOM     14  C   UNL     1      -4.738   0.248   1.463  0.00  0.00    +0.000 A 
ATOM     15  C   UNL     1      -3.905   1.092   2.194  0.00  0.00    +0.000 A 
ATOM     16  C   UNL     1      -2.599   1.315   1.833  0.00  0.00    +0.000 A 
BRANCH  16  17
ATOM     17  O   UNL     1      -1.734   2.146   2.530  0.00  0.00    +0.000 OA
ATOM     18  C   UNL     1      -2.137   2.845   3.693  0.00  0.00    +0.000 C 
ENDBRANCH  16  17
ENDBRANCH   3   4
BRANCH   1  22
ATOM     19  C   UNL     1       2.907   0.220  -2.471  0.00  0.00    +0.000 A 
ATOM     20  C   UNL     1       3.219   1.079  -1.454  0.00  0.00    +0.000 A 
ATOM     21  C   UNL     1       2.072   1.204  -0.699  0.00  0.00    +0.000 A 
ATOM     22  C   UNL     1       1.112   0.414  -1.290  0.00  0.00    +0.000 A 
ATOM     23  O   UNL     1       1.671  -0.137  -2.329  0.00  0.00    +0.000 OA
BRANCH  19  24
ATOM     24  C   UNL     1       3.776  -0.260  -3.571  0.00  0.00    +0.000 C 
BRANCH  24  25
ATOM     25  O   UNL     1       5.095   0.217  -3.463  0.00  0.00    +0.000 OA
BRANCH  25  29
ATOM     26  C   UNL     1       7.362  -0.721  -0.099  0.00  0.00    +0.000 A 
ATOM     27  C   UNL     1       6.064  -1.188  -0.215  0.00  0.00    +0.000 A 
ATOM     28  C   UNL     1       5.355  -0.849  -1.348  0.00  0.00    +0.000 A 
ATOM     29  C   UNL     1       5.871  -0.075  -2.363  0.00  0.00    +0.000 A 
ATOM     30  C   UNL     1       7.166   0.370  -2.212  0.00  0.00    +0.000 A 
ATOM     31  C   UNL     1       7.908   0.054  -1.095  0.00  0.00    +0.000 A 
BRANCH  26  33
ATOM     32  C   UNL     1       7.895  -0.050   2.224  0.00  0.00    +0.000 C 
ATOM     33  C   UNL     1       8.110  -1.097   1.130  0.00  0.00    +0.000 C 
ENDBRANCH  26  33
ENDBRANCH  25  29
ENDBRANCH  24  25
ENDBRANCH  19  24
ENDBRANCH   1  22
TORSDOF 7
