REMARK  Name = 
REMARK  8 active torsions:
REMARK  status: ('A' for Active; 'I' for Inactive)
REMARK    1  A    between atoms: C_7  and  S_8
REMARK    2  A    between atoms: S_8  and  C_9
REMARK    3  A    between atoms: C_9  and  C_10
REMARK    4  A    between atoms: C_10  and  O_12
REMARK    5  A    between atoms: O_12  and  C_13
REMARK    6  A    between atoms: C_13  and  C_15
REMARK    7  A    between atoms: N_17  and  C_18
REMARK    8  A    between atoms: C_23  and  C_24
REMARK                            x       y       z     vdW  Elec       q    Type
REMARK                         _______ _______ _______ _____ _____    ______ ____
ROOT
ATOM      1  C   UNL     1      -0.805  -0.976   0.603  0.00  0.00    +0.000 C 
ATOM      2  O   UNL     1      -0.504  -1.098   1.770  0.00  0.00    +0.000 OA
ATOM      3  N   UNL     1      -1.967  -0.310   0.259  0.00  0.00    +0.000 NA
ENDROOT
BRANCH   3   4
ATOM      4  C   UNL     1      -2.918   0.288   1.119  0.00  0.00    +0.000 A 
ATOM      5  C   UNL     1      -2.825   0.297   2.493  0.00  0.00    +0.000 A 
ATOM      6  C   UNL     1      -3.746   0.878   3.340  0.00  0.00    +0.000 A 
ATOM      7  C   UNL     1      -4.850   1.503   2.799  0.00  0.00    +0.000 A 
ATOM      8  C   UNL     1      -4.987   1.521   1.429  0.00  0.00    +0.000 A 
ATOM      9  C   UNL     1      -4.034   0.922   0.620  0.00  0.00    +0.000 A 
BRANCH   9  10
ATOM     10  C   UNL     1      -4.202   0.957  -0.832  0.00  0.00    +0.000 A 
ATOM     11  C   UNL     1      -3.167   1.270  -1.675  0.00  0.00    +0.000 A 
ATOM     12  C   UNL     1      -3.326   1.302  -3.050  0.00  0.00    +0.000 A 
ATOM     13  C   UNL     1      -4.584   1.006  -3.584  0.00  0.00    +0.000 A 
ATOM     14  C   UNL     1      -5.609   0.695  -2.729  0.00  0.00    +0.000 A 
ATOM     15  C   UNL     1      -5.426   0.670  -1.380  0.00  0.00    +0.000 A 
ENDBRANCH   9  10
ENDBRANCH   3   4
BRANCH   1  16
ATOM     16  C   UNL     1       0.108  -1.567  -0.572  0.00  0.00    +0.000 C 
ATOM     17  C   UNL     1      -0.738  -3.004  -0.661  0.00  0.00    +0.000 C 
BRANCH  16  18
ATOM     18  O   UNL     1       1.206  -2.162   0.344  0.00  0.00    +0.000 OA
BRANCH  18  19
ATOM     19  C   UNL     1       2.134  -1.169   0.635  0.00  0.00    +0.000 C 
ATOM     20  O   UNL     1       2.079   0.007   0.218  0.00  0.00    +0.000 OA
BRANCH  19  21
ATOM     21  C   UNL     1       3.265  -1.569   1.511  0.00  0.00    +0.000 C 
BRANCH  21  22
ATOM     22  S   UNL     1       4.396  -0.187   1.754  0.00  0.00    +0.000 S 
BRANCH  22  29
ATOM     23  C   UNL     1       4.405  -1.954  -0.818  0.00  0.00    +0.000 C 
ATOM     24  C   UNL     1       5.218  -0.682  -0.806  0.00  0.00    +0.000 A 
ATOM     25  C   UNL     1       5.939  -0.409  -1.956  0.00  0.00    +0.000 A 
ATOM     26  C   UNL     1       6.726   0.712  -2.025  0.00  0.00    +0.000 A 
ATOM     27  C   UNL     1       6.827   1.602  -0.956  0.00  0.00    +0.000 A 
ATOM     28  C   UNL     1       6.102   1.295   0.151  0.00  0.00    +0.000 A 
ATOM     29  C   UNL     1       5.284   0.163   0.267  0.00  0.00    +0.000 A 
ENDBRANCH  22  29
ENDBRANCH  21  22
ENDBRANCH  19  21
ENDBRANCH  18  19
ENDBRANCH  16  18
ENDBRANCH   1  16
TORSDOF 8
