REMARK  Name = 
REMARK  8 active torsions:
REMARK  status: ('A' for Active; 'I' for Inactive)
REMARK    1  A    between atoms: C_2  and  C_3
REMARK    2  A    between atoms: C_3  and  C_4
REMARK    3  A    between atoms: C_4  and  C_5
REMARK    4  A    between atoms: C_5  and  O_6
REMARK    5  A    between atoms: O_6  and  C_7
REMARK    6  A    between atoms: C_7  and  C_9
REMARK    7  A    between atoms: N_12  and  C_13
REMARK    8  A    between atoms: C_13  and  C_15
REMARK                            x       y       z     vdW  Elec       q    Type
REMARK                         _______ _______ _______ _____ _____    ______ ____
ROOT
ATOM      1  C   UNL     1       1.009  -0.220   0.428  0.00  0.00    +0.000 A 
ATOM      2  C   UNL     1       0.361  -1.209   1.128  0.00  0.00    +0.000 A 
ATOM      3  N   UNL     1       0.894  -2.424   1.634  0.00  0.00    +0.000 NA
ATOM      4  N   UNL     1      -0.905  -0.828   1.262  0.00  0.00    +0.000 N 
ATOM      5  C   UNL     1      -1.084   0.317   0.698  0.00  0.00    +0.000 A 
ATOM      6  N   UNL     1      -2.171   1.111   0.565  0.00  0.00    +0.000 NA
ATOM      7  C   UNL     1      -2.104   2.293  -0.084  0.00  0.00    +0.000 A 
ATOM      8  C   UNL     1      -3.209   3.114  -0.228  0.00  0.00    +0.000 A 
ATOM      9  C   UNL     1      -3.191   4.329  -0.881  0.00  0.00    +0.000 A 
ATOM     10  C   UNL     1      -2.000   4.763  -1.429  0.00  0.00    +0.000 A 
ATOM     11  C   UNL     1      -0.876   3.966  -1.304  0.00  0.00    +0.000 A 
ATOM     12  C   UNL     1      -0.925   2.752  -0.643  0.00  0.00    +0.000 A 
ATOM     13  N   UNL     1       0.156   1.963  -0.510  0.00  0.00    +0.000 NA
ATOM     14  C   UNL     1       0.085   0.766   0.148  0.00  0.00    +0.000 A 
ENDROOT
BRANCH   1  15
ATOM     15  C   UNL     1       2.417  -0.202   0.044  0.00  0.00    +0.000 C 
ATOM     16  O   UNL     1       2.934   0.740  -0.597  0.00  0.00    +0.000 OA
BRANCH  15  17
ATOM     17  O   UNL     1       3.240  -1.265   0.391  0.00  0.00    +0.000 OA
BRANCH  17  18
ATOM     18  C   UNL     1       4.603  -1.249   0.021  0.00  0.00    +0.000 C 
BRANCH  18  19
ATOM     19  C   UNL     1       5.315  -0.040   0.628  0.00  0.00    +0.000 C 
BRANCH  19  20
ATOM     20  C   UNL     1       6.754  -0.121   0.172  0.00  0.00    +0.000 C 
BRANCH  20  22
ATOM     21  C   UNL     1       7.245  -1.376   2.201  0.00  0.00    +0.000 C 
ATOM     22  C   UNL     1       7.350  -1.427   0.675  0.00  0.00    +0.000 C 
ENDBRANCH  20  22
ENDBRANCH  19  20
ENDBRANCH  18  19
ENDBRANCH  17  18
ENDBRANCH  15  17
ENDBRANCH   1  15
BRANCH   4  23
ATOM     23  C   UNL     1      -1.955  -1.702   2.009  0.00  0.00    +0.000 C 
ATOM     24  C   UNL     1      -2.830  -0.492   2.670  0.00  0.00    +0.000 C 
BRANCH  23  25
ATOM     25  C   UNL     1      -2.845  -1.937   0.709  0.00  0.00    +0.000 A 
ATOM     26  C   UNL     1      -2.509  -3.072  -0.001  0.00  0.00    +0.000 A 
ATOM     27  C   UNL     1      -3.201  -3.388  -1.146  0.00  0.00    +0.000 A 
ATOM     28  C   UNL     1      -4.224  -2.568  -1.571  0.00  0.00    +0.000 A 
ATOM     29  C   UNL     1      -4.519  -1.447  -0.824  0.00  0.00    +0.000 A 
ATOM     30  C   UNL     1      -3.813  -1.148   0.320  0.00  0.00    +0.000 A 
ENDBRANCH  23  25
ENDBRANCH   4  23
TORSDOF 8
