REMARK  Name = 
REMARK  6 active torsions:
REMARK  status: ('A' for Active; 'I' for Inactive)
REMARK    1  A    between atoms: O_2  and  C_3
REMARK    2  A    between atoms: C_9  and  C_10
REMARK    3  A    between atoms: N_12  and  C_13
REMARK    4  A    between atoms: C_13  and  C_14
REMARK    5  A    between atoms: N_26  and  C_27
REMARK    6  A    between atoms: C_27  and  C_28
REMARK                            x       y       z     vdW  Elec       q    Type
REMARK                         _______ _______ _______ _____ _____    ______ ____
ROOT
ATOM      1  C   UNL     1      -0.532   1.348  -3.593  0.00  0.00    +0.000 A 
ATOM      2  C   UNL     1      -1.787   0.822  -3.805  0.00  0.00    +0.000 A 
ATOM      3  C   UNL     1      -2.417  -0.028  -2.930  0.00  0.00    +0.000 A 
ATOM      4  C   UNL     1      -1.753  -0.389  -1.745  0.00  0.00    +0.000 A 
ATOM      5  C   UNL     1      -0.505   0.133  -1.533  0.00  0.00    +0.000 A 
ATOM      6  C   UNL     1       0.121   0.996  -2.434  0.00  0.00    +0.000 A 
ATOM      7  C   UNL     1      -0.040  -0.350  -0.318  0.00  0.00    +0.000 A 
ATOM      8  C   UNL     1      -1.050  -1.152   0.147  0.00  0.00    +0.000 A 
ATOM      9  C   UNL     1      -0.942  -1.877   1.456  0.00  0.00    +0.000 C 
ATOM     10  N   UNL     1      -2.069  -1.166  -0.718  0.00  0.00    +0.000 N 
ENDROOT
BRANCH   7  11
ATOM     11  C   UNL     1       1.252  -0.047   0.301  0.00  0.00    +0.000 C 
ATOM     12  O   UNL     1       1.526  -0.567   1.411  0.00  0.00    +0.000 OA
ATOM     13  N   UNL     1       2.195   0.802  -0.301  0.00  0.00    +0.000 NA
BRANCH  13  14
ATOM     14  C   UNL     1       3.472   1.143   0.241  0.00  0.00    +0.000 C 
BRANCH  14  15
ATOM     15  C   UNL     1       4.352  -0.013   0.458  0.00  0.00    +0.000 A 
ATOM     16  C   UNL     1       3.905  -1.271   0.140  0.00  0.00    +0.000 A 
ATOM     17  C   UNL     1       4.747  -2.377   0.348  0.00  0.00    +0.000 A 
ATOM     18  C   UNL     1       6.011  -2.213   0.864  0.00  0.00    +0.000 A 
ATOM     19  C   UNL     1       6.453  -0.961   1.179  0.00  0.00    +0.000 A 
ATOM     20  C   UNL     1       7.731  -0.764   1.704  0.00  0.00    +0.000 A 
ATOM     21  C   UNL     1       8.150   0.497   2.011  0.00  0.00    +0.000 A 
ATOM     22  C   UNL     1       7.332   1.582   1.810  0.00  0.00    +0.000 A 
ATOM     23  C   UNL     1       6.084   1.367   1.295  0.00  0.00    +0.000 A 
ATOM     24  C   UNL     1       5.613   0.126   0.970  0.00  0.00    +0.000 A 
ENDBRANCH  14  15
ENDBRANCH  13  14
ENDBRANCH   7  11
BRANCH   1  26
ATOM     25  C   UNL     1      -0.677   2.526  -5.695  0.00  0.00    +0.000 C 
ATOM     26  O   UNL     1       0.058   2.213  -4.531  0.00  0.00    +0.000 OA
ENDBRANCH   1  26
BRANCH  10  27
ATOM     27  C   UNL     1      -3.292  -1.911  -0.536  0.00  0.00    +0.000 C 
BRANCH  27  28
ATOM     28  C   UNL     1      -4.330  -1.137   0.173  0.00  0.00    +0.000 A 
ATOM     29  C   UNL     1      -4.360  -1.227   1.551  0.00  0.00    +0.000 A 
ATOM     30  C   UNL     1      -5.286  -0.548   2.314  0.00  0.00    +0.000 A 
ATOM     31  C   UNL     1      -6.244   0.270   1.710  0.00  0.00    +0.000 A 
ATOM     32  C   UNL     1      -6.206   0.353   0.336  0.00  0.00    +0.000 A 
ATOM     33  C   UNL     1      -5.260  -0.343  -0.427  0.00  0.00    +0.000 A 
ATOM     34  O   UNL     1      -7.243   1.214  -0.023  0.00  0.00    +0.000 OA
ATOM     35  C   UNL     1      -7.736   1.895   1.117  0.00  0.00    +0.000 C 
ATOM     36  O   UNL     1      -7.272   1.055   2.179  0.00  0.00    +0.000 OA
ENDBRANCH  27  28
ENDBRANCH  10  27
TORSDOF 6
