REMARK  Name = 
REMARK  8 active torsions:
REMARK  status: ('A' for Active; 'I' for Inactive)
REMARK    1  A    between atoms: C_2  and  O_3
REMARK    2  A    between atoms: O_3  and  C_4
REMARK    3  A    between atoms: C_4  and  C_6
REMARK    4  A    between atoms: C_9  and  N_10
REMARK    5  A    between atoms: N_10  and  C_11
REMARK    6  A    between atoms: C_11  and  C_12
REMARK    7  A    between atoms: C_11  and  C_20
REMARK    8  A    between atoms: C_17  and  O_18
REMARK                            x       y       z     vdW  Elec       q    Type
REMARK                         _______ _______ _______ _____ _____    ______ ____
ROOT
ATOM      1  C   UNL     1      -0.904   0.836   0.574  0.00  0.00    +0.000 C 
ENDROOT
BRANCH   1   2
ATOM      2  C   UNL     1      -2.011   1.350  -0.470  0.00  0.00    +0.000 A 
ATOM      3  C   UNL     1      -2.025   1.160  -1.781  0.00  0.00    +0.000 A 
ATOM      4  C   UNL     1      -0.988   0.401  -2.555  0.00  0.00    +0.000 C 
ATOM      5  N   UNL     1      -3.123   1.769  -2.259  0.00  0.00    +0.000 NA
ATOM      6  C   UNL     1      -3.801   2.344  -1.231  0.00  0.00    +0.000 A 
ATOM      7  C   UNL     1      -4.977   3.084  -1.184  0.00  0.00    +0.000 A 
ATOM      8  C   UNL     1      -5.389   3.530   0.050  0.00  0.00    +0.000 A 
ATOM      9  C   UNL     1      -4.705   3.283   1.215  0.00  0.00    +0.000 A 
ATOM     10  C   UNL     1      -3.542   2.551   1.169  0.00  0.00    +0.000 A 
ATOM     11  C   UNL     1      -3.095   2.080  -0.081  0.00  0.00    +0.000 A 
ENDBRANCH   1   2
BRANCH   1  12
ATOM     12  C   UNL     1      -1.138  -0.710   0.344  0.00  0.00    +0.000 A 
ATOM     13  C   UNL     1      -0.306  -1.445  -0.412  0.00  0.00    +0.000 A 
ATOM     14  C   UNL     1      -0.527  -2.796  -0.621  0.00  0.00    +0.000 A 
ATOM     15  C   UNL     1      -1.612  -3.397  -0.047  0.00  0.00    +0.000 A 
ATOM     16  C   UNL     1      -2.458  -2.640   0.725  0.00  0.00    +0.000 A 
ATOM     17  C   UNL     1      -2.235  -1.282   0.933  0.00  0.00    +0.000 A 
BRANCH  17  18
ATOM     18  O   UNL     1      -3.130  -0.587   1.723  0.00  0.00    +0.000 OA
ATOM     19  C   UNL     1      -4.250  -1.220   2.312  0.00  0.00    +0.000 C 
ENDBRANCH  17  18
ENDBRANCH   1  12
BRANCH   1  20
ATOM     20  N   UNL     1       0.328   1.012  -0.358  0.00  0.00    +0.000 NA
BRANCH  20  24
ATOM     21  C   UNL     1       3.996  -0.793   0.525  0.00  0.00    +0.000 A 
ATOM     22  C   UNL     1       3.772  -0.102  -0.645  0.00  0.00    +0.000 A 
ATOM     23  C   UNL     1       2.557   0.463  -0.883  0.00  0.00    +0.000 A 
ATOM     24  C   UNL     1       1.524   0.364   0.025  0.00  0.00    +0.000 A 
ATOM     25  C   UNL     1       1.757  -0.319   1.176  0.00  0.00    +0.000 A 
ATOM     26  C   UNL     1       2.984  -0.895   1.427  0.00  0.00    +0.000 A 
BRANCH  21  27
ATOM     27  C   UNL     1       5.320  -1.387   0.745  0.00  0.00    +0.000 C 
ATOM     28  O   UNL     1       5.593  -2.026   1.782  0.00  0.00    +0.000 OA
BRANCH  27  29
ATOM     29  O   UNL     1       6.323  -1.257  -0.204  0.00  0.00    +0.000 OA
BRANCH  29  31
ATOM     30  C   UNL     1       8.480  -1.547  -1.149  0.00  0.00    +0.000 C 
ATOM     31  C   UNL     1       7.582  -1.824   0.009  0.00  0.00    +0.000 C 
ENDBRANCH  29  31
ENDBRANCH  27  29
ENDBRANCH  21  27
ENDBRANCH  20  24
ENDBRANCH   1  20
TORSDOF 8
