REMARK  Name = 
REMARK  7 active torsions:
REMARK  status: ('A' for Active; 'I' for Inactive)
REMARK    1  A    between atoms: C_2  and  C_3
REMARK    2  A    between atoms: C_6  and  N_7
REMARK    3  A    between atoms: N_7  and  C_8
REMARK    4  A    between atoms: C_9  and  S_10
REMARK    5  A    between atoms: S_10  and  C_11
REMARK    6  A    between atoms: N_19  and  C_20
REMARK    7  A    between atoms: C_23  and  C_24
REMARK                            x       y       z     vdW  Elec       q    Type
REMARK                         _______ _______ _______ _____ _____    ______ ____
ROOT
ATOM      1  C   UNL     1       0.755  -0.127  -1.131  0.00  0.00    +0.000 C 
ATOM      2  C   UNL     1       0.257  -1.295  -0.690  0.00  0.00    +0.000 C 
ATOM      3  C   UNL     1      -1.011  -1.081  -0.051  0.00  0.00    +0.000 C 
ATOM      4  O   UNL     1      -1.757  -1.964   0.480  0.00  0.00    +0.000 OA
ATOM      5  N   UNL     1      -1.309   0.336  -0.109  0.00  0.00    +0.000 N 
ATOM      6  C   UNL     1      -0.200   0.896  -0.781  0.00  0.00    +0.000 C 
ATOM      7  O   UNL     1      -0.051   2.131  -1.051  0.00  0.00    +0.000 OA
ENDROOT
BRANCH   5   8
ATOM      8  C   UNL     1      -2.489   0.928   0.419  0.00  0.00    +0.000 A 
ATOM      9  C   UNL     1      -3.726   0.746  -0.192  0.00  0.00    +0.000 A 
ATOM     10  C   UNL     1      -4.859   1.330   0.340  0.00  0.00    +0.000 A 
ATOM     11  C   UNL     1      -4.830   2.101   1.470  0.00  0.00    +0.000 A 
ATOM     12  C   UNL     1      -3.615   2.291   2.089  0.00  0.00    +0.000 A 
ATOM     13  C   UNL     1      -2.470   1.703   1.554  0.00  0.00    +0.000 A 
BRANCH  11  14
ATOM     14  C   UNL     1      -6.033   2.737   2.059  0.00  0.00    +0.000 C 
ATOM     15  C   UNL     1      -6.255   4.123   1.486  0.00  0.00    +0.000 C 
ENDBRANCH  11  14
ENDBRANCH   5   8
BRANCH   1  16
ATOM     16  N   UNL     1       1.975   0.038  -1.785  0.00  0.00    +0.000 NA
BRANCH  16  20
ATOM     17  C   UNL     1       5.034   2.849  -0.865  0.00  0.00    +0.000 A 
ATOM     18  C   UNL     1       5.237   1.801  -1.726  0.00  0.00    +0.000 A 
ATOM     19  C   UNL     1       4.216   0.891  -2.014  0.00  0.00    +0.000 A 
ATOM     20  C   UNL     1       2.954   1.009  -1.438  0.00  0.00    +0.000 A 
ATOM     21  C   UNL     1       2.752   2.059  -0.575  0.00  0.00    +0.000 A 
ATOM     22  C   UNL     1       3.769   2.971  -0.286  0.00  0.00    +0.000 A 
BRANCH  17  24
ATOM     23  C   UNL     1       6.835   3.317   0.716  0.00  0.00    +0.000 C 
ATOM     24  C   UNL     1       6.090   3.842  -0.524  0.00  0.00    +0.000 C 
ENDBRANCH  17  24
ENDBRANCH  16  20
ENDBRANCH   1  16
BRANCH   2  25
ATOM     25  S   UNL     1       1.152  -2.822  -0.916  0.00  0.00    +0.000 S 
BRANCH  25  26
ATOM     26  C   UNL     1       0.292  -4.109  -0.047  0.00  0.00    +0.000 A 
ATOM     27  C   UNL     1      -0.721  -4.785  -0.672  0.00  0.00    +0.000 A 
ATOM     28  C   UNL     1      -1.443  -5.811  -0.089  0.00  0.00    +0.000 A 
ATOM     29  C   UNL     1      -1.093  -6.156   1.221  0.00  0.00    +0.000 A 
ATOM     30  C   UNL     1      -0.077  -5.483   1.857  0.00  0.00    +0.000 A 
ATOM     31  C   UNL     1       0.621  -4.467   1.251  0.00  0.00    +0.000 A 
ENDBRANCH  25  26
ENDBRANCH   2  25
TORSDOF 7
