REMARK  Name = 
REMARK  8 active torsions:
REMARK  status: ('A' for Active; 'I' for Inactive)
REMARK    1  A    between atoms: C_4  and  C_5
REMARK    2  A    between atoms: C_5  and  C_7
REMARK    3  A    between atoms: C_7  and  O_8
REMARK    4  A    between atoms: O_8  and  C_9
REMARK    5  A    between atoms: C_14  and  C_15
REMARK    6  A    between atoms: N_17  and  C_18
REMARK    7  A    between atoms: C_18  and  C_19
REMARK    8  A    between atoms: N_27  and  C_28
REMARK                            x       y       z     vdW  Elec       q    Type
REMARK                         _______ _______ _______ _____ _____    ______ ____
ROOT
ATOM      1  C   UNL     1      -0.811  -0.765  -1.807  0.00  0.00    +0.000 A 
ATOM      2  C   UNL     1       0.157  -1.736  -2.054  0.00  0.00    +0.000 A 
ATOM      3  C   UNL     1      -0.188  -2.998  -2.487  0.00  0.00    +0.000 A 
ATOM      4  C   UNL     1      -1.531  -3.260  -2.667  0.00  0.00    +0.000 A 
ATOM      5  C   UNL     1      -2.495  -2.295  -2.421  0.00  0.00    +0.000 A 
ATOM      6  C   UNL     1      -2.150  -1.039  -1.990  0.00  0.00    +0.000 A 
ENDROOT
BRANCH   6   7
ATOM      7  C   UNL     1      -3.156  -0.022  -1.735  0.00  0.00    +0.000 C 
ATOM      8  O   UNL     1      -4.361  -0.269  -1.896  0.00  0.00    +0.000 OA
ATOM      9  N   UNL     1      -2.814   1.294  -1.294  0.00  0.00    +0.000 NA
BRANCH   9  10
ATOM     10  C   UNL     1      -3.855   2.297  -1.045  0.00  0.00    +0.000 C 
BRANCH  10  11
ATOM     11  C   UNL     1      -4.480   1.954   0.267  0.00  0.00    +0.000 A 
ATOM     12  C   UNL     1      -5.540   2.692   0.774  0.00  0.00    +0.000 A 
ATOM     13  C   UNL     1      -6.104   2.370   1.989  0.00  0.00    +0.000 A 
ATOM     14  C   UNL     1      -5.649   1.316   2.745  0.00  0.00    +0.000 A 
ATOM     15  C   UNL     1      -4.601   0.571   2.263  0.00  0.00    +0.000 A 
ATOM     16  C   UNL     1      -4.050   0.905   1.051  0.00  0.00    +0.000 A 
ENDBRANCH  10  11
ENDBRANCH   9  10
ENDBRANCH   6   7
BRANCH   1  17
ATOM     17  O   UNL     1      -0.483   0.521  -1.367  0.00  0.00    +0.000 OA
BRANCH  17  18
ATOM     18  C   UNL     1       0.864   0.889  -1.151  0.00  0.00    +0.000 C 
BRANCH  18  19
ATOM     19  C   UNL     1       1.474   0.025  -0.112  0.00  0.00    +0.000 C 
ATOM     20  O   UNL     1       0.801  -0.864   0.463  0.00  0.00    +0.000 OA
BRANCH  19  24
ATOM     21  C   UNL     1       6.222   1.738   0.111  0.00  0.00    +0.000 C 
ATOM     22  C   UNL     1       5.004   0.930   0.393  0.00  0.00    +0.000 A 
ATOM     23  C   UNL     1       3.769   1.109  -0.237  0.00  0.00    +0.000 A 
ATOM     24  C   UNL     1       2.869   0.188   0.267  0.00  0.00    +0.000 A 
ATOM     25  C   UNL     1       3.577  -0.545   1.207  0.00  0.00    +0.000 A 
ATOM     26  C   UNL     1       3.016  -1.665   2.022  0.00  0.00    +0.000 C 
ATOM     27  N   UNL     1       4.846  -0.088   1.266  0.00  0.00    +0.000 N 
BRANCH  27  28
ATOM     28  C   UNL     1       5.936  -0.562   2.111  0.00  0.00    +0.000 C 
ATOM     29  C   UNL     1       6.458  -1.961   1.877  0.00  0.00    +0.000 C 
ATOM     30  C   UNL     1       7.274  -0.731   1.431  0.00  0.00    +0.000 C 
ENDBRANCH  27  28
ENDBRANCH  19  24
ENDBRANCH  18  19
ENDBRANCH  17  18
ENDBRANCH   1  17
TORSDOF 8
