REMARK  Name = 
REMARK  6 active torsions:
REMARK  status: ('A' for Active; 'I' for Inactive)
REMARK    1  A    between atoms: C_5  and  C_7
REMARK    2  A    between atoms: C_7  and  C_8
REMARK    3  A    between atoms: C_7  and  C_26
REMARK    4  A    between atoms: C_11  and  O_12
REMARK    5  A    between atoms: O_12  and  C_13
REMARK    6  A    between atoms: C_13  and  C_14
REMARK                            x       y       z     vdW  Elec       q    Type
REMARK                         _______ _______ _______ _____ _____    ______ ____
ROOT
ATOM      1  C   UNL     1      -1.106  -0.727   0.743  0.00  0.00    +0.000 A 
ATOM      2  C   UNL     1      -0.265   0.306   0.442  0.00  0.00    +0.000 A 
ATOM      3  C   UNL     1       0.545   0.157  -0.666  0.00  0.00    +0.000 A 
ATOM      4  C   UNL     1       0.509  -0.985  -1.437  0.00  0.00    +0.000 A 
ATOM      5  C   UNL     1      -0.378  -2.000  -1.064  0.00  0.00    +0.000 A 
ATOM      6  C   UNL     1      -1.189  -1.856   0.042  0.00  0.00    +0.000 A 
ENDROOT
BRANCH   1   7
ATOM      7  C   UNL     1      -2.028  -0.498   2.053  0.00  0.00    +0.000 C 
BRANCH   7   8
ATOM      8  C   UNL     1      -2.565   1.014   1.650  0.00  0.00    +0.000 C 
ATOM      9  C   UNL     1      -3.833   1.117   2.470  0.00  0.00    +0.000 C 
ATOM     10  C   UNL     1      -4.475   2.436   2.122  0.00  0.00    +0.000 C 
ATOM     11  C   UNL     1      -4.973   2.496   0.706  0.00  0.00    +0.000 C 
ATOM     12  C   UNL     1      -3.972   3.259  -0.158  0.00  0.00    +0.000 C 
ATOM     13  C   UNL     1      -2.716   2.435  -0.282  0.00  0.00    +0.000 C 
ATOM     14  C   UNL     1      -2.839   1.061   0.227  0.00  0.00    +0.000 C 
ENDBRANCH   7   8
BRANCH   7  19
ATOM     15  C   UNL     1      -5.878  -1.337  -1.233  0.00  0.00    +0.000 C 
ATOM     16  C   UNL     1      -5.113  -1.679  -0.011  0.00  0.00    +0.000 C 
ATOM     17  O   UNL     1      -5.514  -2.666   0.654  0.00  0.00    +0.000 OA
ATOM     18  N   UNL     1      -3.975  -0.927   0.396  0.00  0.00    +0.000 NA
ATOM     19  C   UNL     1      -3.328  -1.305   1.531  0.00  0.00    +0.000 C 
ATOM     20  O   UNL     1      -3.605  -2.258   2.294  0.00  0.00    +0.000 OA
ENDBRANCH   7  19
ENDBRANCH   1   7
BRANCH   4  21
ATOM     21  O   UNL     1       1.329  -1.115  -2.541  0.00  0.00    +0.000 OA
BRANCH  21  22
ATOM     22  C   UNL     1       2.242  -0.134  -2.967  0.00  0.00    +0.000 C 
BRANCH  22  23
ATOM     23  C   UNL     1       3.284   0.187  -1.941  0.00  0.00    +0.000 A 
ATOM     24  C   UNL     1       3.157   1.264  -1.095  0.00  0.00    +0.000 A 
ATOM     25  C   UNL     1       4.160   1.519  -0.154  0.00  0.00    +0.000 A 
ATOM     26  C   UNL     1       5.267   0.713  -0.062  0.00  0.00    +0.000 A 
ATOM     27  C   UNL     1       6.241   0.967   0.856  0.00  0.00    +0.000 A 
ATOM     28  C   UNL     1       7.367   0.137   0.940  0.00  0.00    +0.000 A 
ATOM     29  C   UNL     1       7.460  -0.941   0.069  0.00  0.00    +0.000 A 
ATOM     30  C   UNL     1       6.456  -1.167  -0.847  0.00  0.00    +0.000 A 
ATOM     31  C   UNL     1       5.355  -0.337  -0.913  0.00  0.00    +0.000 A 
ATOM     32  N   UNL     1       4.380  -0.580  -1.824  0.00  0.00    +0.000 NA
ENDBRANCH  22  23
ENDBRANCH  21  22
ENDBRANCH   4  21
TORSDOF 6
