REMARK  Name = 
REMARK  6 active torsions:
REMARK  status: ('A' for Active; 'I' for Inactive)
REMARK    1  A    between atoms: C_2  and  C_4
REMARK    2  A    between atoms: C_4  and  C_5
REMARK    3  A    between atoms: C_5  and  N_6
REMARK    4  A    between atoms: C_7  and  C_9
REMARK    5  A    between atoms: C_14  and  C_15
REMARK    6  A    between atoms: C_21  and  C_22
REMARK                            x       y       z     vdW  Elec       q    Type
REMARK                         _______ _______ _______ _____ _____    ______ ____
ROOT
ATOM      1  C   UNL     1       2.737  -0.629  -0.124  0.00  0.00    +0.000 A 
ATOM      2  C   UNL     1       2.402  -1.897   0.294  0.00  0.00    +0.000 A 
ATOM      3  C   UNL     1       1.106  -2.287   0.523  0.00  0.00    +0.000 A 
ATOM      4  C   UNL     1       0.090  -1.381   0.330  0.00  0.00    +0.000 A 
ATOM      5  N   UNL     1      -1.203  -1.706   0.537  0.00  0.00    +0.000 NA
ATOM      6  C   UNL     1      -2.168  -0.790   0.336  0.00  0.00    +0.000 A 
ATOM      7  C   UNL     1      -1.902   0.492  -0.081  0.00  0.00    +0.000 A 
ATOM      8  N   UNL     1      -0.610   0.800  -0.283  0.00  0.00    +0.000 NA
ATOM      9  C   UNL     1       0.390  -0.105  -0.088  0.00  0.00    +0.000 A 
ATOM     10  C   UNL     1       1.714   0.274  -0.316  0.00  0.00    +0.000 A 
ENDROOT
BRANCH   6  11
ATOM     11  C   UNL     1      -3.538  -1.235   0.586  0.00  0.00    +0.000 A 
ATOM     12  C   UNL     1      -4.434  -1.306  -0.446  0.00  0.00    +0.000 A 
ATOM     13  C   UNL     1      -5.747  -1.729  -0.239  0.00  0.00    +0.000 A 
ATOM     14  C   UNL     1      -6.193  -2.092   1.014  0.00  0.00    +0.000 A 
ATOM     15  C   UNL     1      -5.295  -2.022   2.056  0.00  0.00    +0.000 A 
ATOM     16  C   UNL     1      -3.992  -1.600   1.836  0.00  0.00    +0.000 A 
ENDBRANCH   6  11
BRANCH   7  17
ATOM     17  C   UNL     1      -2.953   1.491  -0.301  0.00  0.00    +0.000 A 
ATOM     18  C   UNL     1      -3.870   1.363  -1.288  0.00  0.00    +0.000 A 
ATOM     19  C   UNL     1      -4.835   2.319  -1.463  0.00  0.00    +0.000 A 
ATOM     20  C   UNL     1      -4.893   3.439  -0.631  0.00  0.00    +0.000 A 
ATOM     21  C   UNL     1      -3.963   3.579   0.378  0.00  0.00    +0.000 A 
ATOM     22  C   UNL     1      -3.015   2.610   0.525  0.00  0.00    +0.000 A 
ENDBRANCH   7  17
BRANCH   1  24
ATOM     23  N   UNL     1       5.114  -1.266  -0.223  0.00  0.00    +0.000 NA
ATOM     24  C   UNL     1       4.157  -0.275  -0.358  0.00  0.00    +0.000 C 
ATOM     25  O   UNL     1       4.475   0.891  -0.670  0.00  0.00    +0.000 OA
BRANCH  23  26
ATOM     26  C   UNL     1       6.497  -1.203  -0.386  0.00  0.00    +0.000 C 
BRANCH  26  27
ATOM     27  C   UNL     1       7.338  -0.325   0.412  0.00  0.00    +0.000 C 
BRANCH  27  29
ATOM     28  C   UNL     1       7.465   1.495  -1.193  0.00  0.00    +0.000 C 
ATOM     29  C   UNL     1       7.145   1.136   0.258  0.00  0.00    +0.000 C 
ATOM     30  C   UNL     1       7.983   1.961   1.195  0.00  0.00    +0.000 C 
ENDBRANCH  27  29
ENDBRANCH  26  27
ENDBRANCH  23  26
ENDBRANCH   1  24
TORSDOF 6
