REMARK  Name = 
REMARK  7 active torsions:
REMARK  status: ('A' for Active; 'I' for Inactive)
REMARK    1  A    between atoms: C_5  and  S_6
REMARK    2  A    between atoms: S_6  and  C_7
REMARK    3  A    between atoms: C_7  and  C_8
REMARK    4  A    between atoms: C_11  and  C_12
REMARK    5  A    between atoms: N_14  and  C_15
REMARK    6  A    between atoms: C_20  and  C_21
REMARK    7  A    between atoms: N_23  and  C_24
REMARK                            x       y       z     vdW  Elec       q    Type
REMARK                         _______ _______ _______ _____ _____    ______ ____
ROOT
ATOM      1  C   UNL     1       3.331  -1.940   0.852  0.00  0.00    +0.000 A 
ATOM      2  C   UNL     1       2.644  -3.074   0.461  0.00  0.00    +0.000 A 
ATOM      3  C   UNL     1       1.261  -3.103   0.490  0.00  0.00    +0.000 A 
ATOM      4  C   UNL     1       0.499  -2.013   0.906  0.00  0.00    +0.000 A 
ATOM      5  C   UNL     1       1.207  -0.897   1.289  0.00  0.00    +0.000 A 
ATOM      6  C   UNL     1       2.582  -0.853   1.266  0.00  0.00    +0.000 A 
ENDROOT
BRANCH   4   7
ATOM      7  C   UNL     1      -0.955  -2.063   0.945  0.00  0.00    +0.000 C 
ATOM      8  O   UNL     1      -1.493  -3.115   1.429  0.00  0.00    +0.000 OA
ATOM      9  N   UNL     1      -1.829  -1.069   0.503  0.00  0.00    +0.000 NA
BRANCH   9  10
ATOM     10  C   UNL     1      -3.259  -1.180   0.574  0.00  0.00    +0.000 A 
ATOM     11  C   UNL     1      -3.740  -2.318   1.168  0.00  0.00    +0.000 A 
ATOM     12  C   UNL     1      -5.072  -2.558   1.315  0.00  0.00    +0.000 A 
ATOM     13  C   UNL     1      -5.956  -1.608   0.840  0.00  0.00    +0.000 A 
ATOM     14  C   UNL     1      -5.458  -0.460   0.238  0.00  0.00    +0.000 A 
ATOM     15  C   UNL     1      -4.106  -0.232   0.098  0.00  0.00    +0.000 A 
BRANCH  15  16
ATOM     16  C   UNL     1      -3.595   0.957  -0.519  0.00  0.00    +0.000 C 
ATOM     17  O   UNL     1      -2.344   1.114  -0.609  0.00  0.00    +0.000 OA
ATOM     18  N   UNL     1      -4.442   1.975  -1.040  0.00  0.00    +0.000 NA
BRANCH  18  19
ATOM     19  C   UNL     1      -3.855   3.148  -1.651  0.00  0.00    +0.000 C 
ATOM     20  C   UNL     1      -3.871   3.041  -3.159  0.00  0.00    +0.000 C 
ATOM     21  C   UNL     1      -4.718   4.333  -1.267  0.00  0.00    +0.000 C 
ENDBRANCH  18  19
ENDBRANCH  15  16
ENDBRANCH   9  10
ENDBRANCH   4   7
BRANCH   1  22
ATOM     22  C   UNL     1       4.816  -1.950   0.797  0.00  0.00    +0.000 C 
BRANCH  22  23
ATOM     23  S   UNL     1       5.455  -1.332  -0.757  0.00  0.00    +0.000 S 
BRANCH  23  28
ATOM     24  C   UNL     1       4.169   4.570  -1.000  0.00  0.00    +0.000 C 
ATOM     25  C   UNL     1       4.497   3.126  -0.986  0.00  0.00    +0.000 A 
ATOM     26  C   UNL     1       5.159   2.492  -2.010  0.00  0.00    +0.000 A 
ATOM     27  C   UNL     1       5.453   1.156  -1.967  0.00  0.00    +0.000 A 
ATOM     28  C   UNL     1       5.078   0.423  -0.869  0.00  0.00    +0.000 A 
ATOM     29  C   UNL     1       4.420   1.045   0.152  0.00  0.00    +0.000 A 
ATOM     30  C   UNL     1       4.121   2.385   0.117  0.00  0.00    +0.000 A 
ENDBRANCH  23  28
ENDBRANCH  22  23
ENDBRANCH   1  22
TORSDOF 7
