REMARK  Name = 
REMARK  7 active torsions:
REMARK  status: ('A' for Active; 'I' for Inactive)
REMARK    1  A    between atoms: C_6  and  C_7
REMARK    2  A    between atoms: C_10  and  N_11
REMARK    3  A    between atoms: C_12  and  C_14
REMARK    4  A    between atoms: C_14  and  C_15
REMARK    5  A    between atoms: C_15  and  N_16
REMARK    6  A    between atoms: C_15  and  C_25
REMARK    7  A    between atoms: C_17  and  C_19
REMARK                            x       y       z     vdW  Elec       q    Type
REMARK                         _______ _______ _______ _____ _____    ______ ____
ROOT
ATOM      1  C   UNL     1       0.904   0.316   1.198  0.00  0.00    +0.000 C 
ENDROOT
BRANCH   1   2
ATOM      2  C   UNL     1       1.126  -1.132   0.516  0.00  0.00    +0.000 A 
ATOM      3  C   UNL     1       0.919  -2.204   1.357  0.00  0.00    +0.000 A 
ATOM      4  C   UNL     1       1.109  -3.479   0.827  0.00  0.00    +0.000 A 
ATOM      5  C   UNL     1       1.490  -3.580  -0.494  0.00  0.00    +0.000 A 
ATOM      6  C   UNL     1       1.686  -2.477  -1.300  0.00  0.00    +0.000 A 
ATOM      7  C   UNL     1       1.494  -1.204  -0.767  0.00  0.00    +0.000 A 
ENDBRANCH   1   2
BRANCH   1   8
ATOM      8  N   UNL     1       2.200   0.981   0.594  0.00  0.00    +0.000 NA
ATOM      9  C   UNL     1       3.396   0.239   0.703  0.00  0.00    +0.000 C 
ATOM     10  O   UNL     1       3.317  -0.871   1.270  0.00  0.00    +0.000 OA
BRANCH   9  11
ATOM     11  C   UNL     1       4.688   0.734   0.182  0.00  0.00    +0.000 A 
ATOM     12  C   UNL     1       4.840   1.999  -0.336  0.00  0.00    +0.000 A 
ATOM     13  C   UNL     1       6.029   2.494  -0.833  0.00  0.00    +0.000 A 
ATOM     14  C   UNL     1       7.126   1.660  -0.806  0.00  0.00    +0.000 A 
ATOM     15  C   UNL     1       7.035   0.381  -0.300  0.00  0.00    +0.000 A 
ATOM     16  C   UNL     1       5.811  -0.070   0.191  0.00  0.00    +0.000 A 
ENDBRANCH   9  11
ENDBRANCH   1   8
BRANCH   1  17
ATOM     17  C   UNL     1      -0.059   0.867  -0.056  0.00  0.00    +0.000 C 
BRANCH  17  19
ATOM     18  N   UNL     1      -2.463   0.549  -0.567  0.00  0.00    +0.000 NA
ATOM     19  C   UNL     1      -1.413   0.328   0.329  0.00  0.00    +0.000 C 
ATOM     20  O   UNL     1      -1.651  -0.290   1.375  0.00  0.00    +0.000 OA
BRANCH  18  27
ATOM     21  C   UNL     1      -3.233  -2.045  -1.430  0.00  0.00    +0.000 C 
ATOM     22  C   UNL     1      -4.234  -1.115  -0.800  0.00  0.00    +0.000 A 
ATOM     23  C   UNL     1      -5.532  -1.570  -0.660  0.00  0.00    +0.000 A 
ATOM     24  C   UNL     1      -6.433  -0.715  -0.076  0.00  0.00    +0.000 A 
ATOM     25  C   UNL     1      -6.030   0.549   0.347  0.00  0.00    +0.000 A 
ATOM     26  C   UNL     1      -4.716   0.980   0.192  0.00  0.00    +0.000 A 
ATOM     27  C   UNL     1      -3.804   0.132  -0.391  0.00  0.00    +0.000 A 
BRANCH  26  28
ATOM     28  C   UNL     1      -4.298   2.341   0.652  0.00  0.00    +0.000 C 
ATOM     29  C   UNL     1      -5.533   3.071   1.155  0.00  0.00    +0.000 C 
ATOM     30  C   UNL     1      -3.769   3.134  -0.523  0.00  0.00    +0.000 C 
ENDBRANCH  26  28
ENDBRANCH  18  27
ENDBRANCH  17  19
ENDBRANCH   1  17
TORSDOF 7
