REMARK  Name = 
REMARK  9 active torsions:
REMARK  status: ('A' for Active; 'I' for Inactive)
REMARK    1  A    between atoms: C_11  and  C_13
REMARK    2  A    between atoms: C_13  and  O_15
REMARK    3  A    between atoms: C_17  and  C_18
REMARK    4  A    between atoms: C_18  and  C_19
REMARK    5  A    between atoms: C_19  and  C_20
REMARK    6  A    between atoms: C_24  and  C_25
REMARK    7  A    between atoms: C_25  and  N_26
REMARK    8  A    between atoms: N_26  and  C_27
REMARK    9  A    between atoms: C_27  and  C_28
REMARK                            x       y       z     vdW  Elec       q    Type
REMARK                         _______ _______ _______ _____ _____    ______ ____
ROOT
ATOM      1  C   UNL     1      -0.148   1.095  -1.672  0.00  0.00    +0.000 C 
ATOM      2  C   UNL     1      -0.862   0.288  -0.917  0.00  0.00    +0.000 C 
ATOM      3  C   UNL     1      -1.363  -1.030  -1.353  0.00  0.00    +0.000 C 
ATOM      4  C   UNL     1      -2.853  -1.020  -1.320  0.00  0.00    +0.000 C 
ATOM      5  C   UNL     1      -3.166  -0.868   0.274  0.00  0.00    +0.000 C 
ATOM      6  C   UNL     1      -2.873   0.735   0.323  0.00  0.00    +0.000 C 
ATOM      7  C   UNL     1      -3.244   1.385  -0.890  0.00  0.00    +0.000 C 
ATOM      8  C   UNL     1      -3.326   1.269   1.635  0.00  0.00    +0.000 C 
ATOM      9  C   UNL     1      -4.848   1.344   1.624  0.00  0.00    +0.000 C 
ATOM     10  C   UNL     1      -5.289  -0.075   1.392  0.00  0.00    +0.000 C 
ATOM     11  C   UNL     1      -4.775  -0.713   0.155  0.00  0.00    +0.000 C 
ATOM     12  C   UNL     1      -5.193  -2.198   0.238  0.00  0.00    +0.000 C 
ATOM     13  C   UNL     1      -1.270   0.809   0.501  0.00  0.00    +0.000 C 
ENDROOT
BRANCH  11  14
ATOM     14  C   UNL     1      -5.199  -0.182  -1.095  0.00  0.00    +0.000 C 
ATOM     15  O   UNL     1      -4.951  -0.900  -2.097  0.00  0.00    +0.000 OA
BRANCH  14  16
ATOM     16  O   UNL     1      -5.841   1.010  -1.303  0.00  0.00    +0.000 OA
ATOM     17  C   UNL     1      -6.251   1.489  -2.549  0.00  0.00    +0.000 C 
ENDBRANCH  14  16
ENDBRANCH  11  14
BRANCH  13  18
ATOM     18  C   UNL     1      -1.027  -0.371   1.485  0.00  0.00    +0.000 C 
BRANCH  18  19
ATOM     19  C   UNL     1       0.296  -0.822   1.760  0.00  0.00    +0.000 C 
BRANCH  19  20
ATOM     20  C   UNL     1       1.249  -1.183   0.783  0.00  0.00    +0.000 A 
ATOM     21  C   UNL     1       1.346  -2.408   0.084  0.00  0.00    +0.000 A 
ATOM     22  C   UNL     1       2.368  -2.318  -0.756  0.00  0.00    +0.000 A 
ATOM     23  O   UNL     1       2.947  -1.134  -0.631  0.00  0.00    +0.000 OA
ATOM     24  C   UNL     1       2.275  -0.465   0.293  0.00  0.00    +0.000 A 
BRANCH  24  25
ATOM     25  C   UNL     1       2.598   0.946   0.743  0.00  0.00    +0.000 C 
BRANCH  25  26
ATOM     26  N   UNL     1       3.882   0.626   1.394  0.00  0.00    +0.000 NA
BRANCH  26  27
ATOM     27  C   UNL     1       4.718   1.799   1.342  0.00  0.00    +0.000 C 
BRANCH  27  28
ATOM     28  C   UNL     1       5.861   1.057   0.573  0.00  0.00    +0.000 A 
ATOM     29  C   UNL     1       6.325  -0.092   0.934  0.00  0.00    +0.000 A 
ATOM     30  C   UNL     1       7.300  -0.840   0.302  0.00  0.00    +0.000 A 
ATOM     31  C   UNL     1       7.761  -0.119  -0.889  0.00  0.00    +0.000 A 
ATOM     32  C   UNL     1       7.282   1.057  -1.219  0.00  0.00    +0.000 A 
ATOM     33  C   UNL     1       6.270   1.833  -0.548  0.00  0.00    +0.000 A 
ENDBRANCH  27  28
ENDBRANCH  26  27
ENDBRANCH  25  26
ENDBRANCH  24  25
ENDBRANCH  19  20
ENDBRANCH  18  19
ENDBRANCH  13  18
TORSDOF 9
