REMARK  Name = 
REMARK  7 active torsions:
REMARK  status: ('A' for Active; 'I' for Inactive)
REMARK    1  A    between atoms: C_2  and  N_3
REMARK    2  A    between atoms: N_3  and  C_4
REMARK    3  A    between atoms: N_3  and  C_6
REMARK    4  A    between atoms: C_6  and  C_7
REMARK    5  A    between atoms: C_7  and  O_8
REMARK    6  A    between atoms: O_8  and  C_9
REMARK    7  A    between atoms: C_13  and  C_14
REMARK                            x       y       z     vdW  Elec       q    Type
REMARK                         _______ _______ _______ _____ _____    ______ ____
ROOT
ATOM      1  C   UNL     1      -1.140  -0.939  -0.143  0.00  0.00    +0.000 A 
ATOM      2  C   UNL     1      -2.290  -0.492  -0.620  0.00  0.00    +0.000 A 
ATOM      3  C   UNL     1      -3.395  -0.361   0.299  0.00  0.00    +0.000 A 
ATOM      4  C   UNL     1      -3.290  -0.722   1.593  0.00  0.00    +0.000 A 
ATOM      5  C   UNL     1      -2.072  -1.194   2.095  0.00  0.00    +0.000 A 
ATOM      6  C   UNL     1      -1.911  -1.437   3.425  0.00  0.00    +0.000 A 
ATOM      7  C   UNL     1      -0.676  -1.747   4.026  0.00  0.00    +0.000 A 
ATOM      8  C   UNL     1       0.461  -1.793   3.174  0.00  0.00    +0.000 A 
ATOM      9  O   UNL     1       1.630  -2.026   3.709  0.00  0.00    +0.000 OA
ATOM     10  C   UNL     1       0.158  -1.549   1.843  0.00  0.00    +0.000 A 
ATOM     11  C   UNL     1      -0.997  -1.279   1.253  0.00  0.00    +0.000 A 
ATOM     12  C   UNL     1      -4.473   0.395  -0.453  0.00  0.00    +0.000 A 
ATOM     13  C   UNL     1      -5.619   0.962   0.114  0.00  0.00    +0.000 A 
ATOM     14  C   UNL     1      -6.339   1.726  -0.733  0.00  0.00    +0.000 A 
ATOM     15  C   UNL     1      -6.046   1.905  -2.031  0.00  0.00    +0.000 A 
ATOM     16  O   UNL     1      -6.879   2.595  -2.870  0.00  0.00    +0.000 OA
ATOM     17  C   UNL     1      -4.839   1.318  -2.608  0.00  0.00    +0.000 A 
ATOM     18  C   UNL     1      -4.095   0.576  -1.684  0.00  0.00    +0.000 A 
ATOM     19  C   UNL     1      -2.817  -0.182  -1.948  0.00  0.00    +0.000 C 
ENDROOT
BRANCH   1  24
ATOM     20  C   UNL     1       2.556  -0.114  -0.399  0.00  0.00    +0.000 A 
ATOM     21  C   UNL     1       2.795  -1.075  -1.383  0.00  0.00    +0.000 A 
ATOM     22  C   UNL     1       1.984  -1.813  -2.014  0.00  0.00    +0.000 A 
ATOM     23  C   UNL     1       0.576  -1.803  -1.753  0.00  0.00    +0.000 A 
ATOM     24  C   UNL     1       0.198  -0.883  -0.784  0.00  0.00    +0.000 A 
ATOM     25  C   UNL     1       1.135  -0.049  -0.138  0.00  0.00    +0.000 A 
BRANCH  20  26
ATOM     26  O   UNL     1       3.146   0.722   0.444  0.00  0.00    +0.000 OA
BRANCH  26  27
ATOM     27  C   UNL     1       4.432   1.054   0.930  0.00  0.00    +0.000 C 
BRANCH  27  28
ATOM     28  C   UNL     1       5.395   1.290   0.038  0.00  0.00    +0.000 C 
BRANCH  28  29
ATOM     29  N   UNL     1       6.309   1.503  -0.817  0.00  0.00    +0.000 NA
BRANCH  29  31
ATOM     30  C   UNL     1       5.101   3.171  -2.189  0.00  0.00    +0.000 C 
ATOM     31  C   UNL     1       5.965   1.887  -2.232  0.00  0.00    +0.000 C 
ENDBRANCH  29  31
BRANCH  29  32
ATOM     32  C   UNL     1       7.364   0.444  -0.949  0.00  0.00    +0.000 C 
ATOM     33  C   UNL     1       7.672  -0.089   0.469  0.00  0.00    +0.000 C 
ENDBRANCH  29  32
ENDBRANCH  28  29
ENDBRANCH  27  28
ENDBRANCH  26  27
ENDBRANCH  20  26
ENDBRANCH   1  24
TORSDOF 7
