REMARK  Name = 
REMARK  7 active torsions:
REMARK  status: ('A' for Active; 'I' for Inactive)
REMARK    1  A    between atoms: C_2  and  C_5
REMARK    2  A    between atoms: C_8  and  O_9
REMARK    3  A    between atoms: O_9  and  C_10
REMARK    4  A    between atoms: C_10  and  C_11
REMARK    5  A    between atoms: C_14  and  C_15
REMARK    6  A    between atoms: N_17  and  N_18
REMARK    7  A    between atoms: N_18  and  C_19
REMARK                            x       y       z     vdW  Elec       q    Type
REMARK                         _______ _______ _______ _____ _____    ______ ____
ROOT
ATOM      1  C   UNL     1      -1.101   1.567   0.480  0.00  0.00    +0.000 A 
ATOM      2  C   UNL     1      -0.491   1.010   1.605  0.00  0.00    +0.000 A 
ATOM      3  C   UNL     1       0.623   0.194   1.504  0.00  0.00    +0.000 A 
ATOM      4  C   UNL     1       1.205  -0.124   0.288  0.00  0.00    +0.000 A 
ATOM      5  C   UNL     1       0.602   0.416  -0.830  0.00  0.00    +0.000 A 
ATOM      6  C   UNL     1      -0.510   1.231  -0.735  0.00  0.00    +0.000 A 
ENDROOT
BRANCH   4   7
ATOM      7  C   UNL     1       2.436  -0.897   0.164  0.00  0.00    +0.000 C 
ATOM      8  O   UNL     1       2.374  -2.146   0.121  0.00  0.00    +0.000 OA
ATOM      9  N   UNL     1       3.692  -0.340   0.098  0.00  0.00    +0.000 NA
BRANCH   9  10
ATOM     10  N   UNL     1       4.888  -0.256   0.011  0.00  0.00    +0.000 NA
BRANCH  10  11
ATOM     11  C   UNL     1       6.245  -0.274  -0.082  0.00  0.00    +0.000 C 
ATOM     12  C   UNL     1       7.098  -1.279  -0.071  0.00  0.00    +0.000 C 
ATOM     13  C   UNL     1       8.090  -2.348  -0.066  0.00  0.00    +0.000 C 
ATOM     14  C   UNL     1       9.274  -1.849   0.340  0.00  0.00    +0.000 C 
ATOM     15  C   UNL     1       9.101  -0.361   0.620  0.00  0.00    +0.000 C 
ATOM     16  C   UNL     1       8.109  -0.159  -0.698  0.00  0.00    +0.000 C 
ATOM     17  C   UNL     1       7.172   0.946  -0.061  0.00  0.00    +0.000 C 
ENDBRANCH  10  11
ENDBRANCH   9  10
ENDBRANCH   4   7
BRANCH   1  18
ATOM     18  C   UNL     1      -2.197   2.527   0.561  0.00  0.00    +0.000 C 
BRANCH  18  19
ATOM     19  O   UNL     1      -3.264   2.529  -0.212  0.00  0.00    +0.000 OA
BRANCH  19  23
ATOM     20  C   UNL     1      -6.367  -0.119  -0.517  0.00  0.00    +0.000 A 
ATOM     21  C   UNL     1      -6.363   0.989  -1.371  0.00  0.00    +0.000 A 
ATOM     22  C   UNL     1      -5.322   1.851  -1.261  0.00  0.00    +0.000 A 
ATOM     23  C   UNL     1      -4.309   1.669  -0.363  0.00  0.00    +0.000 A 
ATOM     24  C   UNL     1      -4.319   0.542   0.499  0.00  0.00    +0.000 A 
ATOM     25  C   UNL     1      -5.370  -0.315   0.377  0.00  0.00    +0.000 A 
BRANCH  20  27
ATOM     26  C   UNL     1      -8.737  -0.213  -1.075  0.00  0.00    +0.000 C 
ATOM     27  C   UNL     1      -7.515  -1.051  -0.618  0.00  0.00    +0.000 C 
ATOM     28  C   UNL     1      -7.236  -2.015  -1.739  0.00  0.00    +0.000 C 
ATOM     29  C   UNL     1      -7.804  -1.724   0.689  0.00  0.00    +0.000 C 
ENDBRANCH  20  27
ENDBRANCH  19  23
ENDBRANCH  18  19
ENDBRANCH   1  18
TORSDOF 7
