REMARK  Name = 
REMARK  6 active torsions:
REMARK  status: ('A' for Active; 'I' for Inactive)
REMARK    1  A    between atoms: C_2  and  C_3
REMARK    2  A    between atoms: C_2  and  N_9
REMARK    3  A    between atoms: C_3  and  N_4
REMARK    4  A    between atoms: C_20  and  C_21
REMARK    5  A    between atoms: N_23  and  C_24
REMARK    6  A    between atoms: C_24  and  C_25
REMARK                            x       y       z     vdW  Elec       q    Type
REMARK                         _______ _______ _______ _____ _____    ______ ____
ROOT
ATOM      1  N   UNL     1      -2.063  -1.107  -0.445  0.00  0.00    +0.000 N 
ATOM      2  C   UNL     1      -3.227  -1.913  -0.712  0.00  0.00    +0.000 A 
ATOM      3  C   UNL     1      -4.260  -1.267  -1.394  0.00  0.00    +0.000 A 
ATOM      4  C   UNL     1      -5.410  -1.951  -1.693  0.00  0.00    +0.000 A 
ATOM      5  C   UNL     1      -5.565  -3.275  -1.329  0.00  0.00    +0.000 A 
ATOM      6  C   UNL     1      -4.528  -3.882  -0.659  0.00  0.00    +0.000 A 
ATOM      7  C   UNL     1      -3.390  -3.211  -0.361  0.00  0.00    +0.000 A 
ATOM      8  S   UNL     1      -2.056  -4.053   0.522  0.00  0.00    +0.000 S 
ATOM      9  C   UNL     1      -0.776  -2.852   0.717  0.00  0.00    +0.000 A 
ATOM     10  C   UNL     1       0.362  -3.220   1.359  0.00  0.00    +0.000 A 
ATOM     11  C   UNL     1       1.417  -2.361   1.561  0.00  0.00    +0.000 A 
ATOM     12  C   UNL     1       1.259  -1.065   1.063  0.00  0.00    +0.000 A 
ATOM     13  C   UNL     1       0.117  -0.701   0.421  0.00  0.00    +0.000 A 
ATOM     14  C   UNL     1      -0.936  -1.567   0.222  0.00  0.00    +0.000 A 
ENDROOT
BRANCH  12  15
ATOM     15  C   UNL     1       2.370  -0.145   1.272  0.00  0.00    +0.000 C 
ATOM     16  O   UNL     1       3.382  -0.446   1.946  0.00  0.00    +0.000 OA
ATOM     17  N   UNL     1       2.414   1.170   0.738  0.00  0.00    +0.000 NA
BRANCH  17  18
ATOM     18  C   UNL     1       3.446   2.106   0.898  0.00  0.00    +0.000 C 
BRANCH  18  19
ATOM     19  C   UNL     1       4.669   1.946   0.139  0.00  0.00    +0.000 A 
ATOM     20  C   UNL     1       4.717   2.501  -1.129  0.00  0.00    +0.000 A 
ATOM     21  C   UNL     1       5.825   2.412  -1.935  0.00  0.00    +0.000 A 
ATOM     22  C   UNL     1       6.925   1.753  -1.475  0.00  0.00    +0.000 A 
ATOM     23  C   UNL     1       6.902   1.184  -0.197  0.00  0.00    +0.000 A 
ATOM     24  C   UNL     1       5.786   1.283   0.595  0.00  0.00    +0.000 A 
ENDBRANCH  18  19
ENDBRANCH  17  18
ENDBRANCH  12  15
BRANCH   1  26
ATOM     25  C   UNL     1      -0.712   0.860  -0.466  0.00  0.00    +0.000 C 
ATOM     26  C   UNL     1      -2.126   0.326  -0.946  0.00  0.00    +0.000 C 
BRANCH  26  27
ATOM     27  C   UNL     1      -2.950   0.907   0.337  0.00  0.00    +0.000 C 
BRANCH  27  28
ATOM     28  N   UNL     1      -2.791   2.313   0.369  0.00  0.00    +0.000 NA
ATOM     29  C   UNL     1      -3.414   3.053  -0.685  0.00  0.00    +0.000 C 
ATOM     30  C   UNL     1      -2.639   4.351  -0.784  0.00  0.00    +0.000 C 
ATOM     31  C   UNL     1      -1.257   4.026  -0.262  0.00  0.00    +0.000 C 
ATOM     32  C   UNL     1      -1.493   2.827   0.607  0.00  0.00    +0.000 C 
ENDBRANCH  27  28
ENDBRANCH  26  27
ENDBRANCH   1  26
TORSDOF 6
