REMARK  Name = 
REMARK  7 active torsions:
REMARK  status: ('A' for Active; 'I' for Inactive)
REMARK    1  A    between atoms: C_5  and  N_6
REMARK    2  A    between atoms: C_7  and  C_8
REMARK    3  A    between atoms: C_8  and  C_9
REMARK    4  A    between atoms: C_17  and  S_18
REMARK    5  A    between atoms: S_18  and  C_19
REMARK    6  A    between atoms: C_19  and  C_20
REMARK    7  A    between atoms: N_22  and  C_23
REMARK                            x       y       z     vdW  Elec       q    Type
REMARK                         _______ _______ _______ _____ _____    ______ ____
ROOT
ATOM      1  N   UNL     1      -2.008  -0.405   1.220  0.00  0.00    +0.000 N 
ATOM      2  C   UNL     1      -3.257  -0.102   1.583  0.00  0.00    +0.000 A 
ATOM      3  N   UNL     1      -3.223   0.786   2.608  0.00  0.00    +0.000 NA
ATOM      4  N   UNL     1      -1.962   1.032   2.875  0.00  0.00    +0.000 NA
ATOM      5  C   UNL     1      -1.202   0.316   2.041  0.00  0.00    +0.000 A 
ENDROOT
BRANCH   1  10
ATOM      6  C   UNL     1      -0.061  -3.960  -2.825  0.00  0.00    +0.000 C 
ATOM      7  C   UNL     1      -0.504  -3.042  -1.761  0.00  0.00    +0.000 A 
ATOM      8  C   UNL     1      -1.832  -2.663  -1.743  0.00  0.00    +0.000 A 
ATOM      9  C   UNL     1      -2.310  -1.802  -0.768  0.00  0.00    +0.000 A 
ATOM     10  C   UNL     1      -1.509  -1.284   0.221  0.00  0.00    +0.000 A 
ATOM     11  C   UNL     1      -0.170  -1.672   0.195  0.00  0.00    +0.000 A 
ATOM     12  C   UNL     1       0.306  -2.529  -0.777  0.00  0.00    +0.000 A 
ENDBRANCH   1  10
BRANCH   2  13
ATOM     13  C   UNL     1      -4.478  -0.653   0.930  0.00  0.00    +0.000 C 
BRANCH  13  14
ATOM     14  C   UNL     1      -5.030   0.399   0.026  0.00  0.00    +0.000 A 
ATOM     15  C   UNL     1      -5.997   1.295   0.500  0.00  0.00    +0.000 A 
ATOM     16  C   UNL     1      -6.503   2.270  -0.338  0.00  0.00    +0.000 A 
ATOM     17  C   UNL     1      -6.104   2.418  -1.640  0.00  0.00    +0.000 A 
ATOM     18  C   UNL     1      -5.147   1.538  -2.119  0.00  0.00    +0.000 A 
ATOM     19  C   UNL     1      -4.643   0.565  -1.283  0.00  0.00    +0.000 A 
ENDBRANCH  13  14
ENDBRANCH   2  13
BRANCH   5  20
ATOM     20  S   UNL     1       0.572   0.307   2.015  0.00  0.00    +0.000 S 
BRANCH  20  21
ATOM     21  C   UNL     1       1.182   1.563   0.864  0.00  0.00    +0.000 C 
BRANCH  21  22
ATOM     22  C   UNL     1       2.661   1.516   0.897  0.00  0.00    +0.000 C 
ATOM     23  O   UNL     1       3.275   2.303   1.648  0.00  0.00    +0.000 OA
ATOM     24  N   UNL     1       3.360   0.599   0.096  0.00  0.00    +0.000 NA
BRANCH  24  25
ATOM     25  C   UNL     1       4.802   0.507   0.085  0.00  0.00    +0.000 A 
ATOM     26  C   UNL     1       5.518   1.393   0.846  0.00  0.00    +0.000 A 
ATOM     27  C   UNL     1       6.876   1.345   0.868  0.00  0.00    +0.000 A 
ATOM     28  C   UNL     1       7.538   0.395   0.116  0.00  0.00    +0.000 A 
ATOM     29  C   UNL     1       6.819  -0.490  -0.646  0.00  0.00    +0.000 A 
ATOM     30  C   UNL     1       7.582  -1.507  -1.446  0.00  0.00    +0.000 C 
ATOM     31  C   UNL     1       5.447  -0.439  -0.665  0.00  0.00    +0.000 A 
ENDBRANCH  24  25
ENDBRANCH  21  22
ENDBRANCH  20  21
ENDBRANCH   5  20
TORSDOF 7
