REMARK  Name = 
REMARK  6 active torsions:
REMARK  status: ('A' for Active; 'I' for Inactive)
REMARK    1  A    between atoms: C_6  and  C_7
REMARK    2  A    between atoms: C_7  and  O_9
REMARK    3  A    between atoms: C_11  and  C_12
REMARK    4  A    between atoms: N_14  and  C_15
REMARK    5  A    between atoms: C_22  and  C_23
REMARK    6  A    between atoms: C_29  and  O_31
REMARK                            x       y       z     vdW  Elec       q    Type
REMARK                         _______ _______ _______ _____ _____    ______ ____
ROOT
ATOM      1  C   UNL     1      -2.473  -3.652  -0.329  0.00  0.00    +0.000 C 
ATOM      2  C   UNL     1      -2.527  -2.327  -0.354  0.00  0.00    +0.000 C 
ATOM      3  N   UNL     1      -3.702  -1.536  -0.175  0.00  0.00    +0.000 NA
ATOM      4  C   UNL     1      -3.583  -0.276  -0.274  0.00  0.00    +0.000 C 
ATOM      5  C   UNL     1      -4.779   0.582  -0.113  0.00  0.00    +0.000 C 
ATOM      6  C   UNL     1      -2.289   0.526  -0.430  0.00  0.00    +0.000 C 
ATOM      7  C   UNL     1      -1.233  -0.345   0.435  0.00  0.00    +0.000 C 
ATOM      8  C   UNL     1      -1.338  -1.541  -0.642  0.00  0.00    +0.000 C 
ATOM      9  C   UNL     1      -0.565  -1.789  -1.591  0.00  0.00    +0.000 C 
ATOM     10  O   UNL     1       0.529  -1.049  -1.862  0.00  0.00    +0.000 OA
ENDROOT
BRANCH   7  11
ATOM     11  C   UNL     1       0.181   0.111   0.228  0.00  0.00    +0.000 A 
ATOM     12  C   UNL     1       1.100  -0.968   0.376  0.00  0.00    +0.000 A 
ATOM     13  N   UNL     1       2.304  -0.506   0.546  0.00  0.00    +0.000 N 
ATOM     14  N   UNL     1       2.260   0.784   0.519  0.00  0.00    +0.000 NA
ATOM     15  C   UNL     1       0.952   1.170   0.318  0.00  0.00    +0.000 A 
BRANCH  13  16
ATOM     16  C   UNL     1       3.488  -1.303   0.738  0.00  0.00    +0.000 A 
ATOM     17  C   UNL     1       3.408  -2.654   0.966  0.00  0.00    +0.000 A 
ATOM     18  C   UNL     1       4.522  -3.454   1.160  0.00  0.00    +0.000 A 
ATOM     19  C   UNL     1       5.767  -2.872   1.124  0.00  0.00    +0.000 A 
ATOM     20  C   UNL     1       5.856  -1.493   0.892  0.00  0.00    +0.000 A 
ATOM     21  C   UNL     1       4.737  -0.711   0.701  0.00  0.00    +0.000 A 
ENDBRANCH  13  16
BRANCH  15  22
ATOM     22  C   UNL     1       0.610   2.568   0.058  0.00  0.00    +0.000 A 
ATOM     23  C   UNL     1       1.313   3.595   0.622  0.00  0.00    +0.000 A 
ATOM     24  C   UNL     1       0.913   4.830   0.373  0.00  0.00    +0.000 A 
ATOM     25  C   UNL     1      -0.175   5.008  -0.431  0.00  0.00    +0.000 A 
ATOM     26  S   UNL     1      -0.581   3.398  -0.797  0.00  0.00    +0.000 S 
ENDBRANCH  15  22
ENDBRANCH   7  11
BRANCH   6  27
ATOM     27  C   UNL     1      -2.643   1.617   0.624  0.00  0.00    +0.000 C 
ATOM     28  O   UNL     1      -2.017   1.724   1.688  0.00  0.00    +0.000 OA
BRANCH  27  29
ATOM     29  O   UNL     1      -3.686   2.496   0.378  0.00  0.00    +0.000 OA
ATOM     30  C   UNL     1      -4.031   3.509   1.337  0.00  0.00    +0.000 C 
ENDBRANCH  27  29
ENDBRANCH   6  27
BRANCH   9  31
ATOM     31  O   UNL     1      -0.892  -2.928  -2.408  0.00  0.00    +0.000 OA
ATOM     32  C   UNL     1      -1.425  -2.514  -3.679  0.00  0.00    +0.000 C 
ENDBRANCH   9  31
TORSDOF 6
