REMARK  Name = 
REMARK  9 active torsions:
REMARK  status: ('A' for Active; 'I' for Inactive)
REMARK    1  A    between atoms: C_2  and  O_3
REMARK    2  A    between atoms: O_3  and  C_4
REMARK    3  A    between atoms: C_7  and  C_8
REMARK    4  A    between atoms: C_8  and  C_9
REMARK    5  A    between atoms: C_9  and  N_10
REMARK    6  A    between atoms: C_11  and  C_13
REMARK    7  A    between atoms: C_14  and  C_15
REMARK    8  A    between atoms: C_23  and  C_24
REMARK    9  A    between atoms: C_27  and  C_28
REMARK                            x       y       z     vdW  Elec       q    Type
REMARK                         _______ _______ _______ _____ _____    ______ ____
ROOT
ATOM      1  C   UNL     1      -1.623  -1.746  -1.135  0.00  0.00    +0.000 C 
ATOM      2  C   UNL     1      -1.859  -2.825  -0.458  0.00  0.00    +0.000 C 
ATOM      3  N   UNL     1      -3.206  -3.241  -0.776  0.00  0.00    +0.000 NA
ATOM      4  O   UNL     1      -3.920  -2.193  -1.088  0.00  0.00    +0.000 OA
ATOM      5  C   UNL     1      -2.936  -1.398  -1.914  0.00  0.00    +0.000 C 
ENDROOT
BRANCH   2   6
ATOM      6  C   UNL     1      -0.984  -3.605   0.462  0.00  0.00    +0.000 A 
ATOM      7  C   UNL     1      -0.223  -3.064   1.458  0.00  0.00    +0.000 A 
ATOM      8  C   UNL     1       0.591  -3.829   2.285  0.00  0.00    +0.000 A 
ATOM      9  C   UNL     1       0.647  -5.190   2.112  0.00  0.00    +0.000 A 
ATOM     10  C   UNL     1      -0.107  -5.765   1.119  0.00  0.00    +0.000 A 
ATOM     11  C   UNL     1      -0.916  -4.970   0.302  0.00  0.00    +0.000 A 
ENDBRANCH   2   6
BRANCH   5  12
ATOM     12  C   UNL     1      -3.325   0.011  -1.348  0.00  0.00    +0.000 A 
ATOM     13  C   UNL     1      -2.369   0.825  -0.899  0.00  0.00    +0.000 A 
ATOM     14  C   UNL     1      -2.676   2.112  -0.387  0.00  0.00    +0.000 A 
ATOM     15  C   UNL     1      -3.984   2.508  -0.361  0.00  0.00    +0.000 A 
ATOM     16  C   UNL     1      -4.975   1.683  -0.818  0.00  0.00    +0.000 A 
ATOM     17  C   UNL     1      -4.616   0.439  -1.306  0.00  0.00    +0.000 A 
BRANCH  15  18
ATOM     18  C   UNL     1      -4.406   3.845   0.155  0.00  0.00    +0.000 C 
ATOM     19  C   UNL     1      -4.015   4.060   1.587  0.00  0.00    +0.000 C 
ATOM     20  C   UNL     1      -5.867   4.114  -0.117  0.00  0.00    +0.000 C 
ENDBRANCH  15  18
ENDBRANCH   5  12
BRANCH   1  22
ATOM     21  N   UNL     1      -0.077   0.172  -1.895  0.00  0.00    +0.000 NA
ATOM     22  C   UNL     1      -0.400  -0.996  -1.182  0.00  0.00    +0.000 C 
ATOM     23  O   UNL     1       0.530  -1.464  -0.469  0.00  0.00    +0.000 OA
BRANCH  21  24
ATOM     24  C   UNL     1       1.271   0.744  -1.770  0.00  0.00    +0.000 C 
BRANCH  24  25
ATOM     25  C   UNL     1       1.575   1.100  -0.343  0.00  0.00    +0.000 C 
BRANCH  25  29
ATOM     26  C   UNL     1       5.552   2.490   0.331  0.00  0.00    +0.000 A 
ATOM     27  C   UNL     1       4.554   3.387   0.088  0.00  0.00    +0.000 A 
ATOM     28  C   UNL     1       3.237   2.990  -0.138  0.00  0.00    +0.000 A 
ATOM     29  C   UNL     1       2.896   1.671  -0.124  0.00  0.00    +0.000 A 
ATOM     30  C   UNL     1       3.928   0.756   0.126  0.00  0.00    +0.000 A 
ATOM     31  C   UNL     1       5.224   1.153   0.348  0.00  0.00    +0.000 A 
BRANCH  26  32
ATOM     32  O   UNL     1       6.858   2.939   0.552  0.00  0.00    +0.000 OA
BRANCH  32  34
ATOM     33  C   UNL     1       7.693   1.224   2.055  0.00  0.00    +0.000 C 
ATOM     34  C   UNL     1       7.926   2.063   0.805  0.00  0.00    +0.000 C 
ENDBRANCH  32  34
ENDBRANCH  26  32
ENDBRANCH  25  29
ENDBRANCH  24  25
ENDBRANCH  21  24
ENDBRANCH   1  22
TORSDOF 9
