REMARK  Name = 
REMARK  8 active torsions:
REMARK  status: ('A' for Active; 'I' for Inactive)
REMARK    1  A    between atoms: C_2  and  C_3
REMARK    2  A    between atoms: C_3  and  O_4
REMARK    3  A    between atoms: O_4  and  C_5
REMARK    4  A    between atoms: C_5  and  C_7
REMARK    5  A    between atoms: N_10  and  C_11
REMARK    6  A    between atoms: C_14  and  C_15
REMARK    7  A    between atoms: C_15  and  C_16
REMARK    8  A    between atoms: C_16  and  C_17
REMARK                            x       y       z     vdW  Elec       q    Type
REMARK                         _______ _______ _______ _____ _____    ______ ____
ROOT
ATOM      1  C   UNL     1      -1.516   1.158   0.128  0.00  0.00    +0.000 A 
ATOM      2  C   UNL     1      -0.167   1.309   0.362  0.00  0.00    +0.000 A 
ATOM      3  N   UNL     1       0.405   2.583   0.688  0.00  0.00    +0.000 NA
ATOM      4  N   UNL     1       0.463   0.129   0.237  0.00  0.00    +0.000 N 
ATOM      5  C   UNL     1      -0.454  -0.819  -0.081  0.00  0.00    +0.000 A 
ATOM      6  N   UNL     1      -0.385  -2.139  -0.317  0.00  0.00    +0.000 NA
ATOM      7  C   UNL     1      -1.513  -2.817  -0.617  0.00  0.00    +0.000 A 
ATOM      8  C   UNL     1      -1.426  -4.182  -0.859  0.00  0.00    +0.000 A 
ATOM      9  C   UNL     1      -2.542  -4.925  -1.169  0.00  0.00    +0.000 A 
ATOM     10  C   UNL     1      -3.766  -4.294  -1.237  0.00  0.00    +0.000 A 
ATOM     11  C   UNL     1      -3.884  -2.941  -1.002  0.00  0.00    +0.000 A 
ATOM     12  C   UNL     1      -2.753  -2.220  -0.694  0.00  0.00    +0.000 A 
ATOM     13  N   UNL     1      -2.807  -0.882  -0.452  0.00  0.00    +0.000 NA
ATOM     14  C   UNL     1      -1.682  -0.199  -0.152  0.00  0.00    +0.000 A 
ENDROOT
BRANCH   4  15
ATOM     15  C   UNL     1       1.858  -0.069   0.413  0.00  0.00    +0.000 A 
ATOM     16  C   UNL     1       2.611   0.814   1.173  0.00  0.00    +0.000 A 
ATOM     17  C   UNL     1       3.966   0.632   1.351  0.00  0.00    +0.000 A 
ATOM     18  C   UNL     1       4.654  -0.425   0.792  0.00  0.00    +0.000 A 
ATOM     19  C   UNL     1       3.880  -1.308   0.027  0.00  0.00    +0.000 A 
ATOM     20  C   UNL     1       2.527  -1.119  -0.145  0.00  0.00    +0.000 A 
BRANCH  18  21
ATOM     21  C   UNL     1       6.103  -0.645   0.965  0.00  0.00    +0.000 C 
BRANCH  21  22
ATOM     22  C   UNL     1       7.002  -0.101  -0.067  0.00  0.00    +0.000 C 
BRANCH  22  23
ATOM     23  C   UNL     1       6.892   1.380  -0.200  0.00  0.00    +0.000 C 
ATOM     24  C   UNL     1       5.543   1.867  -0.607  0.00  0.00    +0.000 C 
ENDBRANCH  22  23
ENDBRANCH  21  22
ENDBRANCH  18  21
ENDBRANCH   4  15
BRANCH   1  25
ATOM     25  C   UNL     1      -2.565   2.169   0.157  0.00  0.00    +0.000 C 
ATOM     26  O   UNL     1      -2.250   3.354   0.427  0.00  0.00    +0.000 OA
BRANCH  25  27
ATOM     27  O   UNL     1      -3.881   1.846  -0.104  0.00  0.00    +0.000 OA
BRANCH  27  28
ATOM     28  C   UNL     1      -4.929   2.805  -0.085  0.00  0.00    +0.000 C 
BRANCH  28  30
ATOM     29  C   UNL     1      -4.651   5.146  -0.592  0.00  0.00    +0.000 C 
ATOM     30  C   UNL     1      -4.735   3.891  -1.057  0.00  0.00    +0.000 C 
ENDBRANCH  28  30
ENDBRANCH  27  28
ENDBRANCH  25  27
ENDBRANCH   1  25
TORSDOF 8
