REMARK  Name = 
REMARK  8 active torsions:
REMARK  status: ('A' for Active; 'I' for Inactive)
REMARK    1  A    between atoms: C_2  and  O_3
REMARK    2  A    between atoms: O_3  and  C_4
REMARK    3  A    between atoms: C_7  and  N_8
REMARK    4  A    between atoms: C_11  and  N_12
REMARK    5  A    between atoms: N_12  and  C_13
REMARK    6  A    between atoms: C_17  and  O_18
REMARK    7  A    between atoms: C_21  and  S_22
REMARK    8  A    between atoms: S_22  and  C_23
REMARK                            x       y       z     vdW  Elec       q    Type
REMARK                         _______ _______ _______ _____ _____    ______ ____
ROOT
ATOM      1  N   UNL     1       1.232  -0.298   0.426  0.00  0.00    +0.000 N 
ATOM      2  C   UNL     1       0.105  -1.083   0.735  0.00  0.00    +0.000 C 
ATOM      3  O   UNL     1       0.214  -2.320   1.025  0.00  0.00    +0.000 OA
ATOM      4  C   UNL     1      -1.080  -0.265   0.659  0.00  0.00    +0.000 C 
ATOM      5  C   UNL     1      -0.726   0.981   0.316  0.00  0.00    +0.000 C 
ATOM      6  C   UNL     1       0.708   1.010   0.160  0.00  0.00    +0.000 C 
ATOM      7  O   UNL     1       1.436   1.974  -0.152  0.00  0.00    +0.000 OA
ENDROOT
BRANCH   1  11
ATOM      8  C   UNL     1       5.331  -1.343   0.402  0.00  0.00    +0.000 A 
ATOM      9  C   UNL     1       4.660  -1.073   1.591  0.00  0.00    +0.000 A 
ATOM     10  C   UNL     1       3.330  -0.736   1.571  0.00  0.00    +0.000 A 
ATOM     11  C   UNL     1       2.598  -0.648   0.385  0.00  0.00    +0.000 A 
ATOM     12  C   UNL     1       3.272  -0.917  -0.778  0.00  0.00    +0.000 A 
ATOM     13  C   UNL     1       4.631  -1.261  -0.758  0.00  0.00    +0.000 A 
BRANCH   8  14
ATOM     14  O   UNL     1       6.672  -1.683   0.419  0.00  0.00    +0.000 OA
BRANCH  14  16
ATOM     15  C   UNL     1       6.847  -3.175  -1.401  0.00  0.00    +0.000 C 
ATOM     16  C   UNL     1       7.459  -1.976  -0.695  0.00  0.00    +0.000 C 
ENDBRANCH  14  16
ENDBRANCH   8  14
ENDBRANCH   1  11
BRANCH   4  17
ATOM     17  N   UNL     1      -2.385  -0.708   0.915  0.00  0.00    +0.000 NA
BRANCH  17  18
ATOM     18  C   UNL     1      -3.147  -1.562   0.117  0.00  0.00    +0.000 A 
ATOM     19  C   UNL     1      -2.682  -2.060  -1.069  0.00  0.00    +0.000 A 
ATOM     20  C   UNL     1      -3.503  -2.903  -1.789  0.00  0.00    +0.000 A 
ATOM     21  C   UNL     1      -4.759  -3.242  -1.341  0.00  0.00    +0.000 A 
ATOM     22  C   UNL     1      -5.253  -2.750  -0.141  0.00  0.00    +0.000 A 
ATOM     23  C   UNL     1      -4.411  -1.906   0.567  0.00  0.00    +0.000 A 
BRANCH  22  24
ATOM     24  O   UNL     1      -6.512  -3.083   0.320  0.00  0.00    +0.000 OA
ATOM     25  C   UNL     1      -6.943  -2.540   1.548  0.00  0.00    +0.000 C 
ENDBRANCH  22  24
ENDBRANCH  17  18
ENDBRANCH   4  17
BRANCH   5  26
ATOM     26  S   UNL     1      -1.918   2.266   0.128  0.00  0.00    +0.000 S 
BRANCH  26  27
ATOM     27  C   UNL     1      -1.258   3.865  -0.131  0.00  0.00    +0.000 A 
ATOM     28  C   UNL     1       0.039   4.252  -0.173  0.00  0.00    +0.000 A 
ATOM     29  C   UNL     1       0.479   5.540  -0.378  0.00  0.00    +0.000 A 
ATOM     30  C   UNL     1      -0.455   6.546  -0.561  0.00  0.00    +0.000 A 
ATOM     31  C   UNL     1      -1.787   6.197  -0.527  0.00  0.00    +0.000 A 
ATOM     32  C   UNL     1      -2.195   4.899  -0.319  0.00  0.00    +0.000 A 
ENDBRANCH  26  27
ENDBRANCH   5  26
TORSDOF 8
