REMARK  Name = 
REMARK  8 active torsions:
REMARK  status: ('A' for Active; 'I' for Inactive)
REMARK    1  A    between atoms: O_2  and  C_3
REMARK    2  A    between atoms: C_6  and  C_7
REMARK    3  A    between atoms: C_7  and  C_8
REMARK    4  A    between atoms: C_8  and  N_9
REMARK    5  A    between atoms: C_10  and  C_12
REMARK    6  A    between atoms: C_14  and  C_15
REMARK    7  A    between atoms: C_18  and  O_19
REMARK    8  A    between atoms: C_22  and  O_23
REMARK                            x       y       z     vdW  Elec       q    Type
REMARK                         _______ _______ _______ _____ _____    ______ ____
ROOT
ATOM      1  C   UNL     1      -0.418  -0.635  -0.359  0.00  0.00    +0.000 A 
ATOM      2  C   UNL     1      -1.532   0.145  -0.131  0.00  0.00    +0.000 A 
ATOM      3  C   UNL     1      -2.779  -0.479  -0.079  0.00  0.00    +0.000 A 
ATOM      4  N   UNL     1      -2.899  -1.808  -0.247  0.00  0.00    +0.000 NA
ATOM      5  C   UNL     1      -1.807  -2.583  -0.472  0.00  0.00    +0.000 A 
ATOM      6  C   UNL     1      -1.899  -3.947  -0.647  0.00  0.00    +0.000 A 
ATOM      7  C   UNL     1      -0.776  -4.715  -0.874  0.00  0.00    +0.000 A 
ATOM      8  C   UNL     1       0.467  -4.136  -0.932  0.00  0.00    +0.000 A 
ATOM      9  C   UNL     1       0.541  -2.769  -0.754  0.00  0.00    +0.000 A 
ATOM     10  C   UNL     1      -0.576  -1.994  -0.526  0.00  0.00    +0.000 A 
ENDROOT
BRANCH   3  11
ATOM     11  C   UNL     1      -3.960   0.334   0.161  0.00  0.00    +0.000 A 
ATOM     12  C   UNL     1      -3.863   1.694   0.335  0.00  0.00    +0.000 A 
ATOM     13  C   UNL     1      -4.978   2.490   0.566  0.00  0.00    +0.000 A 
ATOM     14  C   UNL     1      -6.217   1.874   0.618  0.00  0.00    +0.000 A 
ATOM     15  C   UNL     1      -6.327   0.508   0.444  0.00  0.00    +0.000 A 
ATOM     16  C   UNL     1      -5.206  -0.255   0.217  0.00  0.00    +0.000 A 
BRANCH  14  17
ATOM     17  O   UNL     1      -7.386   2.591   0.843  0.00  0.00    +0.000 OA
ATOM     18  C   UNL     1      -7.280   3.991   1.022  0.00  0.00    +0.000 C 
ENDBRANCH  14  17
BRANCH  16  19
ATOM     19  O   UNL     1      -5.344  -1.627   0.046  0.00  0.00    +0.000 OA
ATOM     20  C   UNL     1      -6.601  -2.243   0.100  0.00  0.00    +0.000 C 
ENDBRANCH  16  19
ENDBRANCH   3  11
BRANCH   1  22
ATOM     21  N   UNL     1       2.045  -0.871  -0.661  0.00  0.00    +0.000 NA
ATOM     22  C   UNL     1       0.914  -0.041  -0.424  0.00  0.00    +0.000 C 
ATOM     23  O   UNL     1       1.107   1.191  -0.277  0.00  0.00    +0.000 OA
BRANCH  21  24
ATOM     24  C   UNL     1       3.397  -0.311  -0.733  0.00  0.00    +0.000 C 
BRANCH  24  25
ATOM     25  C   UNL     1       3.747   0.372   0.571  0.00  0.00    +0.000 C 
BRANCH  25  29
ATOM     26  C   UNL     1       7.695   1.987   0.177  0.00  0.00    +0.000 A 
ATOM     27  C   UNL     1       6.595   2.729  -0.169  0.00  0.00    +0.000 A 
ATOM     28  C   UNL     1       5.349   2.208  -0.040  0.00  0.00    +0.000 A 
ATOM     29  C   UNL     1       5.122   0.918   0.440  0.00  0.00    +0.000 A 
ATOM     30  C   UNL     1       6.253   0.206   0.776  0.00  0.00    +0.000 A 
ATOM     31  C   UNL     1       7.523   0.714   0.653  0.00  0.00    +0.000 A 
BRANCH  26  33
ATOM     32  C   UNL     1      10.146   1.901   0.348  0.00  0.00    +0.000 C 
ATOM     33  O   UNL     1       8.947   2.559   0.029  0.00  0.00    +0.000 OA
ENDBRANCH  26  33
ENDBRANCH  25  29
ENDBRANCH  24  25
ENDBRANCH  21  24
ENDBRANCH   1  22
TORSDOF 8
