REMARK  Name = 
REMARK  8 active torsions:
REMARK  status: ('A' for Active; 'I' for Inactive)
REMARK    1  A    between atoms: C_7  and  N_8
REMARK    2  A    between atoms: C_9  and  C_11
REMARK    3  A    between atoms: C_11  and  C_12
REMARK    4  A    between atoms: C_11  and  N_19
REMARK    5  A    between atoms: C_12  and  C_13
REMARK    6  A    between atoms: C_20  and  O_22
REMARK    7  A    between atoms: O_22  and  C_23
REMARK    8  A    between atoms: C_23  and  C_24
REMARK                            x       y       z     vdW  Elec       q    Type
REMARK                         _______ _______ _______ _____ _____    ______ ____
ROOT
ATOM      1  C   UNL     1      -1.397   0.575   1.299  0.00  0.00    +0.000 C 
ENDROOT
BRANCH   1   3
ATOM      2  N   UNL     1      -2.786  -1.296   0.354  0.00  0.00    +0.000 NA
ATOM      3  C   UNL     1      -1.473  -0.880   0.658  0.00  0.00    +0.000 C 
ATOM      4  O   UNL     1      -0.523  -1.579   0.442  0.00  0.00    +0.000 OA
BRANCH   2  11
ATOM      5  C   UNL     1      -0.968  -5.540  -1.352  0.00  0.00    +0.000 C 
ATOM      6  C   UNL     1      -2.119  -4.667  -1.066  0.00  0.00    +0.000 A 
ATOM      7  C   UNL     1      -3.408  -5.062  -1.349  0.00  0.00    +0.000 A 
ATOM      8  C   UNL     1      -4.497  -4.256  -1.088  0.00  0.00    +0.000 A 
ATOM      9  C   UNL     1      -4.273  -3.002  -0.519  0.00  0.00    +0.000 A 
ATOM     10  C   UNL     1      -5.383  -2.071  -0.205  0.00  0.00    +0.000 C 
ATOM     11  C   UNL     1      -2.990  -2.591  -0.230  0.00  0.00    +0.000 A 
ATOM     12  C   UNL     1      -1.917  -3.417  -0.500  0.00  0.00    +0.000 A 
ENDBRANCH   2  11
ENDBRANCH   1   3
BRANCH   1  13
ATOM     13  N   UNL     1       0.150   0.647   1.451  0.00  0.00    +0.000 NA
ATOM     14  C   UNL     1       0.916   0.590   0.279  0.00  0.00    +0.000 C 
ATOM     15  O   UNL     1       0.367   0.491  -0.842  0.00  0.00    +0.000 OA
BRANCH  14  16
ATOM     16  O   UNL     1       2.315   0.637   0.289  0.00  0.00    +0.000 OA
BRANCH  16  17
ATOM     17  C   UNL     1       3.102   0.579  -0.884  0.00  0.00    +0.000 C 
BRANCH  17  18
ATOM     18  C   UNL     1       4.527   0.660  -0.459  0.00  0.00    +0.000 A 
ATOM     19  C   UNL     1       4.877   0.747   0.877  0.00  0.00    +0.000 A 
ATOM     20  C   UNL     1       6.197   0.826   1.266  0.00  0.00    +0.000 A 
ATOM     21  C   UNL     1       7.232   0.822   0.356  0.00  0.00    +0.000 A 
ATOM     22  C   UNL     1       6.899   0.734  -1.001  0.00  0.00    +0.000 A 
ATOM     23  C   UNL     1       5.572   0.657  -1.360  0.00  0.00    +0.000 A 
ENDBRANCH  17  18
ENDBRANCH  16  17
ENDBRANCH  14  16
ENDBRANCH   1  13
BRANCH   1  24
ATOM     24  C   UNL     1      -1.496   1.421  -0.113  0.00  0.00    +0.000 C 
BRANCH  24  25
ATOM     25  C   UNL     1      -1.437   2.840   0.324  0.00  0.00    +0.000 A 
ATOM     26  C   UNL     1      -2.627   3.475   0.609  0.00  0.00    +0.000 A 
ATOM     27  C   UNL     1      -2.724   4.772   1.020  0.00  0.00    +0.000 A 
ATOM     28  C   UNL     1      -1.532   5.479   1.153  0.00  0.00    +0.000 A 
ATOM     29  C   UNL     1      -0.333   4.860   0.872  0.00  0.00    +0.000 A 
ATOM     30  C   UNL     1      -0.274   3.548   0.459  0.00  0.00    +0.000 A 
ENDBRANCH  24  25
ENDBRANCH   1  24
TORSDOF 8
