REMARK  Name = 
REMARK  9 active torsions:
REMARK  status: ('A' for Active; 'I' for Inactive)
REMARK    1  A    between atoms: C_2  and  C_4
REMARK    2  A    between atoms: C_8  and  C_9
REMARK    3  A    between atoms: C_12  and  N_13
REMARK    4  A    between atoms: C_14  and  C_16
REMARK    5  A    between atoms: C_16  and  O_17
REMARK    6  A    between atoms: O_17  and  C_18
REMARK    7  A    between atoms: C_18  and  C_20
REMARK    8  A    between atoms: C_20  and  C_21
REMARK    9  A    between atoms: C_20  and  C_27
REMARK                            x       y       z     vdW  Elec       q    Type
REMARK                         _______ _______ _______ _____ _____    ______ ____
ROOT
ATOM      1  C   UNL     1       0.354   0.959  -1.556  0.00  0.00    +0.000 C 
ENDROOT
BRANCH   1   3
ATOM      2  N   UNL     1       2.760   0.431  -0.908  0.00  0.00    +0.000 NA
ATOM      3  C   UNL     1       1.374   0.324  -0.673  0.00  0.00    +0.000 C 
ATOM      4  O   UNL     1       0.983  -0.332   0.321  0.00  0.00    +0.000 OA
BRANCH   2  10
ATOM      5  C   UNL     1       4.081   0.467   1.121  0.00  0.00    +0.000 A 
ATOM      6  C   UNL     1       4.957  -0.125   1.996  0.00  0.00    +0.000 A 
ATOM      7  C   UNL     1       5.418  -1.401   1.731  0.00  0.00    +0.000 A 
ATOM      8  C   UNL     1       4.994  -2.044   0.607  0.00  0.00    +0.000 A 
ATOM      9  C   UNL     1       4.101  -1.471  -0.307  0.00  0.00    +0.000 A 
ATOM     10  C   UNL     1       3.658  -0.206  -0.022  0.00  0.00    +0.000 A 
BRANCH   5  12
ATOM     11  C   UNL     1       4.212   2.341   2.725  0.00  0.00    +0.000 C 
ATOM     12  C   UNL     1       3.605   1.838   1.435  0.00  0.00    +0.000 C 
ATOM     13  C   UNL     1       4.064   2.761   0.321  0.00  0.00    +0.000 C 
ENDBRANCH   5  12
BRANCH   9  14
ATOM     14  C   UNL     1       3.744  -2.269  -1.472  0.00  0.00    +0.000 C 
ATOM     15  C   UNL     1       4.376  -3.620  -1.509  0.00  0.00    +0.000 C 
ATOM     16  C   UNL     1       2.325  -2.218  -1.912  0.00  0.00    +0.000 C 
ENDBRANCH   9  14
ENDBRANCH   2  10
ENDBRANCH   1   3
BRANCH   1  17
ATOM     17  O   UNL     1      -0.956   0.699  -1.103  0.00  0.00    +0.000 OA
BRANCH  17  18
ATOM     18  C   UNL     1      -1.429   1.073   0.134  0.00  0.00    +0.000 C 
ATOM     19  O   UNL     1      -0.657   1.682   0.915  0.00  0.00    +0.000 OA
BRANCH  18  20
ATOM     20  C   UNL     1      -2.815   0.782   0.575  0.00  0.00    +0.000 C 
BRANCH  20  21
ATOM     21  C   UNL     1      -3.103  -0.670   0.589  0.00  0.00    +0.000 A 
ATOM     22  C   UNL     1      -2.559  -1.533  -0.339  0.00  0.00    +0.000 A 
ATOM     23  C   UNL     1      -2.805  -2.885  -0.356  0.00  0.00    +0.000 A 
ATOM     24  C   UNL     1      -3.637  -3.419   0.597  0.00  0.00    +0.000 A 
ATOM     25  C   UNL     1      -4.201  -2.605   1.538  0.00  0.00    +0.000 A 
ATOM     26  C   UNL     1      -3.934  -1.237   1.532  0.00  0.00    +0.000 A 
ENDBRANCH  20  21
BRANCH  20  27
ATOM     27  C   UNL     1      -3.826   1.465  -0.270  0.00  0.00    +0.000 A 
ATOM     28  C   UNL     1      -3.682   1.675  -1.619  0.00  0.00    +0.000 A 
ATOM     29  C   UNL     1      -4.654   2.315  -2.354  0.00  0.00    +0.000 A 
ATOM     30  C   UNL     1      -5.793   2.751  -1.712  0.00  0.00    +0.000 A 
ATOM     31  C   UNL     1      -5.976   2.559  -0.359  0.00  0.00    +0.000 A 
ATOM     32  C   UNL     1      -4.976   1.913   0.335  0.00  0.00    +0.000 A 
ENDBRANCH  20  27
ENDBRANCH  18  20
ENDBRANCH  17  18
ENDBRANCH   1  17
TORSDOF 9
