REMARK  Name = 
REMARK  8 active torsions:
REMARK  status: ('A' for Active; 'I' for Inactive)
REMARK    1  A    between atoms: C_2  and  O_3
REMARK    2  A    between atoms: O_3  and  C_4
REMARK    3  A    between atoms: C_4  and  C_6
REMARK    4  A    between atoms: C_10  and  C_11
REMARK    5  A    between atoms: C_11  and  C_12
REMARK    6  A    between atoms: C_19  and  N_20
REMARK    7  A    between atoms: N_20  and  C_21
REMARK    8  A    between atoms: C_21  and  C_22
REMARK                            x       y       z     vdW  Elec       q    Type
REMARK                         _______ _______ _______ _____ _____    ______ ____
ROOT
ATOM      1  C   UNL     1       2.585  -2.109   0.398  0.00  0.00    +0.000 A 
ATOM      2  S   UNL     1       1.314  -3.169   0.798  0.00  0.00    +0.000 S 
ATOM      3  C   UNL     1       0.032  -2.047   0.894  0.00  0.00    +0.000 A 
ATOM      4  N   UNL     1      -1.299  -2.171   1.174  0.00  0.00    +0.000 NA
ATOM      5  C   UNL     1      -2.100  -1.073   1.178  0.00  0.00    +0.000 A 
ATOM      6  N   UNL     1      -1.513   0.076   0.900  0.00  0.00    +0.000 NA
ATOM      7  C   UNL     1      -0.216   0.266   0.617  0.00  0.00    +0.000 A 
ATOM      8  C   UNL     1       0.642  -0.857   0.606  0.00  0.00    +0.000 A 
ATOM      9  C   UNL     1       1.960  -0.890   0.350  0.00  0.00    +0.000 A 
ATOM     10  C   UNL     1       2.806   0.333   0.011  0.00  0.00    +0.000 C 
ENDROOT
BRANCH   1  11
ATOM     11  C   UNL     1       3.992  -2.449   0.168  0.00  0.00    +0.000 C 
ATOM     12  O   UNL     1       4.359  -3.645   0.264  0.00  0.00    +0.000 OA
BRANCH  11  13
ATOM     13  O   UNL     1       4.937  -1.497  -0.153  0.00  0.00    +0.000 OA
BRANCH  13  15
ATOM     14  C   UNL     1       6.466  -2.701  -1.556  0.00  0.00    +0.000 C 
ATOM     15  C   UNL     1       6.290  -1.743  -0.385  0.00  0.00    +0.000 C 
ENDBRANCH  13  15
ENDBRANCH  11  13
ENDBRANCH   1  11
BRANCH   5  16
ATOM     16  C   UNL     1      -3.517  -1.275   1.486  0.00  0.00    +0.000 C 
BRANCH  16  17
ATOM     17  C   UNL     1      -4.303  -1.538   0.261  0.00  0.00    +0.000 A 
ATOM     18  C   UNL     1      -4.838  -0.430  -0.386  0.00  0.00    +0.000 A 
ATOM     19  C   UNL     1      -5.572  -0.583  -1.517  0.00  0.00    +0.000 A 
ATOM     20  C   UNL     1      -5.803  -1.855  -2.047  0.00  0.00    +0.000 A 
ATOM     21  C   UNL     1      -5.285  -2.959  -1.425  0.00  0.00    +0.000 A 
ATOM     22  C   UNL     1      -4.540  -2.766  -0.272  0.00  0.00    +0.000 A 
ENDBRANCH  16  17
ENDBRANCH   5  16
BRANCH   7  23
ATOM     23  N   UNL     1       0.266   1.570   0.339  0.00  0.00    +0.000 NA
BRANCH  23  24
ATOM     24  C   UNL     1      -0.657   2.670   0.366  0.00  0.00    +0.000 C 
BRANCH  24  25
ATOM     25  C   UNL     1      -0.006   3.964   0.056  0.00  0.00    +0.000 A 
ATOM     26  C   UNL     1       1.342   3.955  -0.209  0.00  0.00    +0.000 A 
ATOM     27  C   UNL     1       2.003   5.124  -0.504  0.00  0.00    +0.000 A 
ATOM     28  C   UNL     1       1.342   6.323  -0.542  0.00  0.00    +0.000 A 
ATOM     29  C   UNL     1      -0.011   6.321  -0.275  0.00  0.00    +0.000 A 
ATOM     30  C   UNL     1      -0.678   5.157   0.020  0.00  0.00    +0.000 A 
ENDBRANCH  24  25
ENDBRANCH  23  24
ENDBRANCH   7  23
TORSDOF 8
