REMARK  Name = 
REMARK  6 active torsions:
REMARK  status: ('A' for Active; 'I' for Inactive)
REMARK    1  A    between atoms: C_2  and  O_3
REMARK    2  A    between atoms: O_3  and  C_4
REMARK    3  A    between atoms: C_7  and  N_8
REMARK    4  A    between atoms: C_9  and  C_11
REMARK    5  A    between atoms: C_12  and  N_13
REMARK    6  A    between atoms: C_14  and  C_16
REMARK                            x       y       z     vdW  Elec       q    Type
REMARK                         _______ _______ _______ _____ _____    ______ ____
ROOT
ATOM      1  C   UNL     1      -0.953  -1.256   0.453  0.00  0.00    +0.000 A 
ATOM      2  C   UNL     1      -2.178  -0.709   0.250  0.00  0.00    +0.000 A 
ATOM      3  S   UNL     1      -3.209  -2.142   0.401  0.00  0.00    +0.000 S 
ATOM      4  C   UNL     1      -2.033  -3.304   0.713  0.00  0.00    +0.000 A 
ATOM      5  C   UNL     1      -0.881  -2.589   0.694  0.00  0.00    +0.000 A 
ATOM      6  C   UNL     1       0.460  -3.280   0.943  0.00  0.00    +0.000 C 
ATOM      7  C   UNL     1       0.747  -4.232  -0.183  0.00  0.00    +0.000 C 
ATOM      8  C   UNL     1      -0.548  -4.590  -0.875  0.00  0.00    +0.000 C 
ATOM      9  C   UNL     1      -1.374  -5.546  -0.043  0.00  0.00    +0.000 C 
ATOM     10  C   UNL     1      -2.257  -4.789   0.951  0.00  0.00    +0.000 C 
ENDROOT
BRANCH   1  12
ATOM     11  N   UNL     1       1.543  -0.996   0.588  0.00  0.00    +0.000 NA
ATOM     12  C   UNL     1       0.276  -0.440   0.253  0.00  0.00    +0.000 C 
ATOM     13  O   UNL     1       0.288   0.705  -0.190  0.00  0.00    +0.000 OA
BRANCH  11  17
ATOM     14  C   UNL     1       5.128   1.168   0.099  0.00  0.00    +0.000 A 
ATOM     15  C   UNL     1       3.920   1.733  -0.252  0.00  0.00    +0.000 A 
ATOM     16  C   UNL     1       2.737   0.998  -0.083  0.00  0.00    +0.000 A 
ATOM     17  C   UNL     1       2.752  -0.271   0.424  0.00  0.00    +0.000 A 
ATOM     18  C   UNL     1       3.959  -0.824   0.770  0.00  0.00    +0.000 A 
ATOM     19  C   UNL     1       5.138  -0.107   0.608  0.00  0.00    +0.000 A 
BRANCH  14  20
ATOM     20  O   UNL     1       6.286   1.917  -0.078  0.00  0.00    +0.000 OA
BRANCH  20  22
ATOM     21  C   UNL     1       7.898   0.148  -0.512  0.00  0.00    +0.000 C 
ATOM     22  C   UNL     1       7.559   1.400   0.261  0.00  0.00    +0.000 C 
ENDBRANCH  20  22
ENDBRANCH  14  20
ENDBRANCH  11  17
ENDBRANCH   1  12
BRANCH   2  23
ATOM     23  N   UNL     1      -2.810   0.496   0.126  0.00  0.00    +0.000 NA
ATOM     24  C   UNL     1      -2.658   1.815   0.327  0.00  0.00    +0.000 C 
ATOM     25  O   UNL     1      -1.598   2.257   0.831  0.00  0.00    +0.000 OA
BRANCH  24  26
ATOM     26  C   UNL     1      -3.704   2.826  -0.024  0.00  0.00    +0.000 A 
ATOM     27  C   UNL     1      -3.492   4.164   0.202  0.00  0.00    +0.000 A 
ATOM     28  C   UNL     1      -4.502   5.069  -0.144  0.00  0.00    +0.000 A 
ATOM     29  C   UNL     1      -5.691   4.646  -0.701  0.00  0.00    +0.000 A 
ATOM     30  C   UNL     1      -5.901   3.294  -0.927  0.00  0.00    +0.000 A 
ATOM     31  C   UNL     1      -4.899   2.435  -0.580  0.00  0.00    +0.000 A 
ENDBRANCH  24  26
ENDBRANCH   2  23
TORSDOF 6
