REMARK  Name = 
REMARK  8 active torsions:
REMARK  status: ('A' for Active; 'I' for Inactive)
REMARK    1  A    between atoms: O_2  and  C_3
REMARK    2  A    between atoms: C_8  and  C_9
REMARK    3  A    between atoms: C_9  and  C_10
REMARK    4  A    between atoms: C_10  and  N_11
REMARK    5  A    between atoms: C_12  and  C_14
REMARK    6  A    between atoms: C_14  and  N_21
REMARK    7  A    between atoms: C_15  and  C_16
REMARK    8  A    between atoms: C_22  and  C_24
REMARK                            x       y       z     vdW  Elec       q    Type
REMARK                         _______ _______ _______ _____ _____    ______ ____
ROOT
ATOM      1  C   UNL     1       0.722   0.032   0.629  0.00  0.00    +0.000 C 
ATOM      2  C   UNL     1       1.639   0.826   1.070  0.00  0.00    +0.000 C 
ENDROOT
BRANCH   2   3
ATOM      3  C   UNL     1       1.631   1.694   2.199  0.00  0.00    +0.000 A 
ATOM      4  C   UNL     1       1.276   1.451   3.498  0.00  0.00    +0.000 A 
ATOM      5  C   UNL     1       1.434   2.590   4.206  0.00  0.00    +0.000 A 
ATOM      6  C   UNL     1       1.896   3.546   3.323  0.00  0.00    +0.000 A 
ATOM      7  O   UNL     1       1.994   2.983   2.171  0.00  0.00    +0.000 OA
ENDBRANCH   2   3
BRANCH   1   9
ATOM      8  N   UNL     1      -0.949   0.611   2.405  0.00  0.00    +0.000 NA
ATOM      9  C   UNL     1      -0.555  -0.078   1.294  0.00  0.00    +0.000 C 
ATOM     10  O   UNL     1      -1.412  -0.904   0.797  0.00  0.00    +0.000 OA
BRANCH   8  11
ATOM     11  C   UNL     1      -2.019   0.747   3.227  0.00  0.00    +0.000 C 
BRANCH  11  12
ATOM     12  C   UNL     1      -3.290   1.264   2.836  0.00  0.00    +0.000 C 
BRANCH  12  18
ATOM     13  C   UNL     1      -3.881   0.913   0.450  0.00  0.00    +0.000 A 
ATOM     14  C   UNL     1      -4.657   0.322  -0.549  0.00  0.00    +0.000 A 
ATOM     15  C   UNL     1      -5.671  -0.535  -0.223  0.00  0.00    +0.000 A 
ATOM     16  C   UNL     1      -5.911  -0.806   1.128  0.00  0.00    +0.000 A 
ATOM     17  C   UNL     1      -5.136  -0.215   2.074  0.00  0.00    +0.000 A 
ATOM     18  C   UNL     1      -4.093   0.665   1.798  0.00  0.00    +0.000 A 
BRANCH  13  20
ATOM     19  C   UNL     1      -2.683   1.998  -1.336  0.00  0.00    +0.000 C 
ATOM     20  O   UNL     1      -2.857   1.782   0.071  0.00  0.00    +0.000 OA
ENDBRANCH  13  20
ENDBRANCH  12  18
ENDBRANCH  11  12
ENDBRANCH   8  11
ENDBRANCH   1   9
BRANCH   1  21
ATOM     21  N   UNL     1       0.948  -0.777  -0.562  0.00  0.00    +0.000 NA
ATOM     22  C   UNL     1       2.177  -0.668  -1.229  0.00  0.00    +0.000 C 
ATOM     23  O   UNL     1       3.012   0.141  -0.730  0.00  0.00    +0.000 OA
BRANCH  22  24
ATOM     24  C   UNL     1       2.557  -1.397  -2.426  0.00  0.00    +0.000 A 
ATOM     25  C   UNL     1       1.812  -2.478  -2.884  0.00  0.00    +0.000 A 
ATOM     26  C   UNL     1       2.159  -3.174  -4.019  0.00  0.00    +0.000 A 
ATOM     27  C   UNL     1       3.278  -2.824  -4.762  0.00  0.00    +0.000 A 
ATOM     28  C   UNL     1       3.670  -3.559  -5.991  0.00  0.00    +0.000 C 
ATOM     29  C   UNL     1       4.021  -1.731  -4.288  0.00  0.00    +0.000 A 
ATOM     30  C   UNL     1       5.221  -1.375  -5.110  0.00  0.00    +0.000 C 
ATOM     31  C   UNL     1       3.667  -1.044  -3.158  0.00  0.00    +0.000 A 
ENDBRANCH  22  24
ENDBRANCH   1  21
TORSDOF 8
