REMARK  Name = 
REMARK  6 active torsions:
REMARK  status: ('A' for Active; 'I' for Inactive)
REMARK    1  A    between atoms: O_2  and  C_3
REMARK    2  A    between atoms: C_6  and  C_7
REMARK    3  A    between atoms: C_9  and  C_10
REMARK    4  A    between atoms: N_12  and  C_13
REMARK    5  A    between atoms: C_13  and  C_15
REMARK    6  A    between atoms: C_23  and  C_24
REMARK                            x       y       z     vdW  Elec       q    Type
REMARK                         _______ _______ _______ _____ _____    ______ ____
ROOT
ATOM      1  C   UNL     1      -2.252  -0.322  -0.334  0.00  0.00    +0.000 A 
ATOM      2  C   UNL     1      -0.906  -0.684  -0.452  0.00  0.00    +0.000 A 
ATOM      3  C   UNL     1       0.099   0.233  -0.376  0.00  0.00    +0.000 A 
ATOM      4  C   UNL     1      -0.224   1.564  -0.180  0.00  0.00    +0.000 A 
ATOM      5  C   UNL     1       0.775   2.518  -0.111  0.00  0.00    +0.000 A 
ATOM      6  C   UNL     1       0.394   3.845   0.074  0.00  0.00    +0.000 A 
ATOM      7  C   UNL     1      -0.940   4.211   0.185  0.00  0.00    +0.000 A 
ATOM      8  C   UNL     1      -1.900   3.234   0.114  0.00  0.00    +0.000 A 
ATOM      9  C   UNL     1      -1.566   1.903  -0.072  0.00  0.00    +0.000 A 
ATOM     10  N   UNL     1      -2.510   0.954  -0.150  0.00  0.00    +0.000 NA
ENDROOT
BRANCH   1  14
ATOM     11  C   UNL     1      -5.247  -3.219  -0.338  0.00  0.00    +0.000 A 
ATOM     12  C   UNL     1      -5.542  -1.908  -0.062  0.00  0.00    +0.000 A 
ATOM     13  C   UNL     1      -4.603  -0.917  -0.061  0.00  0.00    +0.000 A 
ATOM     14  C   UNL     1      -3.267  -1.341  -0.367  0.00  0.00    +0.000 A 
ATOM     15  C   UNL     1      -2.961  -2.618  -0.641  0.00  0.00    +0.000 A 
ATOM     16  C   UNL     1      -3.945  -3.615  -0.637  0.00  0.00    +0.000 A 
BRANCH  11  18
ATOM     17  C   UNL     1      -7.591  -3.697   0.003  0.00  0.00    +0.000 C 
ATOM     18  O   UNL     1      -6.290  -4.121  -0.306  0.00  0.00    +0.000 OA
ENDBRANCH  11  18
ENDBRANCH   1  14
BRANCH   3  19
ATOM     19  C   UNL     1       1.534  -0.194  -0.319  0.00  0.00    +0.000 C 
ATOM     20  O   UNL     1       2.055  -0.672  -1.375  0.00  0.00    +0.000 OA
ATOM     21  N   UNL     1       2.244  -0.080   0.840  0.00  0.00    +0.000 NA
BRANCH  21  22
ATOM     22  C   UNL     1       3.596  -0.371   1.299  0.00  0.00    +0.000 C 
ATOM     23  C   UNL     1       3.273  -1.739   2.134  0.00  0.00    +0.000 C 
BRANCH  22  24
ATOM     24  C   UNL     1       4.373  -0.913   0.129  0.00  0.00    +0.000 A 
ATOM     25  C   UNL     1       4.697  -0.125  -0.964  0.00  0.00    +0.000 A 
ATOM     26  C   UNL     1       5.431  -0.583  -2.018  0.00  0.00    +0.000 A 
ATOM     27  C   UNL     1       5.896  -1.917  -2.032  0.00  0.00    +0.000 A 
ATOM     28  C   UNL     1       5.556  -2.703  -0.919  0.00  0.00    +0.000 A 
ATOM     29  C   UNL     1       4.821  -2.208   0.116  0.00  0.00    +0.000 A 
ENDBRANCH  22  24
ENDBRANCH  21  22
ENDBRANCH   3  19
BRANCH   6  30
ATOM     30  C   UNL     1       1.481   4.849   0.133  0.00  0.00    +0.000 C 
ATOM     31  C   UNL     1       0.934   6.221   0.493  0.00  0.00    +0.000 C 
ATOM     32  C   UNL     1       2.586   4.414   1.057  0.00  0.00    +0.000 C 
ENDBRANCH   6  30
TORSDOF 6
