REMARK  Name = 
REMARK  9 active torsions:
REMARK  status: ('A' for Active; 'I' for Inactive)
REMARK    1  A    between atoms: C_2  and  O_3
REMARK    2  A    between atoms: O_3  and  C_4
REMARK    3  A    between atoms: C_4  and  C_6
REMARK    4  A    between atoms: C_9  and  N_10
REMARK    5  A    between atoms: N_10  and  C_11
REMARK    6  A    between atoms: C_11  and  C_12
REMARK    7  A    between atoms: C_11  and  C_22
REMARK    8  A    between atoms: C_15  and  O_16
REMARK    9  A    between atoms: C_18  and  O_19
REMARK                            x       y       z     vdW  Elec       q    Type
REMARK                         _______ _______ _______ _____ _____    ______ ____
ROOT
ATOM      1  C   UNL     1      -0.687   0.070  -1.138  0.00  0.00    +0.000 C 
ENDROOT
BRANCH   1   2
ATOM      2  C   UNL     1      -1.134  -0.544   0.282  0.00  0.00    +0.000 A 
ATOM      3  C   UNL     1      -0.898  -0.068   1.498  0.00  0.00    +0.000 A 
ATOM      4  C   UNL     1      -0.131   1.156   1.843  0.00  0.00    +0.000 C 
ATOM      5  N   UNL     1      -1.482  -0.919   2.370  0.00  0.00    +0.000 NA
ATOM      6  C   UNL     1      -2.076  -1.917   1.677  0.00  0.00    +0.000 A 
ATOM      7  C   UNL     1      -2.800  -3.031   2.078  0.00  0.00    +0.000 A 
ATOM      8  C   UNL     1      -3.313  -3.920   1.168  0.00  0.00    +0.000 A 
ATOM      9  C   UNL     1      -3.094  -3.685  -0.161  0.00  0.00    +0.000 A 
ATOM     10  C   UNL     1      -2.374  -2.583  -0.610  0.00  0.00    +0.000 A 
ATOM     11  C   UNL     1      -1.871  -1.708   0.330  0.00  0.00    +0.000 A 
ENDBRANCH   1   2
BRANCH   1  12
ATOM     12  C   UNL     1      -1.803   1.234  -1.140  0.00  0.00    +0.000 A 
ATOM     13  C   UNL     1      -2.568   1.291  -2.285  0.00  0.00    +0.000 A 
ATOM     14  C   UNL     1      -3.539   2.269  -2.345  0.00  0.00    +0.000 A 
ATOM     15  C   UNL     1      -3.731   3.148  -1.302  0.00  0.00    +0.000 A 
ATOM     16  C   UNL     1      -2.934   3.030  -0.198  0.00  0.00    +0.000 A 
ATOM     17  C   UNL     1      -1.964   2.056  -0.133  0.00  0.00    +0.000 A 
BRANCH  15  18
ATOM     18  O   UNL     1      -4.709   4.147  -1.341  0.00  0.00    +0.000 OA
ATOM     19  C   UNL     1      -5.558   4.315  -2.452  0.00  0.00    +0.000 C 
ENDBRANCH  15  18
BRANCH  16  20
ATOM     20  O   UNL     1      -3.114   3.907   0.861  0.00  0.00    +0.000 OA
ATOM     21  C   UNL     1      -2.316   3.834   2.038  0.00  0.00    +0.000 C 
ENDBRANCH  16  20
ENDBRANCH   1  12
BRANCH   1  22
ATOM     22  N   UNL     1       0.517   0.926  -0.576  0.00  0.00    +0.000 NA
BRANCH  22  26
ATOM     23  C   UNL     1       4.149  -1.224  -0.133  0.00  0.00    +0.000 A 
ATOM     24  C   UNL     1       4.054   0.113   0.187  0.00  0.00    +0.000 A 
ATOM     25  C   UNL     1       2.869   0.784   0.034  0.00  0.00    +0.000 A 
ATOM     26  C   UNL     1       1.729   0.184  -0.435  0.00  0.00    +0.000 A 
ATOM     27  C   UNL     1       1.817  -1.150  -0.756  0.00  0.00    +0.000 A 
ATOM     28  C   UNL     1       3.020  -1.837  -0.603  0.00  0.00    +0.000 A 
BRANCH  23  29
ATOM     29  C   UNL     1       5.390  -1.976   0.013  0.00  0.00    +0.000 C 
ATOM     30  O   UNL     1       5.430  -3.177  -0.286  0.00  0.00    +0.000 OA
BRANCH  29  31
ATOM     31  O   UNL     1       6.560  -1.382   0.489  0.00  0.00    +0.000 OA
BRANCH  31  33
ATOM     32  C   UNL     1       8.816  -1.215   1.152  0.00  0.00    +0.000 C 
ATOM     33  C   UNL     1       7.747  -2.128   0.623  0.00  0.00    +0.000 C 
ENDBRANCH  31  33
ENDBRANCH  29  31
ENDBRANCH  23  29
ENDBRANCH  22  26
ENDBRANCH   1  22
TORSDOF 9
