REMARK  Name = 
REMARK  6 active torsions:
REMARK  status: ('A' for Active; 'I' for Inactive)
REMARK    1  A    between atoms: C_2  and  O_3
REMARK    2  A    between atoms: O_3  and  C_4
REMARK    3  A    between atoms: C_7  and  C_8
REMARK    4  A    between atoms: C_17  and  N_18
REMARK    5  A    between atoms: N_18  and  C_19
REMARK    6  A    between atoms: C_27  and  C_28
REMARK                            x       y       z     vdW  Elec       q    Type
REMARK                         _______ _______ _______ _____ _____    ______ ____
ROOT
ATOM      1  C   UNL     1      -1.550  -1.312  -0.300  0.00  0.00    +0.000 C 
ATOM      2  O   UNL     1      -1.558  -2.527  -0.735  0.00  0.00    +0.000 OA
ATOM      3  N   UNL     1      -0.338  -0.909   0.226  0.00  0.00    +0.000 N 
ATOM      4  C   UNL     1       0.711  -1.770   0.570  0.00  0.00    +0.000 A 
ATOM      5  C   UNL     1       0.398  -3.140   0.436  0.00  0.00    +0.000 A 
ATOM      6  C   UNL     1       1.310  -4.115   0.771  0.00  0.00    +0.000 A 
ATOM      7  C   UNL     1       2.546  -3.729   1.244  0.00  0.00    +0.000 A 
ATOM      8  C   UNL     1       2.853  -2.384   1.375  0.00  0.00    +0.000 A 
ATOM      9  C   UNL     1       1.895  -1.455   1.021  0.00  0.00    +0.000 A 
ATOM     10  C   UNL     1       2.346   0.072   1.187  0.00  0.00    +0.000 C 
ATOM     11  C   UNL     1       1.565   0.687  -0.207  0.00  0.00    +0.000 C 
ATOM     12  C   UNL     1       1.678  -0.547  -1.183  0.00  0.00    +0.000 C 
ATOM     13  C   UNL     1       0.035   0.547   0.491  0.00  0.00    +0.000 C 
ENDROOT
BRANCH   1  17
ATOM     14  C   UNL     1      -5.378   0.567  -0.731  0.00  0.00    +0.000 A 
ATOM     15  C   UNL     1      -5.120  -0.675  -1.267  0.00  0.00    +0.000 A 
ATOM     16  C   UNL     1      -3.881  -1.232  -1.120  0.00  0.00    +0.000 A 
ATOM     17  C   UNL     1      -2.813  -0.616  -0.443  0.00  0.00    +0.000 A 
ATOM     18  C   UNL     1      -3.114   0.621   0.076  0.00  0.00    +0.000 A 
ATOM     19  C   UNL     1      -4.347   1.205  -0.055  0.00  0.00    +0.000 A 
BRANCH  14  20
ATOM     20  O   UNL     1      -6.627   1.131  -0.877  0.00  0.00    +0.000 OA
BRANCH  20  22
ATOM     21  C   UNL     1      -8.340   2.735  -0.661  0.00  0.00    +0.000 C 
ATOM     22  C   UNL     1      -6.916   2.403  -0.337  0.00  0.00    +0.000 C 
ENDBRANCH  20  22
ENDBRANCH  14  20
ENDBRANCH   1  17
BRANCH  13  23
ATOM     23  C   UNL     1      -0.694   1.232  -0.826  0.00  0.00    +0.000 C 
ATOM     24  C   UNL     1      -0.124   0.665  -2.043  0.00  0.00    +0.000 C 
ENDBRANCH  13  23
BRANCH  10  25
ATOM     25  N   UNL     1       3.695  -0.116   0.390  0.00  0.00    +0.000 NA
BRANCH  25  26
ATOM     26  C   UNL     1       4.496   1.015   0.255  0.00  0.00    +0.000 A 
ATOM     27  C   UNL     1       5.685   0.897  -0.434  0.00  0.00    +0.000 A 
ATOM     28  C   UNL     1       6.471   2.011  -0.565  0.00  0.00    +0.000 A 
ATOM     29  C   UNL     1       6.092   3.203  -0.031  0.00  0.00    +0.000 A 
ATOM     30  C   UNL     1       4.905   3.335   0.660  0.00  0.00    +0.000 A 
ATOM     31  C   UNL     1       4.119   2.203   0.787  0.00  0.00    +0.000 A 
ENDBRANCH  25  26
ENDBRANCH  10  25
TORSDOF 6
