REMARK  Name = 
REMARK  6 active torsions:
REMARK  status: ('A' for Active; 'I' for Inactive)
REMARK    1  A    between atoms: C_2  and  O_3
REMARK    2  A    between atoms: O_3  and  C_4
REMARK    3  A    between atoms: C_7  and  C_8
REMARK    4  A    between atoms: C_10  and  C_11
REMARK    5  A    between atoms: N_13  and  N_14
REMARK    6  A    between atoms: C_15  and  C_17
REMARK                            x       y       z     vdW  Elec       q    Type
REMARK                         _______ _______ _______ _____ _____    ______ ____
ROOT
ATOM      1  C   UNL     1      -2.422  -0.709  -0.117  0.00  0.00    +0.000 A 
ATOM      2  C   UNL     1      -1.189  -0.178   0.279  0.00  0.00    +0.000 A 
ATOM      3  C   UNL     1      -0.038  -0.757  -0.198  0.00  0.00    +0.000 A 
ATOM      4  C   UNL     1      -0.175  -1.836  -1.046  0.00  0.00    +0.000 A 
ATOM      5  C   UNL     1       0.957  -2.430  -1.536  0.00  0.00    +0.000 A 
ATOM      6  C   UNL     1       0.905  -3.525  -2.398  0.00  0.00    +0.000 A 
ATOM      7  C   UNL     1      -0.306  -4.036  -2.779  0.00  0.00    +0.000 A 
ATOM      8  C   UNL     1      -1.461  -3.448  -2.294  0.00  0.00    +0.000 A 
ATOM      9  C   UNL     1      -1.391  -2.353  -1.432  0.00  0.00    +0.000 A 
ATOM     10  N   UNL     1      -2.491  -1.761  -0.945  0.00  0.00    +0.000 NA
ENDROOT
BRANCH   1  14
ATOM     11  C   UNL     1      -6.099   0.932   1.244  0.00  0.00    +0.000 A 
ATOM     12  C   UNL     1      -6.070  -0.141   0.398  0.00  0.00    +0.000 A 
ATOM     13  C   UNL     1      -4.864  -0.650  -0.025  0.00  0.00    +0.000 A 
ATOM     14  C   UNL     1      -3.659  -0.124   0.367  0.00  0.00    +0.000 A 
ATOM     15  C   UNL     1      -3.700   0.958   1.221  0.00  0.00    +0.000 A 
ATOM     16  C   UNL     1      -4.908   1.480   1.655  0.00  0.00    +0.000 A 
BRANCH  11  17
ATOM     17  O   UNL     1      -7.281   1.470   1.691  0.00  0.00    +0.000 OA
BRANCH  17  19
ATOM     18  C   UNL     1      -6.621   3.776   1.961  0.00  0.00    +0.000 C 
ATOM     19  C   UNL     1      -7.294   2.569   2.557  0.00  0.00    +0.000 C 
ENDBRANCH  17  19
ENDBRANCH  11  17
ENDBRANCH   1  14
BRANCH   3  20
ATOM     20  C   UNL     1       1.296  -0.252   0.176  0.00  0.00    +0.000 C 
ATOM     21  O   UNL     1       1.379   0.733   0.951  0.00  0.00    +0.000 OA
ATOM     22  N   UNL     1       2.486  -0.833  -0.304  0.00  0.00    +0.000 NA
BRANCH  22  23
ATOM     23  N   UNL     1       3.768  -0.383   0.027  0.00  0.00    +0.000 NA
ATOM     24  C   UNL     1       4.178   0.821  -0.203  0.00  0.00    +0.000 C 
ATOM     25  C   UNL     1       3.229   1.747  -0.846  0.00  0.00    +0.000 C 
BRANCH  24  26
ATOM     26  C   UNL     1       5.534   1.252   0.161  0.00  0.00    +0.000 A 
ATOM     27  C   UNL     1       6.034   2.517  -0.056  0.00  0.00    +0.000 A 
ATOM     28  C   UNL     1       7.347   2.535   0.423  0.00  0.00    +0.000 A 
ATOM     29  C   UNL     1       7.555   1.257   0.904  0.00  0.00    +0.000 A 
ATOM     30  C   UNL     1       8.842   0.831   1.513  0.00  0.00    +0.000 C 
ATOM     31  O   UNL     1       6.460   0.537   0.728  0.00  0.00    +0.000 OA
ENDBRANCH  24  26
ENDBRANCH  22  23
ENDBRANCH   3  20
TORSDOF 6
