REMARK  Name = 
REMARK  5 active torsions:
REMARK  status: ('A' for Active; 'I' for Inactive)
REMARK    1  A    between atoms: C_6  and  N_7
REMARK    2  A    between atoms: N_8  and  C_9
REMARK    3  A    between atoms: C_11  and  C_12
REMARK    4  A    between atoms: N_14  and  C_15
REMARK    5  A    between atoms: C_20  and  N_21
REMARK                            x       y       z     vdW  Elec       q    Type
REMARK                         _______ _______ _______ _____ _____    ______ ____
ROOT
ATOM      1  C   UNL     1       1.563  -0.873   0.003  0.00  0.00    +0.000 A 
ATOM      2  C   UNL     1       0.495  -0.199   0.582  0.00  0.00    +0.000 A 
ATOM      3  C   UNL     1      -0.743  -0.220  -0.010  0.00  0.00    +0.000 A 
ATOM      4  C   UNL     1      -0.922  -0.915  -1.186  0.00  0.00    +0.000 A 
ATOM      5  O   UNL     1      -2.158  -0.936  -1.779  0.00  0.00    +0.000 OA
ATOM      6  C   UNL     1       0.120  -1.609  -1.810  0.00  0.00    +0.000 A 
ATOM      7  C   UNL     1      -0.077  -2.295  -2.981  0.00  0.00    +0.000 A 
ATOM      8  C   UNL     1       0.986  -2.960  -3.549  0.00  0.00    +0.000 A 
ATOM      9  C   UNL     1       2.205  -2.906  -2.914  0.00  0.00    +0.000 A 
ATOM     10  C   UNL     1       2.412  -2.219  -1.736  0.00  0.00    +0.000 A 
ATOM     11  C   UNL     1       1.347  -1.562  -1.182  0.00  0.00    +0.000 A 
ENDROOT
BRANCH   3  12
ATOM     12  C   UNL     1      -1.890   0.471   0.562  0.00  0.00    +0.000 C 
ATOM     13  O   UNL     1      -1.718   1.103   1.635  0.00  0.00    +0.000 OA
ATOM     14  N   UNL     1      -3.155   0.450  -0.043  0.00  0.00    +0.000 NA
BRANCH  14  15
ATOM     15  C   UNL     1      -4.253   1.128   0.529  0.00  0.00    +0.000 A 
ATOM     16  C   UNL     1      -4.107   1.826   1.696  0.00  0.00    +0.000 A 
ATOM     17  C   UNL     1      -5.188   2.494   2.261  0.00  0.00    +0.000 A 
ATOM     18  C   UNL     1      -6.414   2.462   1.656  0.00  0.00    +0.000 A 
ATOM     19  C   UNL     1      -6.556   1.756   0.478  0.00  0.00    +0.000 A 
ATOM     20  C   UNL     1      -5.472   1.081  -0.096  0.00  0.00    +0.000 A 
BRANCH  20  21
ATOM     21  N   UNL     1      -5.706   0.387  -1.295  0.00  0.00    +0.000 N 
ATOM     22  C   UNL     1      -5.005   0.697  -2.513  0.00  0.00    +0.000 C 
ATOM     23  C   UNL     1      -6.696  -0.679  -1.294  0.00  0.00    +0.000 C 
ENDBRANCH  20  21
ENDBRANCH  14  15
ENDBRANCH   3  12
BRANCH   1  25
ATOM     24  N   UNL     1       3.580   0.158   0.440  0.00  0.00    +0.000 NA
ATOM     25  N   UNL     1       2.854  -0.869   0.593  0.00  0.00    +0.000 NA
BRANCH  24  31
ATOM     26  C   UNL     1       7.511   2.753   2.046  0.00  0.00    +0.000 C 
ATOM     27  C   UNL     1       6.807   1.476   1.791  0.00  0.00    +0.000 A 
ATOM     28  C   UNL     1       7.409   0.266   2.101  0.00  0.00    +0.000 A 
ATOM     29  C   UNL     1       6.798  -0.951   1.883  0.00  0.00    +0.000 A 
ATOM     30  C   UNL     1       5.533  -0.949   1.333  0.00  0.00    +0.000 A 
ATOM     31  C   UNL     1       4.899   0.230   1.011  0.00  0.00    +0.000 A 
ATOM     32  C   UNL     1       5.540   1.404   1.243  0.00  0.00    +0.000 A 
ENDBRANCH  24  31
ENDBRANCH   1  25
TORSDOF 5
