REMARK  Name = 
REMARK  9 active torsions:
REMARK  status: ('A' for Active; 'I' for Inactive)
REMARK    1  A    between atoms: C_2  and  C_3
REMARK    2  A    between atoms: C_3  and  C_4
REMARK    3  A    between atoms: C_4  and  C_5
REMARK    4  A    between atoms: C_5  and  C_6
REMARK    5  A    between atoms: C_6  and  O_7
REMARK    6  A    between atoms: O_7  and  C_8
REMARK    7  A    between atoms: C_8  and  C_10
REMARK    8  A    between atoms: N_13  and  C_14
REMARK    9  A    between atoms: C_14  and  C_15
REMARK                            x       y       z     vdW  Elec       q    Type
REMARK                         _______ _______ _______ _____ _____    ______ ____
ROOT
ATOM      1  C   UNL     1       0.628  -0.039  -0.605  0.00  0.00    +0.000 A 
ATOM      2  C   UNL     1      -0.286  -0.926  -1.132  0.00  0.00    +0.000 A 
ATOM      3  N   UNL     1       0.016  -2.281  -1.451  0.00  0.00    +0.000 NA
ATOM      4  N   UNL     1      -1.484  -0.338  -1.300  0.00  0.00    +0.000 N 
ATOM      5  C   UNL     1      -1.365   0.935  -0.885  0.00  0.00    +0.000 A 
ATOM      6  N   UNL     1      -2.219   1.969  -0.821  0.00  0.00    +0.000 NA
ATOM      7  C   UNL     1      -1.821   3.171  -0.347  0.00  0.00    +0.000 A 
ATOM      8  C   UNL     1      -2.666   4.259  -0.264  0.00  0.00    +0.000 A 
ATOM      9  C   UNL     1      -2.225   5.471   0.225  0.00  0.00    +0.000 A 
ATOM     10  C   UNL     1      -0.921   5.627   0.645  0.00  0.00    +0.000 A 
ATOM     11  C   UNL     1      -0.066   4.546   0.568  0.00  0.00    +0.000 A 
ATOM     12  C   UNL     1      -0.513   3.342   0.079  0.00  0.00    +0.000 A 
ATOM     13  N   UNL     1       0.353   2.331   0.025  0.00  0.00    +0.000 NA
ATOM     14  C   UNL     1      -0.062   1.142  -0.449  0.00  0.00    +0.000 A 
ENDROOT
BRANCH   1  15
ATOM     15  C   UNL     1       2.036  -0.268  -0.269  0.00  0.00    +0.000 C 
ATOM     16  O   UNL     1       2.716   0.653   0.201  0.00  0.00    +0.000 OA
BRANCH  15  17
ATOM     17  O   UNL     1       2.640  -1.501  -0.465  0.00  0.00    +0.000 OA
BRANCH  17  18
ATOM     18  C   UNL     1       3.979  -1.708  -0.142  0.00  0.00    +0.000 C 
BRANCH  18  19
ATOM     19  C   UNL     1       4.409  -3.125  -0.443  0.00  0.00    +0.000 C 
BRANCH  19  20
ATOM     20  C   UNL     1       5.840  -3.384  -0.110  0.00  0.00    +0.000 C 
BRANCH  20  21
ATOM     21  C   UNL     1       6.154  -3.161   1.353  0.00  0.00    +0.000 C 
BRANCH  21  23
ATOM     22  C   UNL     1       6.152  -1.485   3.173  0.00  0.00    +0.000 C 
ATOM     23  C   UNL     1       5.851  -1.731   1.732  0.00  0.00    +0.000 C 
ENDBRANCH  21  23
ENDBRANCH  20  21
ENDBRANCH  19  20
ENDBRANCH  18  19
ENDBRANCH  17  18
ENDBRANCH  15  17
ENDBRANCH   1  15
BRANCH   4  24
ATOM     24  C   UNL     1      -2.687  -0.987  -1.839  0.00  0.00    +0.000 C 
BRANCH  24  25
ATOM     25  C   UNL     1      -3.399  -1.565  -0.648  0.00  0.00    +0.000 A 
ATOM     26  C   UNL     1      -4.340  -0.825   0.045  0.00  0.00    +0.000 A 
ATOM     27  C   UNL     1      -5.003  -1.326   1.133  0.00  0.00    +0.000 A 
ATOM     28  C   UNL     1      -4.754  -2.605   1.585  0.00  0.00    +0.000 A 
ATOM     29  C   UNL     1      -3.816  -3.346   0.896  0.00  0.00    +0.000 A 
ATOM     30  C   UNL     1      -3.146  -2.844  -0.200  0.00  0.00    +0.000 A 
ENDBRANCH  24  25
ENDBRANCH   4  24
TORSDOF 9
