REMARK  Name = 
REMARK  8 active torsions:
REMARK  status: ('A' for Active; 'I' for Inactive)
REMARK    1  A    between atoms: C_2  and  C_17
REMARK    2  A    between atoms: N_3  and  C_4
REMARK    3  A    between atoms: C_4  and  C_5
REMARK    4  A    between atoms: C_5  and  O_6
REMARK    5  A    between atoms: O_6  and  C_7
REMARK    6  A    between atoms: C_22  and  S_23
REMARK    7  A    between atoms: S_23  and  C_24
REMARK    8  A    between atoms: C_24  and  C_25
REMARK                            x       y       z     vdW  Elec       q    Type
REMARK                         _______ _______ _______ _____ _____    ______ ____
ROOT
ATOM      1  O   UNL     1      -1.210   0.885   1.913  0.00  0.00    +0.000 OA
ATOM      2  C   UNL     1      -0.811   1.325   0.787  0.00  0.00    +0.000 C 
ATOM      3  N   UNL     1       0.524   1.819   0.746  0.00  0.00    +0.000 NA
ENDROOT
BRANCH   2   4
ATOM      4  C   UNL     1      -1.679   1.322  -0.391  0.00  0.00    +0.000 A 
ATOM      5  C   UNL     1      -1.677   2.336  -1.314  0.00  0.00    +0.000 A 
ATOM      6  C   UNL     1      -2.512   2.308  -2.422  0.00  0.00    +0.000 A 
ATOM      7  C   UNL     1      -3.352   1.230  -2.582  0.00  0.00    +0.000 A 
ATOM      8  C   UNL     1      -3.350   0.222  -1.663  0.00  0.00    +0.000 A 
ATOM      9  C   UNL     1      -2.521   0.251  -0.561  0.00  0.00    +0.000 A 
BRANCH   9  10
ATOM     10  S   UNL     1      -2.521  -1.072   0.641  0.00  0.00    +0.000 S 
BRANCH  10  11
ATOM     11  C   UNL     1      -3.692  -2.364   0.223  0.00  0.00    +0.000 C 
BRANCH  11  12
ATOM     12  C   UNL     1      -5.098  -1.917   0.288  0.00  0.00    +0.000 A 
ATOM     13  C   UNL     1      -5.867  -2.002   1.425  0.00  0.00    +0.000 A 
ATOM     14  C   UNL     1      -7.173  -1.554   1.376  0.00  0.00    +0.000 A 
ATOM     15  C   UNL     1      -7.744  -1.027   0.248  0.00  0.00    +0.000 A 
ATOM     16  C   UNL     1      -6.964  -0.944  -0.890  0.00  0.00    +0.000 A 
ATOM     17  C   UNL     1      -5.662  -1.387  -0.855  0.00  0.00    +0.000 A 
ENDBRANCH  11  12
ENDBRANCH  10  11
ENDBRANCH   9  10
ENDBRANCH   2   4
BRANCH   3  18
ATOM     18  C   UNL     1       1.352   1.799   1.961  0.00  0.00    +0.000 C 
BRANCH  18  19
ATOM     19  C   UNL     1       1.484   0.366   2.418  0.00  0.00    +0.000 C 
BRANCH  19  20
ATOM     20  O   UNL     1       2.097  -0.378   1.386  0.00  0.00    +0.000 OA
BRANCH  20  21
ATOM     21  C   UNL     1       3.368  -0.042   0.936  0.00  0.00    +0.000 A 
ATOM     22  C   UNL     1       4.117   0.999   1.430  0.00  0.00    +0.000 A 
ATOM     23  C   UNL     1       5.388   1.287   0.937  0.00  0.00    +0.000 A 
ATOM     24  C   UNL     1       5.949   0.535  -0.072  0.00  0.00    +0.000 A 
ATOM     25  C   UNL     1       5.203  -0.512  -0.574  0.00  0.00    +0.000 A 
ATOM     26  C   UNL     1       3.945  -0.801  -0.089  0.00  0.00    +0.000 A 
ATOM     27  C   UNL     1       5.827  -1.314  -1.667  0.00  0.00    +0.000 C 
ATOM     28  C   UNL     1       7.268  -1.621  -1.380  0.00  0.00    +0.000 C 
ATOM     29  C   UNL     1       8.012  -0.541  -0.671  0.00  0.00    +0.000 C 
ATOM     30  C   UNL     1       7.300   0.791  -0.639  0.00  0.00    +0.000 C 
ENDBRANCH  20  21
ENDBRANCH  19  20
ENDBRANCH  18  19
ENDBRANCH   3  18
TORSDOF 8
