REMARK  Name = 
REMARK  8 active torsions:
REMARK  status: ('A' for Active; 'I' for Inactive)
REMARK    1  A    between atoms: O_2  and  C_3
REMARK    2  A    between atoms: C_7  and  C_8
REMARK    3  A    between atoms: C_10  and  C_11
REMARK    4  A    between atoms: N_13  and  C_14
REMARK    5  A    between atoms: C_14  and  C_15
REMARK    6  A    between atoms: C_15  and  C_16
REMARK    7  A    between atoms: C_19  and  O_20
REMARK    8  A    between atoms: C_22  and  O_23
REMARK                            x       y       z     vdW  Elec       q    Type
REMARK                         _______ _______ _______ _____ _____    ______ ____
ROOT
ATOM      1  C   UNL     1      -2.936  -0.045  -0.780  0.00  0.00    +0.000 A 
ATOM      2  C   UNL     1      -2.221   0.067   0.393  0.00  0.00    +0.000 A 
ATOM      3  C   UNL     1      -0.953  -0.462   0.526  0.00  0.00    +0.000 A 
ATOM      4  C   UNL     1      -0.435  -1.106  -0.564  0.00  0.00    +0.000 A 
ATOM      5  C   UNL     1       0.826  -1.647  -0.464  0.00  0.00    +0.000 A 
ATOM      6  C   UNL     1       1.337  -2.295  -1.567  0.00  0.00    +0.000 A 
ATOM      7  C   UNL     1       0.653  -2.427  -2.757  0.00  0.00    +0.000 A 
ATOM      8  C   UNL     1      -0.609  -1.882  -2.848  0.00  0.00    +0.000 A 
ATOM      9  C   UNL     1      -1.145  -1.228  -1.760  0.00  0.00    +0.000 A 
ATOM     10  N   UNL     1      -2.395  -0.684  -1.831  0.00  0.00    +0.000 NA
ENDROOT
BRANCH   1  15
ATOM     11  C   UNL     1      -6.288   0.968  -2.162  0.00  0.00    +0.000 A 
ATOM     12  C   UNL     1      -6.836   1.622  -1.080  0.00  0.00    +0.000 A 
ATOM     13  C   UNL     1      -6.121   1.732   0.088  0.00  0.00    +0.000 A 
ATOM     14  C   UNL     1      -4.840   1.184   0.185  0.00  0.00    +0.000 A 
ATOM     15  C   UNL     1      -4.269   0.524  -0.883  0.00  0.00    +0.000 A 
ATOM     16  C   UNL     1      -5.011   0.431  -2.039  0.00  0.00    +0.000 A 
BRANCH  11  18
ATOM     17  C   UNL     1      -8.307   1.430  -3.391  0.00  0.00    +0.000 C 
ATOM     18  O   UNL     1      -7.018   0.868  -3.322  0.00  0.00    +0.000 OA
ENDBRANCH  11  18
ENDBRANCH   1  15
BRANCH   3  19
ATOM     19  C   UNL     1      -0.253  -0.306   1.787  0.00  0.00    +0.000 C 
ATOM     20  O   UNL     1      -0.826   0.252   2.761  0.00  0.00    +0.000 OA
ATOM     21  N   UNL     1       1.084  -0.748   2.033  0.00  0.00    +0.000 NA
BRANCH  21  22
ATOM     22  C   UNL     1       1.699  -0.548   3.340  0.00  0.00    +0.000 C 
BRANCH  22  23
ATOM     23  C   UNL     1       3.087  -1.059   3.414  0.00  0.00    +0.000 C 
BRANCH  23  24
ATOM     24  C   UNL     1       3.934  -0.350   2.424  0.00  0.00    +0.000 A 
ATOM     25  C   UNL     1       4.524   0.834   2.890  0.00  0.00    +0.000 A 
ATOM     26  C   UNL     1       5.332   1.581   2.094  0.00  0.00    +0.000 A 
ATOM     27  C   UNL     1       5.570   1.162   0.811  0.00  0.00    +0.000 A 
ATOM     28  C   UNL     1       4.992  -0.009   0.338  0.00  0.00    +0.000 A 
ATOM     29  C   UNL     1       4.174  -0.758   1.153  0.00  0.00    +0.000 A 
BRANCH  27  30
ATOM     30  O   UNL     1       6.379   1.869  -0.056  0.00  0.00    +0.000 OA
ATOM     31  C   UNL     1       6.976   3.063   0.409  0.00  0.00    +0.000 C 
ENDBRANCH  27  30
BRANCH  28  32
ATOM     32  O   UNL     1       5.248  -0.417  -0.970  0.00  0.00    +0.000 OA
ATOM     33  C   UNL     1       4.648  -1.612  -1.419  0.00  0.00    +0.000 C 
ENDBRANCH  28  32
ENDBRANCH  23  24
ENDBRANCH  22  23
ENDBRANCH  21  22
ENDBRANCH   3  19
TORSDOF 8
