REMARK  Name = 
REMARK  8 active torsions:
REMARK  status: ('A' for Active; 'I' for Inactive)
REMARK    1  A    between atoms: C_7  and  N_8
REMARK    2  A    between atoms: C_11  and  N_12
REMARK    3  A    between atoms: N_12  and  C_14
REMARK    4  A    between atoms: C_24  and  O_25
REMARK    5  A    between atoms: O_25  and  C_26
REMARK    6  A    between atoms: C_26  and  C_27
REMARK    7  A    between atoms: C_27  and  C_28
REMARK    8  A    between atoms: C_28  and  N_29
REMARK                            x       y       z     vdW  Elec       q    Type
REMARK                         _______ _______ _______ _____ _____    ______ ____
ROOT
ATOM      1  N   UNL     1      -2.335  -1.625  -0.598  0.00  0.00    +0.000 NA
ATOM      2  C   UNL     1      -1.447  -0.505  -0.498  0.00  0.00    +0.000 A 
ATOM      3  N   UNL     1      -1.868   0.749  -0.738  0.00  0.00    +0.000 NA
ATOM      4  C   UNL     1      -1.086   1.841  -0.659  0.00  0.00    +0.000 A 
ATOM      5  C   UNL     1       0.240   1.684  -0.309  0.00  0.00    +0.000 A 
ATOM      6  C   UNL     1       1.075   2.786  -0.218  0.00  0.00    +0.000 A 
ATOM      7  C   UNL     1       2.394   2.574   0.135  0.00  0.00    +0.000 A 
ATOM      8  C   UNL     1       2.832   1.280   0.384  0.00  0.00    +0.000 A 
ATOM      9  C   UNL     1       2.002   0.201   0.292  0.00  0.00    +0.000 A 
ATOM     10  C   UNL     1       0.677   0.392  -0.061  0.00  0.00    +0.000 A 
ATOM     11  N   UNL     1      -0.153  -0.667  -0.156  0.00  0.00    +0.000 NA
ENDROOT
BRANCH   1  18
ATOM     12  C   UNL     1      -4.230  -3.659  -0.836  0.00  0.00    +0.000 C 
ATOM     13  C   UNL     1      -2.817  -3.991  -0.457  0.00  0.00    +0.000 A 
ATOM     14  C   UNL     1      -2.467  -5.310  -0.231  0.00  0.00    +0.000 A 
ATOM     15  C   UNL     1      -1.175  -5.647   0.117  0.00  0.00    +0.000 A 
ATOM     16  C   UNL     1      -0.262  -4.621   0.228  0.00  0.00    +0.000 A 
ATOM     17  C   UNL     1      -0.611  -3.292   0.000  0.00  0.00    +0.000 A 
ATOM     18  C   UNL     1      -1.896  -2.949  -0.347  0.00  0.00    +0.000 A 
ENDBRANCH   1  18
BRANCH   4  19
ATOM     19  N   UNL     1      -1.567   3.150  -0.918  0.00  0.00    +0.000 N 
ATOM     20  C   UNL     1      -0.959   3.915  -1.976  0.00  0.00    +0.000 C 
BRANCH  19  21
ATOM     21  C   UNL     1      -2.624   3.737  -0.175  0.00  0.00    +0.000 A 
ATOM     22  C   UNL     1      -2.351   4.453   0.955  0.00  0.00    +0.000 A 
ATOM     23  C   UNL     1      -3.322   5.052   1.729  0.00  0.00    +0.000 A 
ATOM     24  C   UNL     1      -4.629   4.900   1.309  0.00  0.00    +0.000 A 
ATOM     25  C   UNL     1      -4.939   4.188   0.180  0.00  0.00    +0.000 A 
ATOM     26  C   UNL     1      -3.934   3.592  -0.583  0.00  0.00    +0.000 A 
ENDBRANCH  19  21
ENDBRANCH   4  19
BRANCH   9  27
ATOM     27  O   UNL     1       2.420  -1.122   0.539  0.00  0.00    +0.000 OA
BRANCH  27  28
ATOM     28  C   UNL     1       3.788  -1.282   0.900  0.00  0.00    +0.000 C 
BRANCH  28  29
ATOM     29  C   UNL     1       4.650  -0.752  -0.233  0.00  0.00    +0.000 C 
BRANCH  29  30
ATOM     30  C   UNL     1       6.113  -0.906   0.117  0.00  0.00    +0.000 C 
BRANCH  30  31
ATOM     31  N   UNL     1       6.501  -2.279   0.348  0.00  0.00    +0.000 NA
ATOM     32  C   UNL     1       6.439  -3.032  -0.894  0.00  0.00    +0.000 C 
ATOM     33  C   UNL     1       5.541  -2.853   1.273  0.00  0.00    +0.000 C 
ENDBRANCH  30  31
ENDBRANCH  29  30
ENDBRANCH  28  29
ENDBRANCH  27  28
ENDBRANCH   9  27
TORSDOF 8
