REMARK  Name = 
REMARK  9 active torsions:
REMARK  status: ('A' for Active; 'I' for Inactive)
REMARK    1  A    between atoms: C_2  and  C_3
REMARK    2  A    between atoms: C_3  and  N_4
REMARK    3  A    between atoms: C_5  and  S_6
REMARK    4  A    between atoms: S_6  and  C_7
REMARK    5  A    between atoms: C_7  and  C_8
REMARK    6  A    between atoms: N_10  and  C_11
REMARK    7  A    between atoms: C_14  and  C_15
REMARK    8  A    between atoms: C_15  and  C_17
REMARK    9  A    between atoms: C_23  and  C_24
REMARK                            x       y       z     vdW  Elec       q    Type
REMARK                         _______ _______ _______ _____ _____    ______ ____
ROOT
ATOM      1  N   UNL     1      -2.610  -0.951   0.741  0.00  0.00    +0.000 N 
ATOM      2  C   UNL     1      -1.509  -1.576   0.325  0.00  0.00    +0.000 A 
ATOM      3  N   UNL     1      -0.955  -0.815  -0.627  0.00  0.00    +0.000 NA
ATOM      4  N   UNL     1      -1.700   0.264  -0.798  0.00  0.00    +0.000 NA
ATOM      5  C   UNL     1      -2.737   0.211   0.037  0.00  0.00    +0.000 A 
ENDROOT
BRANCH   5   6
ATOM      6  C   UNL     1      -3.813   1.162   0.205  0.00  0.00    +0.000 A 
ATOM      7  C   UNL     1      -4.803   0.955   1.130  0.00  0.00    +0.000 A 
ATOM      8  C   UNL     1      -5.830   1.862   1.286  0.00  0.00    +0.000 A 
ATOM      9  C   UNL     1      -5.852   2.990   0.494  0.00  0.00    +0.000 A 
ATOM     10  C   UNL     1      -4.853   3.210  -0.448  0.00  0.00    +0.000 A 
ATOM     11  C   UNL     1      -3.841   2.279  -0.575  0.00  0.00    +0.000 A 
ATOM     12  C   UNL     1      -2.763   2.491  -1.576  0.00  0.00    +0.000 C 
ENDBRANCH   5   6
BRANCH   1  13
ATOM     13  C   UNL     1      -3.525  -1.428   1.773  0.00  0.00    +0.000 C 
BRANCH  13  15
ATOM     14  C   UNL     1      -4.600  -2.467  -0.168  0.00  0.00    +0.000 C 
ATOM     15  C   UNL     1      -4.569  -2.254   1.090  0.00  0.00    +0.000 C 
ENDBRANCH  13  15
ENDBRANCH   1  13
BRANCH   2  16
ATOM     16  S   UNL     1      -0.915  -3.136   0.941  0.00  0.00    +0.000 S 
BRANCH  16  17
ATOM     17  C   UNL     1       0.185  -2.774   2.338  0.00  0.00    +0.000 C 
BRANCH  17  18
ATOM     18  C   UNL     1       1.362  -2.065   1.783  0.00  0.00    +0.000 C 
ATOM     19  O   UNL     1       2.268  -1.716   2.580  0.00  0.00    +0.000 OA
ATOM     20  N   UNL     1       1.519  -1.762   0.410  0.00  0.00    +0.000 NA
BRANCH  20  21
ATOM     21  C   UNL     1       2.722  -1.069   0.029  0.00  0.00    +0.000 A 
ATOM     22  C   UNL     1       2.959  -0.697  -1.275  0.00  0.00    +0.000 A 
ATOM     23  C   UNL     1       4.117  -0.043  -1.593  0.00  0.00    +0.000 A 
ATOM     24  C   UNL     1       5.048   0.253  -0.660  0.00  0.00    +0.000 A 
ATOM     25  C   UNL     1       4.865  -0.090   0.637  0.00  0.00    +0.000 A 
ATOM     26  C   UNL     1       3.695  -0.749   0.953  0.00  0.00    +0.000 A 
BRANCH  24  27
ATOM     27  C   UNL     1       6.383   0.997  -1.074  0.00  0.00    +0.000 C 
ATOM     28  C   UNL     1       5.666   2.079  -2.054  0.00  0.00    +0.000 C 
BRANCH  27  29
ATOM     29  C   UNL     1       6.430   1.991   0.206  0.00  0.00    +0.000 C 
ATOM     30  C   UNL     1       7.655   2.845   0.057  0.00  0.00    +0.000 C 
ENDBRANCH  27  29
ENDBRANCH  24  27
ENDBRANCH  20  21
ENDBRANCH  17  18
ENDBRANCH  16  17
ENDBRANCH   2  16
TORSDOF 9
