REMARK  Name = 
REMARK  6 active torsions:
REMARK  status: ('A' for Active; 'I' for Inactive)
REMARK    1  A    between atoms: C_5  and  S_6
REMARK    2  A    between atoms: S_6  and  C_7
REMARK    3  A    between atoms: C_8  and  N_9
REMARK    4  A    between atoms: N_9  and  C_10
REMARK    5  A    between atoms: N_20  and  C_21
REMARK    6  A    between atoms: C_21  and  C_22
REMARK                            x       y       z     vdW  Elec       q    Type
REMARK                         _______ _______ _______ _____ _____    ______ ____
ROOT
ATOM      1  C   UNL     1       0.110   0.282  -1.044  0.00  0.00    +0.000 C 
ATOM      2  C   UNL     1       0.416  -0.957  -1.468  0.00  0.00    +0.000 C 
ATOM      3  C   UNL     1       1.856  -1.101  -1.427  0.00  0.00    +0.000 C 
ATOM      4  O   UNL     1       2.543  -2.111  -1.744  0.00  0.00    +0.000 OA
ATOM      5  N   UNL     1       2.443   0.101  -0.958  0.00  0.00    +0.000 N 
ATOM      6  C   UNL     1       1.333   0.987  -0.712  0.00  0.00    +0.000 C 
ATOM      7  O   UNL     1       1.527   2.158  -0.279  0.00  0.00    +0.000 OA
ENDROOT
BRANCH   1   8
ATOM      8  S   UNL     1      -1.537   0.867  -0.941  0.00  0.00    +0.000 S 
BRANCH   8  13
ATOM      9  C   UNL     1      -2.719   6.475   0.993  0.00  0.00    +0.000 C 
ATOM     10  C   UNL     1      -2.356   5.113   0.528  0.00  0.00    +0.000 A 
ATOM     11  C   UNL     1      -3.343   4.245   0.153  0.00  0.00    +0.000 A 
ATOM     12  C   UNL     1      -3.073   2.986  -0.281  0.00  0.00    +0.000 A 
ATOM     13  C   UNL     1      -1.757   2.504  -0.368  0.00  0.00    +0.000 A 
ATOM     14  C   UNL     1      -0.792   3.391   0.012  0.00  0.00    +0.000 A 
ATOM     15  C   UNL     1      -1.053   4.662   0.451  0.00  0.00    +0.000 A 
ENDBRANCH   8  13
ENDBRANCH   1   8
BRANCH   2  16
ATOM     16  N   UNL     1      -0.506  -1.933  -1.878  0.00  0.00    +0.000 NA
BRANCH  16  17
ATOM     17  C   UNL     1      -1.587  -2.392  -1.069  0.00  0.00    +0.000 A 
ATOM     18  C   UNL     1      -1.803  -1.897   0.200  0.00  0.00    +0.000 A 
ATOM     19  C   UNL     1      -2.851  -2.335   0.998  0.00  0.00    +0.000 A 
ATOM     20  C   UNL     1      -3.722  -3.297   0.534  0.00  0.00    +0.000 A 
ATOM     21  C   UNL     1      -4.838  -3.753   1.406  0.00  0.00    +0.000 C 
ATOM     22  C   UNL     1      -3.517  -3.801  -0.733  0.00  0.00    +0.000 A 
ATOM     23  C   UNL     1      -4.469  -4.839  -1.212  0.00  0.00    +0.000 C 
ATOM     24  C   UNL     1      -2.466  -3.354  -1.517  0.00  0.00    +0.000 A 
ENDBRANCH  16  17
ENDBRANCH   2  16
BRANCH   5  25
ATOM     25  C   UNL     1       3.855   0.352  -0.776  0.00  0.00    +0.000 C 
BRANCH  25  26
ATOM     26  C   UNL     1       4.300  -0.021   0.594  0.00  0.00    +0.000 A 
ATOM     27  C   UNL     1       4.265   0.897   1.611  0.00  0.00    +0.000 A 
ATOM     28  C   UNL     1       4.686   0.506   2.858  0.00  0.00    +0.000 A 
ATOM     29  C   UNL     1       5.139  -0.769   3.126  0.00  0.00    +0.000 A 
ATOM     30  C   UNL     1       5.167  -1.674   2.097  0.00  0.00    +0.000 A 
ATOM     31  C   UNL     1       4.748  -1.292   0.845  0.00  0.00    +0.000 A 
ENDBRANCH  25  26
ENDBRANCH   5  25
TORSDOF 6
