REMARK  Name = 
REMARK  9 active torsions:
REMARK  status: ('A' for Active; 'I' for Inactive)
REMARK    1  A    between atoms: O_2  and  C_3
REMARK    2  A    between atoms: C_6  and  N_7
REMARK    3  A    between atoms: N_7  and  C_8
REMARK    4  A    between atoms: C_8  and  C_9
REMARK    5  A    between atoms: C_12  and  S_13
REMARK    6  A    between atoms: S_13  and  C_14
REMARK    7  A    between atoms: C_14  and  C_15
REMARK    8  A    between atoms: N_21  and  C_22
REMARK    9  A    between atoms: C_25  and  O_26
REMARK                            x       y       z     vdW  Elec       q    Type
REMARK                         _______ _______ _______ _____ _____    ______ ____
ROOT
ATOM      1  C   UNL     1      -0.488  -0.255   0.964  0.00  0.00    +0.000 A 
ATOM      2  N   UNL     1       0.008  -1.500   0.851  0.00  0.00    +0.000 NA
ATOM      3  N   UNL     1       1.056  -1.471   0.043  0.00  0.00    +0.000 NA
ATOM      4  C   UNL     1       1.250  -0.206  -0.377  0.00  0.00    +0.000 A 
ATOM      5  N   UNL     1       0.290   0.528   0.201  0.00  0.00    +0.000 N 
ENDROOT
BRANCH   5   6
ATOM      6  C   UNL     1       0.113   1.930   0.033  0.00  0.00    +0.000 A 
ATOM      7  C   UNL     1      -1.049   2.533   0.396  0.00  0.00    +0.000 A 
ATOM      8  C   UNL     1      -1.184   3.900   0.215  0.00  0.00    +0.000 A 
ATOM      9  C   UNL     1      -0.188   4.671  -0.317  0.00  0.00    +0.000 A 
ATOM     10  C   UNL     1       0.977   4.035  -0.676  0.00  0.00    +0.000 A 
ATOM     11  C   UNL     1       1.128   2.692  -0.506  0.00  0.00    +0.000 A 
BRANCH   9  12
ATOM     12  O   UNL     1      -0.276   6.039  -0.517  0.00  0.00    +0.000 OA
ATOM     13  C   UNL     1      -1.421   6.798  -0.187  0.00  0.00    +0.000 C 
ENDBRANCH   9  12
ENDBRANCH   5   6
BRANCH   1  14
ATOM     14  C   UNL     1      -1.668   0.175   1.773  0.00  0.00    +0.000 C 
BRANCH  14  15
ATOM     15  N   UNL     1      -2.866   0.259   0.987  0.00  0.00    +0.000 NA
BRANCH  15  19
ATOM     16  C   UNL     1      -4.372  -3.157  -1.064  0.00  0.00    +0.000 A 
ATOM     17  C   UNL     1      -3.215  -3.231  -0.308  0.00  0.00    +0.000 A 
ATOM     18  C   UNL     1      -2.741  -2.110   0.353  0.00  0.00    +0.000 A 
ATOM     19  C   UNL     1      -3.368  -0.884   0.304  0.00  0.00    +0.000 A 
ATOM     20  C   UNL     1      -4.529  -0.819  -0.458  0.00  0.00    +0.000 A 
ATOM     21  C   UNL     1      -5.002  -1.933  -1.115  0.00  0.00    +0.000 A 
BRANCH  16  23
ATOM     22  C   UNL     1      -4.217  -5.509  -1.677  0.00  0.00    +0.000 C 
ATOM     23  O   UNL     1      -4.881  -4.260  -1.743  0.00  0.00    +0.000 OA
ENDBRANCH  16  23
ENDBRANCH  15  19
ENDBRANCH  14  15
ENDBRANCH   1  14
BRANCH   4  24
ATOM     24  S   UNL     1       2.547   0.369  -1.494  0.00  0.00    +0.000 S 
BRANCH  24  25
ATOM     25  C   UNL     1       3.970   0.815  -0.466  0.00  0.00    +0.000 C 
BRANCH  25  26
ATOM     26  C   UNL     1       4.490  -0.407   0.162  0.00  0.00    +0.000 A 
ATOM     27  C   UNL     1       5.455  -1.124  -0.507  0.00  0.00    +0.000 A 
ATOM     28  C   UNL     1       5.984  -2.268   0.015  0.00  0.00    +0.000 A 
ATOM     29  C   UNL     1       5.552  -2.727   1.239  0.00  0.00    +0.000 A 
ATOM     30  C   UNL     1       4.590  -2.016   1.912  0.00  0.00    +0.000 A 
ATOM     31  C   UNL     1       4.055  -0.866   1.390  0.00  0.00    +0.000 A 
ENDBRANCH  25  26
ENDBRANCH  24  25
ENDBRANCH   4  24
TORSDOF 9
