REMARK  Name = 
REMARK  8 active torsions:
REMARK  status: ('A' for Active; 'I' for Inactive)
REMARK    1  A    between atoms: C_2  and  O_3
REMARK    2  A    between atoms: O_3  and  C_4
REMARK    3  A    between atoms: C_9  and  N_10
REMARK    4  A    between atoms: N_10  and  C_11
REMARK    5  A    between atoms: C_12  and  S_13
REMARK    6  A    between atoms: S_13  and  C_14
REMARK    7  A    between atoms: N_22  and  C_23
REMARK    8  A    between atoms: C_26  and  C_27
REMARK                            x       y       z     vdW  Elec       q    Type
REMARK                         _______ _______ _______ _____ _____    ______ ____
ROOT
ATOM      1  C   UNL     1      -0.749  -0.343  -0.564  0.00  0.00    +0.000 C 
ATOM      2  C   UNL     1      -0.404   0.940  -0.383  0.00  0.00    +0.000 C 
ATOM      3  C   UNL     1       1.034   0.989  -0.225  0.00  0.00    +0.000 C 
ATOM      4  O   UNL     1       1.777   1.989  -0.033  0.00  0.00    +0.000 OA
ATOM      5  N   UNL     1       1.571  -0.354  -0.320  0.00  0.00    +0.000 N 
ATOM      6  C   UNL     1       0.438  -1.173  -0.532  0.00  0.00    +0.000 C 
ATOM      7  O   UNL     1       0.483  -2.421  -0.669  0.00  0.00    +0.000 OA
ENDROOT
BRANCH   5   8
ATOM      8  C   UNL     1       2.933  -0.742  -0.220  0.00  0.00    +0.000 A 
ATOM      9  C   UNL     1       3.375  -1.931  -0.756  0.00  0.00    +0.000 A 
ATOM     10  C   UNL     1       4.695  -2.313  -0.663  0.00  0.00    +0.000 A 
ATOM     11  C   UNL     1       5.606  -1.500  -0.023  0.00  0.00    +0.000 A 
ATOM     12  C   UNL     1       5.166  -0.306   0.516  0.00  0.00    +0.000 A 
ATOM     13  C   UNL     1       3.845   0.065   0.417  0.00  0.00    +0.000 A 
BRANCH  11  14
ATOM     14  C   UNL     1       7.055  -1.875   0.102  0.00  0.00    +0.000 C 
ATOM     15  C   UNL     1       7.300  -2.662   1.370  0.00  0.00    +0.000 C 
ENDBRANCH  11  14
ENDBRANCH   5   8
BRANCH   1  16
ATOM     16  N   UNL     1      -2.058  -0.862  -0.763  0.00  0.00    +0.000 NA
BRANCH  16  22
ATOM     17  C   UNL     1      -4.045  -2.014  -0.017  0.00  0.00    +0.000 A 
ATOM     18  C   UNL     1      -4.774  -2.679   0.933  0.00  0.00    +0.000 A 
ATOM     19  C   UNL     1      -4.220  -2.878   2.179  0.00  0.00    +0.000 A 
ATOM     20  C   UNL     1      -2.957  -2.426   2.487  0.00  0.00    +0.000 A 
ATOM     21  C   UNL     1      -2.252  -1.761   1.510  0.00  0.00    +0.000 A 
ATOM     22  C   UNL     1      -2.776  -1.546   0.257  0.00  0.00    +0.000 A 
BRANCH  17  23
ATOM     23  O   UNL     1      -4.568  -1.799  -1.268  0.00  0.00    +0.000 OA
BRANCH  23  25
ATOM     24  C   UNL     1      -5.958  -3.707  -1.611  0.00  0.00    +0.000 C 
ATOM     25  C   UNL     1      -5.828  -2.205  -1.702  0.00  0.00    +0.000 C 
ENDBRANCH  23  25
ENDBRANCH  17  23
ENDBRANCH  16  22
ENDBRANCH   1  16
BRANCH   2  26
ATOM     26  S   UNL     1      -1.585   2.231  -0.364  0.00  0.00    +0.000 S 
BRANCH  26  27
ATOM     27  C   UNL     1      -0.944   3.858  -0.128  0.00  0.00    +0.000 A 
ATOM     28  C   UNL     1       0.370   4.205   0.040  0.00  0.00    +0.000 A 
ATOM     29  C   UNL     1       0.805   5.501   0.219  0.00  0.00    +0.000 A 
ATOM     30  C   UNL     1      -0.085   6.555   0.240  0.00  0.00    +0.000 A 
ATOM     31  C   UNL     1      -1.413   6.226   0.073  0.00  0.00    +0.000 A 
ATOM     32  C   UNL     1      -1.839   4.937  -0.104  0.00  0.00    +0.000 A 
ENDBRANCH  26  27
ENDBRANCH   2  26
TORSDOF 8
