REMARK  Name = 
REMARK  8 active torsions:
REMARK  status: ('A' for Active; 'I' for Inactive)
REMARK    1  A    between atoms: C_2  and  O_3
REMARK    2  A    between atoms: O_3  and  P_4
REMARK    3  A    between atoms: P_4  and  C_6
REMARK    4  A    between atoms: P_4  and  O_28
REMARK    5  A    between atoms: C_6  and  C_7
REMARK    6  A    between atoms: C_10  and  C_11
REMARK    7  A    between atoms: C_19  and  C_20
REMARK    8  A    between atoms: O_28  and  C_29
REMARK                            x       y       z     vdW  Elec       q    Type
REMARK                         _______ _______ _______ _____ _____    ______ ____
ROOT
ATOM      1  C   UNL     1       2.140   0.484  -0.582  0.00  0.00    +0.000 A 
ATOM      2  C   UNL     1       1.811  -0.825  -0.732  0.00  0.00    +0.000 A 
ATOM      3  C   UNL     1       0.598  -1.239  -0.268  0.00  0.00    +0.000 A 
ATOM      4  C   UNL     1      -0.265  -0.288   0.349  0.00  0.00    +0.000 A 
ATOM      5  C   UNL     1       0.099   0.957   0.493  0.00  0.00    +0.000 A 
ATOM      6  C   UNL     1       1.309   1.390   0.037  0.00  0.00    +0.000 A 
ENDROOT
BRANCH   4   7
ATOM      7  C   UNL     1      -1.645  -0.892   0.452  0.00  0.00    +0.000 A 
ATOM      8  N   UNL     1      -1.849  -2.271   0.553  0.00  0.00    +0.000 NA
ATOM      9  C   UNL     1      -3.149  -2.473   0.306  0.00  0.00    +0.000 A 
ATOM     10  C   UNL     1      -3.930  -3.614   0.146  0.00  0.00    +0.000 A 
ATOM     11  C   UNL     1      -5.255  -3.537  -0.261  0.00  0.00    +0.000 A 
ATOM     12  C   UNL     1      -5.889  -2.322  -0.521  0.00  0.00    +0.000 A 
ATOM     13  C   UNL     1      -5.125  -1.136  -0.342  0.00  0.00    +0.000 A 
ATOM     14  C   UNL     1      -3.832  -1.308   0.051  0.00  0.00    +0.000 A 
ATOM     15  C   UNL     1      -2.812  -0.307   0.158  0.00  0.00    +0.000 A 
BRANCH  15  16
ATOM     16  C   UNL     1      -3.141   1.145   0.086  0.00  0.00    +0.000 A 
ATOM     17  C   UNL     1      -2.495   2.022   0.918  0.00  0.00    +0.000 A 
ATOM     18  C   UNL     1      -2.843   3.349   1.054  0.00  0.00    +0.000 A 
ATOM     19  C   UNL     1      -3.911   3.815   0.292  0.00  0.00    +0.000 A 
ATOM     20  C   UNL     1      -4.561   2.965  -0.539  0.00  0.00    +0.000 A 
ATOM     21  C   UNL     1      -4.188   1.567  -0.664  0.00  0.00    +0.000 A 
ENDBRANCH  15  16
ENDBRANCH   4   7
BRANCH   1  22
ATOM     22  C   UNL     1       3.474   0.876  -1.223  0.00  0.00    +0.000 C 
BRANCH  22  23
ATOM     23  P   UNL     1       4.747   0.733  -0.028  0.00  0.00    +0.000 P 
ATOM     24  O   UNL     1       4.352   1.556   1.205  0.00  0.00    +0.000 OA
BRANCH  23  25
ATOM     25  O   UNL     1       5.016  -0.862   0.545  0.00  0.00    +0.000 OA
BRANCH  25  27
ATOM     26  C   UNL     1       5.373  -3.119  -0.201  0.00  0.00    +0.000 C 
ATOM     27  C   UNL     1       5.158  -1.701  -0.621  0.00  0.00    +0.000 C 
ENDBRANCH  25  27
ENDBRANCH  23  25
BRANCH  23  28
ATOM     28  O   UNL     1       6.252   1.289  -0.582  0.00  0.00    +0.000 OA
BRANCH  28  29
ATOM     29  C   UNL     1       6.626   2.186   0.525  0.00  0.00    +0.000 C 
ATOM     30  C   UNL     1       7.934   1.562   1.066  0.00  0.00    +0.000 C 
ENDBRANCH  28  29
ENDBRANCH  23  28
ENDBRANCH  22  23
ENDBRANCH   1  22
TORSDOF 8
