REMARK  Name = 
REMARK  6 active torsions:
REMARK  status: ('A' for Active; 'I' for Inactive)
REMARK    1  A    between atoms: C_2  and  C_3
REMARK    2  A    between atoms: C_3  and  N_4
REMARK    3  A    between atoms: C_5  and  C_7
REMARK    4  A    between atoms: N_13  and  C_14
REMARK    5  A    between atoms: C_14  and  C_15
REMARK    6  A    between atoms: C_25  and  C_26
REMARK                            x       y       z     vdW  Elec       q    Type
REMARK                         _______ _______ _______ _____ _____    ______ ____
ROOT
ATOM      1  C   UNL     1       2.680  -0.076  -0.345  0.00  0.00    +0.000 A 
ATOM      2  C   UNL     1       2.516  -1.275  -0.997  0.00  0.00    +0.000 A 
ATOM      3  C   UNL     1       1.321  -1.927  -0.922  0.00  0.00    +0.000 A 
ATOM      4  C   UNL     1       0.288  -1.412  -0.214  0.00  0.00    +0.000 A 
ATOM      5  C   UNL     1       0.380  -0.234   0.452  0.00  0.00    +0.000 A 
ATOM      6  C   UNL     1       1.619   0.426   0.367  0.00  0.00    +0.000 A 
ATOM      7  N   UNL     1      -0.626   0.431   1.177  0.00  0.00    +0.000 N 
ATOM      8  C   UNL     1      -1.934  -0.082   1.297  0.00  0.00    +0.000 C 
ATOM      9  O   UNL     1      -2.794   0.565   1.968  0.00  0.00    +0.000 OA
ATOM     10  C   UNL     1      -2.397  -1.327   0.701  0.00  0.00    +0.000 C 
ATOM     11  C   UNL     1      -3.637  -1.724   0.733  0.00  0.00    +0.000 C 
ATOM     12  S   UNL     1      -1.223  -2.362  -0.150  0.00  0.00    +0.000 S 
ENDROOT
BRANCH  11  13
ATOM     13  C   UNL     1      -4.032  -2.976   0.122  0.00  0.00    +0.000 A 
ATOM     14  C   UNL     1      -5.205  -3.036  -0.584  0.00  0.00    +0.000 A 
ATOM     15  C   UNL     1      -5.631  -4.223  -1.173  0.00  0.00    +0.000 A 
ATOM     16  C   UNL     1      -4.846  -5.374  -1.041  0.00  0.00    +0.000 A 
ATOM     17  C   UNL     1      -3.674  -5.321  -0.337  0.00  0.00    +0.000 A 
ATOM     18  C   UNL     1      -3.262  -4.136   0.243  0.00  0.00    +0.000 A 
ENDBRANCH  11  13
BRANCH   1  20
ATOM     19  N   UNL     1       5.017   0.157  -1.228  0.00  0.00    +0.000 NA
ATOM     20  C   UNL     1       3.953   0.626  -0.431  0.00  0.00    +0.000 C 
ATOM     21  O   UNL     1       4.126   1.691   0.223  0.00  0.00    +0.000 OA
BRANCH  19  22
ATOM     22  C   UNL     1       6.296   0.821  -1.345  0.00  0.00    +0.000 C 
BRANCH  22  24
ATOM     23  C   UNL     1       7.297  -0.430   0.564  0.00  0.00    +0.000 C 
ATOM     24  C   UNL     1       7.026   0.952  -0.037  0.00  0.00    +0.000 C 
ENDBRANCH  22  24
ENDBRANCH  19  22
ENDBRANCH   1  20
BRANCH   7  25
ATOM     25  C   UNL     1      -0.318   1.723   1.843  0.00  0.00    +0.000 C 
BRANCH  25  26
ATOM     26  C   UNL     1      -0.541   2.850   0.945  0.00  0.00    +0.000 A 
ATOM     27  C   UNL     1      -1.779   3.404   0.807  0.00  0.00    +0.000 A 
ATOM     28  C   UNL     1      -1.997   4.470  -0.040  0.00  0.00    +0.000 A 
ATOM     29  C   UNL     1      -0.926   4.965  -0.747  0.00  0.00    +0.000 A 
ATOM     30  C   UNL     1       0.356   4.436  -0.641  0.00  0.00    +0.000 A 
ATOM     31  C   UNL     1       1.441   5.030  -1.435  0.00  0.00    +0.000 C 
ATOM     32  C   UNL     1       0.505   3.367   0.227  0.00  0.00    +0.000 A 
ENDBRANCH  25  26
ENDBRANCH   7  25
TORSDOF 6
