REMARK  Name = 
REMARK  8 active torsions:
REMARK  status: ('A' for Active; 'I' for Inactive)
REMARK    1  A    between atoms: O_2  and  C_3
REMARK    2  A    between atoms: C_6  and  C_7
REMARK    3  A    between atoms: C_7  and  C_8
REMARK    4  A    between atoms: C_8  and  N_9
REMARK    5  A    between atoms: C_10  and  C_12
REMARK    6  A    between atoms: C_16  and  C_17
REMARK    7  A    between atoms: C_17  and  O_18
REMARK    8  A    between atoms: O_18  and  C_19
REMARK                            x       y       z     vdW  Elec       q    Type
REMARK                         _______ _______ _______ _____ _____    ______ ____
ROOT
ATOM      1  C   UNL     1      -0.253  -0.813   1.549  0.00  0.00    +0.000 A 
ATOM      2  C   UNL     1      -0.784  -2.000   2.043  0.00  0.00    +0.000 A 
ATOM      3  C   UNL     1      -2.007  -2.064   2.676  0.00  0.00    +0.000 A 
ATOM      4  C   UNL     1      -2.747  -0.923   2.836  0.00  0.00    +0.000 A 
ATOM      5  C   UNL     1      -2.276   0.270   2.372  0.00  0.00    +0.000 A 
ATOM      6  C   UNL     1      -1.030   0.311   1.731  0.00  0.00    +0.000 A 
ENDROOT
BRANCH   1   8
ATOM      7  N   UNL     1       1.553   0.429   0.397  0.00  0.00    +0.000 NA
ATOM      8  C   UNL     1       1.037  -0.787   0.889  0.00  0.00    +0.000 C 
ATOM      9  O   UNL     1       1.696  -1.835   0.753  0.00  0.00    +0.000 OA
BRANCH   7  10
ATOM     10  C   UNL     1       2.832   0.555  -0.276  0.00  0.00    +0.000 C 
BRANCH  10  11
ATOM     11  C   UNL     1       3.953   0.097   0.666  0.00  0.00    +0.000 C 
BRANCH  11  15
ATOM     12  C   UNL     1       7.739   0.432  -1.357  0.00  0.00    +0.000 A 
ATOM     13  C   UNL     1       7.229   1.480  -0.619  0.00  0.00    +0.000 A 
ATOM     14  C   UNL     1       6.017   1.383   0.033  0.00  0.00    +0.000 A 
ATOM     15  C   UNL     1       5.261   0.228  -0.026  0.00  0.00    +0.000 A 
ATOM     16  C   UNL     1       5.781  -0.820  -0.771  0.00  0.00    +0.000 A 
ATOM     17  C   UNL     1       6.991  -0.722  -1.421  0.00  0.00    +0.000 A 
BRANCH  12  19
ATOM     18  C   UNL     1       9.434  -0.566  -2.752  0.00  0.00    +0.000 C 
ATOM     19  O   UNL     1       8.961   0.543  -2.009  0.00  0.00    +0.000 OA
ENDBRANCH  12  19
ENDBRANCH  11  15
ENDBRANCH  10  11
ENDBRANCH   7  10
ENDBRANCH   1   8
BRANCH   5  20
ATOM     20  C   UNL     1      -3.017   1.552   2.506  0.00  0.00    +0.000 C 
BRANCH  20  21
ATOM     21  O   UNL     1      -3.520   1.896   1.241  0.00  0.00    +0.000 OA
BRANCH  21  22
ATOM     22  C   UNL     1      -4.400   1.084   0.572  0.00  0.00    +0.000 A 
ATOM     23  C   UNL     1      -4.842  -0.098   1.088  0.00  0.00    +0.000 A 
ATOM     24  C   UNL     1      -5.735  -0.925   0.413  0.00  0.00    +0.000 A 
ATOM     25  C   UNL     1      -6.181  -0.503  -0.844  0.00  0.00    +0.000 A 
ATOM     26  C   UNL     1      -5.754   0.679  -1.385  0.00  0.00    +0.000 A 
ATOM     27  C   UNL     1      -4.870   1.455  -0.669  0.00  0.00    +0.000 A 
ATOM     28  C   UNL     1      -6.384   0.884  -2.726  0.00  0.00    +0.000 C 
ATOM     29  C   UNL     1      -7.569  -0.059  -2.683  0.00  0.00    +0.000 C 
ATOM     30  C   UNL     1      -7.116  -1.164  -1.779  0.00  0.00    +0.000 C 
ENDBRANCH  21  22
ENDBRANCH  20  21
ENDBRANCH   5  20
TORSDOF 8
