REMARK  Name = 
REMARK  8 active torsions:
REMARK  status: ('A' for Active; 'I' for Inactive)
REMARK    1  A    between atoms: C_3  and  C_4
REMARK    2  A    between atoms: N_6  and  C_7
REMARK    3  A    between atoms: C_7  and  C_8
REMARK    4  A    between atoms: C_15  and  O_16
REMARK    5  A    between atoms: O_16  and  C_17
REMARK    6  A    between atoms: C_17  and  C_18
REMARK    7  A    between atoms: N_27  and  C_28
REMARK    8  A    between atoms: C_28  and  C_29
REMARK                            x       y       z     vdW  Elec       q    Type
REMARK                         _______ _______ _______ _____ _____    ______ ____
ROOT
ATOM      1  C   UNL     1      -4.084   0.253   0.394  0.00  0.00    +0.000 C 
ATOM      2  C   UNL     1      -2.658  -0.082   0.610  0.00  0.00    +0.000 A 
ATOM      3  C   UNL     1      -1.600   0.360  -0.149  0.00  0.00    +0.000 A 
ATOM      4  C   UNL     1      -0.475  -0.203   0.418  0.00  0.00    +0.000 A 
ATOM      5  C   UNL     1       0.881  -0.115   0.082  0.00  0.00    +0.000 A 
ATOM      6  C   UNL     1       1.849  -0.776   0.805  0.00  0.00    +0.000 A 
ATOM      7  C   UNL     1       1.405  -1.525   1.874  0.00  0.00    +0.000 A 
ATOM      8  C   UNL     1       0.081  -1.621   2.216  0.00  0.00    +0.000 A 
ATOM      9  C   UNL     1      -0.890  -0.950   1.479  0.00  0.00    +0.000 A 
ATOM     10  N   UNL     1      -2.233  -0.880   1.603  0.00  0.00    +0.000 N 
ENDROOT
BRANCH   3  11
ATOM     11  C   UNL     1      -1.635   1.245  -1.323  0.00  0.00    +0.000 C 
ATOM     12  O   UNL     1      -0.586   1.573  -1.929  0.00  0.00    +0.000 OA
ATOM     13  N   UNL     1      -2.826   1.767  -1.825  0.00  0.00    +0.000 NA
BRANCH  13  14
ATOM     14  C   UNL     1      -3.229   2.567  -2.816  0.00  0.00    +0.000 C 
BRANCH  14  15
ATOM     15  C   UNL     1      -2.718   4.092  -2.852  0.00  0.00    +0.000 C 
ATOM     16  C   UNL     1      -2.579   4.296  -1.214  0.00  0.00    +0.000 C 
ATOM     17  C   UNL     1      -1.481   5.346  -1.294  0.00  0.00    +0.000 C 
ATOM     18  C   UNL     1      -0.765   4.989  -2.570  0.00  0.00    +0.000 C 
ATOM     19  O   UNL     1      -1.267   3.761  -2.967  0.00  0.00    +0.000 OA
ENDBRANCH  14  15
ENDBRANCH  13  14
ENDBRANCH   3  11
BRANCH   6  20
ATOM     20  O   UNL     1       3.203  -0.724   0.518  0.00  0.00    +0.000 OA
BRANCH  20  21
ATOM     21  C   UNL     1       3.719   0.027  -0.566  0.00  0.00    +0.000 C 
BRANCH  21  22
ATOM     22  C   UNL     1       5.192  -0.156  -0.560  0.00  0.00    +0.000 A 
ATOM     23  C   UNL     1       5.783  -1.172  -1.256  0.00  0.00    +0.000 A 
ATOM     24  C   UNL     1       7.138  -1.340  -1.251  0.00  0.00    +0.000 A 
ATOM     25  C   UNL     1       7.898  -0.443  -0.515  0.00  0.00    +0.000 A 
ATOM     26  C   UNL     1       7.336   0.591   0.197  0.00  0.00    +0.000 A 
ATOM     27  C   UNL     1       5.962   0.721   0.162  0.00  0.00    +0.000 A 
ENDBRANCH  21  22
ENDBRANCH  20  21
ENDBRANCH   6  20
BRANCH  10  28
ATOM     28  C   UNL     1      -2.921  -1.571   2.636  0.00  0.00    +0.000 C 
BRANCH  28  29
ATOM     29  C   UNL     1      -3.351  -2.931   2.293  0.00  0.00    +0.000 A 
ATOM     30  C   UNL     1      -2.653  -4.101   2.464  0.00  0.00    +0.000 A 
ATOM     31  C   UNL     1      -3.421  -5.179   2.006  0.00  0.00    +0.000 A 
ATOM     32  C   UNL     1      -4.585  -4.558   1.569  0.00  0.00    +0.000 A 
ATOM     33  O   UNL     1      -4.492  -3.261   1.757  0.00  0.00    +0.000 OA
ENDBRANCH  28  29
ENDBRANCH  10  28
TORSDOF 8
