REMARK  Name = 
REMARK  8 active torsions:
REMARK  status: ('A' for Active; 'I' for Inactive)
REMARK    1  A    between atoms: C_2  and  N_3
REMARK    2  A    between atoms: N_3  and  C_4
REMARK    3  A    between atoms: N_3  and  C_31
REMARK    4  A    between atoms: C_7  and  N_8
REMARK    5  A    between atoms: C_9  and  C_11
REMARK    6  A    between atoms: C_11  and  O_12
REMARK    7  A    between atoms: O_12  and  C_13
REMARK    8  A    between atoms: C_13  and  C_15
REMARK                            x       y       z     vdW  Elec       q    Type
REMARK                         _______ _______ _______ _____ _____    ______ ____
ROOT
ATOM      1  O   UNL     1      -2.025  -1.180  -1.353  0.00  0.00    +0.000 OA
ENDROOT
BRANCH   1   2
ATOM      2  C   UNL     1      -2.127  -1.122   0.020  0.00  0.00    +0.000 C 
ATOM      3  O   UNL     1      -1.242  -1.621   0.732  0.00  0.00    +0.000 OA
BRANCH   2   4
ATOM      4  C   UNL     1      -3.284  -0.471   0.664  0.00  0.00    +0.000 A 
ATOM      5  C   UNL     1      -4.276   0.089  -0.121  0.00  0.00    +0.000 A 
ATOM      6  C   UNL     1      -4.224   0.065  -1.513  0.00  0.00    +0.000 A 
ATOM      7  C   UNL     1      -5.203   0.618  -2.308  0.00  0.00    +0.000 A 
ATOM      8  C   UNL     1      -6.284   1.222  -1.732  0.00  0.00    +0.000 A 
ATOM      9  C   UNL     1      -6.367   1.263  -0.336  0.00  0.00    +0.000 A 
ATOM     10  C   UNL     1      -5.377   0.705   0.443  0.00  0.00    +0.000 A 
ATOM     11  C   UNL     1      -5.503   0.770   1.810  0.00  0.00    +0.000 A 
ATOM     12  C   UNL     1      -4.529   0.220   2.625  0.00  0.00    +0.000 A 
ATOM     13  C   UNL     1      -4.662   0.288   4.005  0.00  0.00    +0.000 A 
ATOM     14  C   UNL     1      -3.663  -0.277   4.771  0.00  0.00    +0.000 A 
ATOM     15  C   UNL     1      -2.575  -0.885   4.197  0.00  0.00    +0.000 A 
ATOM     16  C   UNL     1      -2.453  -0.947   2.834  0.00  0.00    +0.000 A 
ATOM     17  C   UNL     1      -3.432  -0.393   2.025  0.00  0.00    +0.000 A 
ENDBRANCH   2   4
ENDBRANCH   1   2
BRANCH   1  18
ATOM     18  C   UNL     1      -0.934  -1.796  -1.998  0.00  0.00    +0.000 C 
BRANCH  18  20
ATOM     19  N   UNL     1       1.580  -1.632  -2.188  0.00  0.00    +0.000 NA
ATOM     20  C   UNL     1       0.360  -1.151  -1.644  0.00  0.00    +0.000 C 
ATOM     21  O   UNL     1       0.348  -0.170  -0.851  0.00  0.00    +0.000 OA
BRANCH  19  25
ATOM     22  C   UNL     1       5.245   0.167  -1.206  0.00  0.00    +0.000 A 
ATOM     23  C   UNL     1       5.205  -0.912  -2.066  0.00  0.00    +0.000 A 
ATOM     24  C   UNL     1       3.990  -1.518  -2.399  0.00  0.00    +0.000 A 
ATOM     25  C   UNL     1       2.818  -1.032  -1.864  0.00  0.00    +0.000 A 
ATOM     26  C   UNL     1       2.840   0.039  -1.009  0.00  0.00    +0.000 A 
ATOM     27  C   UNL     1       4.062   0.626  -0.692  0.00  0.00    +0.000 A 
BRANCH  22  28
ATOM     28  N   UNL     1       6.461   0.787  -0.866  0.00  0.00    +0.000 N 
BRANCH  28  29
ATOM     29  C   UNL     1       6.550   1.897   0.041  0.00  0.00    +0.000 C 
ATOM     30  C   UNL     1       5.188   2.276   0.518  0.00  0.00    +0.000 C 
ATOM     31  C   UNL     1       7.329   1.389   1.263  0.00  0.00    +0.000 C 
ENDBRANCH  28  29
BRANCH  28  33
ATOM     32  C   UNL     1       8.498  -0.353  -0.348  0.00  0.00    +0.000 C 
ATOM     33  C   UNL     1       7.686   0.284  -1.456  0.00  0.00    +0.000 C 
ENDBRANCH  28  33
ENDBRANCH  22  28
ENDBRANCH  19  25
ENDBRANCH  18  20
ENDBRANCH   1  18
TORSDOF 8
