REMARK  Name = 
REMARK  7 active torsions:
REMARK  status: ('A' for Active; 'I' for Inactive)
REMARK    1  A    between atoms: C_5  and  C_6
REMARK    2  A    between atoms: C_9  and  C_10
REMARK    3  A    between atoms: C_17  and  C_18
REMARK    4  A    between atoms: C_21  and  O_22
REMARK    5  A    between atoms: O_22  and  C_23
REMARK    6  A    between atoms: C_23  and  C_24
REMARK    7  A    between atoms: C_24  and  N_25
REMARK                            x       y       z     vdW  Elec       q    Type
REMARK                         _______ _______ _______ _____ _____    ______ ____
ROOT
ATOM      1  C   UNL     1      -2.009   1.133   0.094  0.00  0.00    +0.000 A 
ATOM      2  C   UNL     1      -3.354   1.409   0.389  0.00  0.00    +0.000 A 
ATOM      3  C   UNL     1      -4.239   0.355   0.376  0.00  0.00    +0.000 A 
ATOM      4  C   UNL     1      -3.855  -0.938   0.087  0.00  0.00    +0.000 A 
ATOM      5  N   UNL     1      -2.565  -1.165  -0.189  0.00  0.00    +0.000 NA
ATOM      6  C   UNL     1      -1.643  -0.153  -0.190  0.00  0.00    +0.000 A 
ENDROOT
BRANCH   1  11
ATOM      7  O   UNL     1       1.676   5.371   0.200  0.00  0.00    +0.000 OA
ATOM      8  C   UNL     1       0.770   4.325   0.182  0.00  0.00    +0.000 A 
ATOM      9  C   UNL     1       0.153   3.891   1.334  0.00  0.00    +0.000 A 
ATOM     10  C   UNL     1      -0.751   2.854   1.328  0.00  0.00    +0.000 A 
ATOM     11  C   UNL     1      -1.044   2.227   0.110  0.00  0.00    +0.000 A 
ATOM     12  C   UNL     1      -0.433   2.659  -1.020  0.00  0.00    +0.000 A 
ATOM     13  C   UNL     1       0.464   3.694  -0.997  0.00  0.00    +0.000 A 
ENDBRANCH   1  11
BRANCH   4  14
ATOM     14  C   UNL     1      -4.841  -2.038   0.096  0.00  0.00    +0.000 A 
ATOM     15  C   UNL     1      -6.170  -1.858   0.352  0.00  0.00    +0.000 A 
ATOM     16  C   UNL     1      -7.068  -2.924   0.355  0.00  0.00    +0.000 A 
ATOM     17  C   UNL     1      -6.631  -4.204   0.097  0.00  0.00    +0.000 A 
ATOM     18  C   UNL     1      -5.295  -4.368  -0.158  0.00  0.00    +0.000 A 
ATOM     19  C   UNL     1      -4.414  -3.330  -0.163  0.00  0.00    +0.000 A 
ENDBRANCH   4  14
BRANCH   6  20
ATOM     20  C   UNL     1      -0.246  -0.445  -0.507  0.00  0.00    +0.000 A 
ATOM     21  C   UNL     1       0.542  -1.216   0.329  0.00  0.00    +0.000 A 
ATOM     22  C   UNL     1       1.849  -1.498  -0.006  0.00  0.00    +0.000 A 
ATOM     23  C   UNL     1       2.445  -1.046  -1.161  0.00  0.00    +0.000 A 
ATOM     24  C   UNL     1       1.645  -0.264  -2.005  0.00  0.00    +0.000 A 
ATOM     25  C   UNL     1       0.342   0.012  -1.663  0.00  0.00    +0.000 A 
BRANCH  23  26
ATOM     26  O   UNL     1       3.759  -1.317  -1.525  0.00  0.00    +0.000 OA
BRANCH  26  27
ATOM     27  C   UNL     1       4.595  -2.092  -0.720  0.00  0.00    +0.000 C 
BRANCH  27  28
ATOM     28  C   UNL     1       4.734  -1.391   0.628  0.00  0.00    +0.000 C 
BRANCH  28  29
ATOM     29  N   UNL     1       5.318  -0.080   0.363  0.00  0.00    +0.000 NA
ATOM     30  C   UNL     1       6.682  -0.226  -0.091  0.00  0.00    +0.000 C 
ATOM     31  C   UNL     1       7.580   0.482   0.865  0.00  0.00    +0.000 C 
ATOM     32  C   UNL     1       6.676   1.378   1.683  0.00  0.00    +0.000 C 
ATOM     33  C   UNL     1       5.328   0.763   1.530  0.00  0.00    +0.000 C 
ENDBRANCH  28  29
ENDBRANCH  27  28
ENDBRANCH  26  27
ENDBRANCH  23  26
ENDBRANCH   6  20
TORSDOF 7
