REMARK  Name = 
REMARK  6 active torsions:
REMARK  status: ('A' for Active; 'I' for Inactive)
REMARK    1  A    between atoms: O_2  and  C_3
REMARK    2  A    between atoms: C_8  and  N_9
REMARK    3  A    between atoms: C_10  and  C_12
REMARK    4  A    between atoms: C_16  and  C_17
REMARK    5  A    between atoms: C_17  and  C_18
REMARK    6  A    between atoms: C_18  and  C_19
REMARK                            x       y       z     vdW  Elec       q    Type
REMARK                         _______ _______ _______ _____ _____    ______ ____
ROOT
ATOM      1  C   UNL     1      -1.337   0.593  -1.135  0.00  0.00    +0.000 A 
ATOM      2  S   UNL     1      -1.735  -0.573   0.030  0.00  0.00    +0.000 S 
ATOM      3  C   UNL     1      -0.428  -0.346   1.113  0.00  0.00    +0.000 A 
ATOM      4  N   UNL     1      -0.067  -0.931   2.293  0.00  0.00    +0.000 NA
ATOM      5  C   UNL     1       1.041  -0.571   2.983  0.00  0.00    +0.000 A 
ATOM      6  C   UNL     1       1.782   0.436   2.406  0.00  0.00    +0.000 A 
ATOM      7  C   UNL     1       1.445   1.036   1.228  0.00  0.00    +0.000 A 
ATOM      8  C   UNL     1       0.290   0.654   0.515  0.00  0.00    +0.000 A 
ATOM      9  C   UNL     1      -0.183   1.139  -0.650  0.00  0.00    +0.000 A 
ATOM     10  N   UNL     1       0.463   2.206  -1.411  0.00  0.00    +0.000 NA
ATOM     11  C   UNL     1       2.328   2.105   0.704  0.00  0.00    +0.000 C 
ATOM     12  C   UNL     1       3.754   1.576   0.907  0.00  0.00    +0.000 C 
ATOM     13  C   UNL     1       4.003   1.605   2.387  0.00  0.00    +0.000 C 
ATOM     14  C   UNL     1       2.995   0.873   3.186  0.00  0.00    +0.000 C 
ENDROOT
BRANCH   1  16
ATOM     15  N   UNL     1      -3.257   0.227  -2.684  0.00  0.00    +0.000 NA
ATOM     16  C   UNL     1      -2.061   0.925  -2.370  0.00  0.00    +0.000 C 
ATOM     17  O   UNL     1      -1.663   1.800  -3.154  0.00  0.00    +0.000 OA
BRANCH  15  23
ATOM     18  C   UNL     1      -5.145  -0.161  -4.161  0.00  0.00    +0.000 A 
ATOM     19  C   UNL     1      -5.859   0.107  -5.311  0.00  0.00    +0.000 A 
ATOM     20  C   UNL     1      -5.408   1.067  -6.183  0.00  0.00    +0.000 A 
ATOM     21  C   UNL     1      -4.244   1.777  -5.934  0.00  0.00    +0.000 A 
ATOM     22  C   UNL     1      -3.570   1.472  -4.777  0.00  0.00    +0.000 A 
ATOM     23  C   UNL     1      -3.985   0.518  -3.873  0.00  0.00    +0.000 A 
BRANCH  18  25
ATOM     24  C   UNL     1      -6.809  -1.855  -3.554  0.00  0.00    +0.000 C 
ATOM     25  O   UNL     1      -5.634  -1.143  -3.296  0.00  0.00    +0.000 OA
ENDBRANCH  18  25
ENDBRANCH  15  23
ENDBRANCH   1  16
BRANCH   5  26
ATOM     26  C   UNL     1       1.335  -1.292   4.213  0.00  0.00    +0.000 C 
BRANCH  26  27
ATOM     27  C   UNL     1       2.270  -2.409   4.178  0.00  0.00    +0.000 C 
BRANCH  27  28
ATOM     28  C   UNL     1       3.623  -2.093   3.723  0.00  0.00    +0.000 A 
ATOM     29  C   UNL     1       4.625  -1.683   4.618  0.00  0.00    +0.000 A 
ATOM     30  C   UNL     1       5.903  -1.407   4.183  0.00  0.00    +0.000 A 
ATOM     31  C   UNL     1       6.239  -1.524   2.866  0.00  0.00    +0.000 A 
ATOM     32  C   UNL     1       5.276  -1.931   1.933  0.00  0.00    +0.000 A 
ATOM     33  C   UNL     1       4.012  -2.197   2.401  0.00  0.00    +0.000 A 
ENDBRANCH  27  28
ENDBRANCH  26  27
ENDBRANCH   5  26
TORSDOF 6
