REMARK  Name = 
REMARK  5 active torsions:
REMARK  status: ('A' for Active; 'I' for Inactive)
REMARK    1  A    between atoms: C_19  and  C_20
REMARK    2  A    between atoms: C_23  and  O_24
REMARK    3  A    between atoms: O_24  and  C_25
REMARK    4  A    between atoms: C_25  and  C_26
REMARK    5  A    between atoms: C_26  and  N_27
REMARK                            x       y       z     vdW  Elec       q    Type
REMARK                         _______ _______ _______ _____ _____    ______ ____
ROOT
ATOM      1  O   UNL     1      -0.523   6.135   0.756  0.00  0.00    +0.000 OA
ATOM      2  C   UNL     1      -0.951   4.883   0.259  0.00  0.00    +0.000 A 
ATOM      3  C   UNL     1      -1.067   4.681  -1.097  0.00  0.00    +0.000 A 
ATOM      4  C   UNL     1      -1.494   3.429  -1.586  0.00  0.00    +0.000 A 
ATOM      5  C   UNL     1      -1.782   2.445  -0.682  0.00  0.00    +0.000 A 
ATOM      6  C   UNL     1      -1.682   2.604   0.612  0.00  0.00    +0.000 A 
ATOM      7  C   UNL     1      -1.253   3.859   1.116  0.00  0.00    +0.000 A 
ATOM      8  C   UNL     1      -2.055   1.383   1.256  0.00  0.00    +0.000 A 
ATOM      9  C   UNL     1      -2.121   1.022   2.622  0.00  0.00    +0.000 A 
ATOM     10  C   UNL     1      -2.517  -0.241   3.012  0.00  0.00    +0.000 A 
ATOM     11  C   UNL     1      -2.862  -1.189   2.039  0.00  0.00    +0.000 A 
ATOM     12  C   UNL     1      -3.261  -2.462   2.416  0.00  0.00    +0.000 A 
ATOM     13  C   UNL     1      -3.592  -3.363   1.423  0.00  0.00    +0.000 A 
ATOM     14  O   UNL     1      -4.000  -4.661   1.785  0.00  0.00    +0.000 OA
ATOM     15  C   UNL     1      -3.539  -3.046   0.087  0.00  0.00    +0.000 A 
ATOM     16  C   UNL     1      -3.135  -1.761  -0.264  0.00  0.00    +0.000 A 
ATOM     17  C   UNL     1      -2.801  -0.846   0.709  0.00  0.00    +0.000 A 
ATOM     18  C   UNL     1      -2.394   0.442   0.420  0.00  0.00    +0.000 A 
ATOM     19  C   UNL     1      -2.268   1.012  -1.091  0.00  0.00    +0.000 C 
ENDROOT
BRANCH  19  20
ATOM     20  C   UNL     1      -0.839   0.346  -1.385  0.00  0.00    +0.000 A 
ATOM     21  C   UNL     1      -0.886  -0.930  -1.892  0.00  0.00    +0.000 A 
ATOM     22  C   UNL     1       0.288  -1.589  -2.179  0.00  0.00    +0.000 A 
ATOM     23  C   UNL     1       1.511  -0.949  -1.950  0.00  0.00    +0.000 A 
ATOM     24  C   UNL     1       1.488   0.329  -1.440  0.00  0.00    +0.000 A 
ATOM     25  C   UNL     1       0.304   0.972  -1.159  0.00  0.00    +0.000 A 
BRANCH  23  26
ATOM     26  O   UNL     1       2.712  -1.607  -2.237  0.00  0.00    +0.000 OA
BRANCH  26  27
ATOM     27  C   UNL     1       3.907  -0.897  -1.979  0.00  0.00    +0.000 C 
BRANCH  27  28
ATOM     28  C   UNL     1       4.009  -0.537  -0.517  0.00  0.00    +0.000 C 
BRANCH  28  29
ATOM     29  N   UNL     1       3.993  -1.772   0.237  0.00  0.00    +0.000 NA
ATOM     30  C   UNL     1       5.231  -2.496  -0.036  0.00  0.00    +0.000 C 
ATOM     31  C   UNL     1       6.369  -1.535   0.313  0.00  0.00    +0.000 C 
ATOM     32  C   UNL     1       6.342  -1.400   1.831  0.00  0.00    +0.000 C 
ATOM     33  C   UNL     1       5.026  -0.736   2.216  0.00  0.00    +0.000 C 
ATOM     34  C   UNL     1       3.844  -1.526   1.663  0.00  0.00    +0.000 C 
ENDBRANCH  28  29
ENDBRANCH  27  28
ENDBRANCH  26  27
ENDBRANCH  23  26
ENDBRANCH  19  20
TORSDOF 5
