REMARK  Name = 
REMARK  9 active torsions:
REMARK  status: ('A' for Active; 'I' for Inactive)
REMARK    1  A    between atoms: C_2  and  O_3
REMARK    2  A    between atoms: O_3  and  C_4
REMARK    3  A    between atoms: C_4  and  C_6
REMARK    4  A    between atoms: C_8  and  C_9
REMARK    5  A    between atoms: N_15  and  C_16
REMARK    6  A    between atoms: C_16  and  C_17
REMARK    7  A    between atoms: C_17  and  C_18
REMARK    8  A    between atoms: N_20  and  C_21
REMARK    9  A    between atoms: C_24  and  O_25
REMARK                            x       y       z     vdW  Elec       q    Type
REMARK                         _______ _______ _______ _____ _____    ______ ____
ROOT
ATOM      1  C   UNL     1      -3.027  -0.261  -1.473  0.00  0.00    +0.000 A 
ATOM      2  C   UNL     1      -2.781   0.489  -0.349  0.00  0.00    +0.000 A 
ATOM      3  C   UNL     1      -2.059  -0.260   0.572  0.00  0.00    +0.000 A 
ATOM      4  N   UNL     1      -1.868  -1.452   0.006  0.00  0.00    +0.000 N 
ATOM      5  C   UNL     1      -2.448  -1.476  -1.232  0.00  0.00    +0.000 A 
ATOM      6  C   UNL     1      -2.467  -2.615  -2.189  0.00  0.00    +0.000 C 
ENDROOT
BRANCH   3   7
ATOM      7  C   UNL     1      -1.667   0.243   1.907  0.00  0.00    +0.000 A 
ATOM      8  C   UNL     1      -1.016  -0.527   2.834  0.00  0.00    +0.000 A 
ATOM      9  C   UNL     1      -0.654  -0.054   4.077  0.00  0.00    +0.000 A 
ATOM     10  C   UNL     1      -0.959   1.258   4.411  0.00  0.00    +0.000 A 
ATOM     11  C   UNL     1      -1.612   2.061   3.504  0.00  0.00    +0.000 A 
ATOM     12  C   UNL     1      -1.953   1.542   2.276  0.00  0.00    +0.000 A 
ENDBRANCH   3   7
BRANCH   1  13
ATOM     13  C   UNL     1      -3.762   0.168  -2.674  0.00  0.00    +0.000 C 
ATOM     14  O   UNL     1      -3.916  -0.613  -3.628  0.00  0.00    +0.000 OA
BRANCH  13  15
ATOM     15  O   UNL     1      -4.291   1.438  -2.765  0.00  0.00    +0.000 OA
BRANCH  15  17
ATOM     16  C   UNL     1      -5.401   3.374  -3.542  0.00  0.00    +0.000 C 
ATOM     17  C   UNL     1      -5.001   1.938  -3.857  0.00  0.00    +0.000 C 
ENDBRANCH  15  17
ENDBRANCH  13  15
ENDBRANCH   1  13
BRANCH   4  18
ATOM     18  C   UNL     1      -1.112  -2.534   0.541  0.00  0.00    +0.000 C 
BRANCH  18  19
ATOM     19  C   UNL     1       0.233  -2.782   0.085  0.00  0.00    +0.000 C 
BRANCH  19  20
ATOM     20  C   UNL     1       1.287  -1.797   0.162  0.00  0.00    +0.000 C 
ATOM     21  O   UNL     1       1.078  -0.624   0.514  0.00  0.00    +0.000 OA
ATOM     22  N   UNL     1       2.660  -2.101  -0.164  0.00  0.00    +0.000 NA
BRANCH  22  23
ATOM     23  C   UNL     1       3.663  -1.093  -0.071  0.00  0.00    +0.000 A 
ATOM     24  C   UNL     1       4.982  -1.340  -0.367  0.00  0.00    +0.000 A 
ATOM     25  C   UNL     1       5.934  -0.348  -0.270  0.00  0.00    +0.000 A 
ATOM     26  C   UNL     1       5.592   0.921   0.128  0.00  0.00    +0.000 A 
ATOM     27  C   UNL     1       4.274   1.184   0.429  0.00  0.00    +0.000 A 
ATOM     28  C   UNL     1       3.331   0.184   0.327  0.00  0.00    +0.000 A 
BRANCH  26  29
ATOM     29  O   UNL     1       6.595   1.867   0.204  0.00  0.00    +0.000 OA
ATOM     30  C   UNL     1       6.365   3.210   0.602  0.00  0.00    +0.000 C 
ENDBRANCH  26  29
ENDBRANCH  22  23
ENDBRANCH  19  20
ENDBRANCH  18  19
ENDBRANCH   4  18
TORSDOF 9
