REMARK  Name = 
REMARK  7 active torsions:
REMARK  status: ('A' for Active; 'I' for Inactive)
REMARK    1  A    between atoms: C_2  and  C_26
REMARK    2  A    between atoms: N_3  and  N_4
REMARK    3  A    between atoms: C_5  and  C_7
REMARK    4  A    between atoms: C_7  and  S_8
REMARK    5  A    between atoms: S_8  and  C_9
REMARK    6  A    between atoms: N_17  and  C_18
REMARK    7  A    between atoms: C_18  and  C_19
REMARK                            x       y       z     vdW  Elec       q    Type
REMARK                         _______ _______ _______ _____ _____    ______ ____
ROOT
ATOM      1  C   UNL     1      -2.008   1.372  -0.191  0.00  0.00    +0.000 A 
ATOM      2  N   UNL     1      -2.473   2.587   0.160  0.00  0.00    +0.000 NA
ATOM      3  C   UNL     1      -3.747   2.629  -0.225  0.00  0.00    +0.000 A 
ATOM      4  C   UNL     1      -4.710   3.592  -0.135  0.00  0.00    +0.000 A 
ATOM      5  C   UNL     1      -5.992   3.366  -0.631  0.00  0.00    +0.000 A 
ATOM      6  C   UNL     1      -6.265   2.142  -1.218  0.00  0.00    +0.000 A 
ATOM      7  C   UNL     1      -5.301   1.160  -1.315  0.00  0.00    +0.000 A 
ATOM      8  C   UNL     1      -4.048   1.425  -0.812  0.00  0.00    +0.000 A 
ATOM      9  N   UNL     1      -2.964   0.642  -0.790  0.00  0.00    +0.000 N 
ENDROOT
BRANCH   1  10
ATOM     10  S   UNL     1      -0.346   0.743   0.076  0.00  0.00    +0.000 S 
BRANCH  10  11
ATOM     11  C   UNL     1       0.638   1.185  -1.362  0.00  0.00    +0.000 C 
BRANCH  11  13
ATOM     12  N   UNL     1       2.572   0.006  -0.173  0.00  0.00    +0.000 NA
ATOM     13  C   UNL     1       2.037   0.720  -1.261  0.00  0.00    +0.000 C 
ATOM     14  O   UNL     1       2.802   0.985  -2.224  0.00  0.00    +0.000 OA
BRANCH  12  17
ATOM     15  C   UNL     1       4.457   1.655   0.882  0.00  0.00    +0.000 C 
ATOM     16  C   UNL     1       4.852   0.338   0.330  0.00  0.00    +0.000 C 
ATOM     17  N   UNL     1       3.933  -0.406  -0.156  0.00  0.00    +0.000 NA
BRANCH  16  18
ATOM     18  C   UNL     1       6.264  -0.043   0.370  0.00  0.00    +0.000 A 
ATOM     19  C   UNL     1       7.202   0.811   0.910  0.00  0.00    +0.000 A 
ATOM     20  C   UNL     1       8.538   0.480   0.961  0.00  0.00    +0.000 A 
ATOM     21  C   UNL     1       8.937  -0.738   0.455  0.00  0.00    +0.000 A 
ATOM     22  N   UNL     1       8.018  -1.564  -0.069  0.00  0.00    +0.000 NA
ATOM     23  C   UNL     1       6.716  -1.246  -0.121  0.00  0.00    +0.000 A 
ENDBRANCH  16  18
ENDBRANCH  12  17
ENDBRANCH  11  13
ENDBRANCH  10  11
ENDBRANCH   1  10
BRANCH   9  24
ATOM     24  C   UNL     1      -2.853  -0.706  -1.306  0.00  0.00    +0.000 C 
BRANCH  24  25
ATOM     25  C   UNL     1      -3.217  -1.631  -0.203  0.00  0.00    +0.000 A 
ATOM     26  C   UNL     1      -4.542  -1.995  -0.075  0.00  0.00    +0.000 A 
ATOM     27  C   UNL     1      -4.943  -2.860   0.941  0.00  0.00    +0.000 A 
ATOM     28  C   UNL     1      -4.036  -3.377   1.845  0.00  0.00    +0.000 A 
ATOM     29  C   UNL     1      -4.492  -4.307   2.930  0.00  0.00    +0.000 C 
ATOM     30  C   UNL     1      -2.711  -3.011   1.715  0.00  0.00    +0.000 A 
ATOM     31  C   UNL     1      -2.320  -2.142   0.692  0.00  0.00    +0.000 A 
ENDBRANCH  24  25
ENDBRANCH   9  24
TORSDOF 7
