REMARK  Name = 
REMARK  7 active torsions:
REMARK  status: ('A' for Active; 'I' for Inactive)
REMARK    1  A    between atoms: O_2  and  C_3
REMARK    2  A    between atoms: C_5  and  C_6
REMARK    3  A    between atoms: N_7  and  N_8
REMARK    4  A    between atoms: C_9  and  C_11
REMARK    5  A    between atoms: C_26  and  O_27
REMARK    6  A    between atoms: O_27  and  C_28
REMARK    7  A    between atoms: C_28  and  C_29
REMARK                            x       y       z     vdW  Elec       q    Type
REMARK                         _______ _______ _______ _____ _____    ______ ____
ROOT
ATOM      1  N   UNL     1      -0.688   0.049  -0.060  0.00  0.00    +0.000 NA
ATOM      2  C   UNL     1      -1.523   0.512   0.991  0.00  0.00    +0.000 C 
ATOM      3  O   UNL     1      -1.010   0.873   2.062  0.00  0.00    +0.000 OA
ENDROOT
BRANCH   2   4
ATOM      4  C   UNL     1      -2.972   0.541   0.751  0.00  0.00    +0.000 A 
ATOM      5  C   UNL     1      -3.645   0.167  -0.392  0.00  0.00    +0.000 A 
ATOM      6  C   UNL     1      -4.998   0.357  -0.182  0.00  0.00    +0.000 A 
ATOM      7  C   UNL     1      -5.091   0.848   1.105  0.00  0.00    +0.000 A 
ATOM      8  C   UNL     1      -6.356   1.141   1.608  0.00  0.00    +0.000 A 
ATOM      9  C   UNL     1      -7.481   0.937   0.820  0.00  0.00    +0.000 A 
ATOM     10  C   UNL     1      -7.399   0.446  -0.470  0.00  0.00    +0.000 A 
ATOM     11  C   UNL     1      -8.522   0.242  -1.260  0.00  0.00    +0.000 A 
ATOM     12  C   UNL     1      -8.385  -0.253  -2.549  0.00  0.00    +0.000 A 
ATOM     13  C   UNL     1      -7.136  -0.537  -3.032  0.00  0.00    +0.000 A 
ATOM     14  C   UNL     1      -6.029  -0.326  -2.228  0.00  0.00    +0.000 A 
ATOM     15  C   UNL     1      -6.135   0.165  -0.944  0.00  0.00    +0.000 A 
ATOM     16  O   UNL     1      -3.877   0.942   1.619  0.00  0.00    +0.000 OA
ENDBRANCH   2   4
BRANCH   1  18
ATOM     17  C   UNL     1       1.426  -0.912  -0.527  0.00  0.00    +0.000 C 
ATOM     18  N   UNL     1       0.686  -0.033   0.022  0.00  0.00    +0.000 NA
BRANCH  17  21
ATOM     19  C   UNL     1       4.883   0.101   0.546  0.00  0.00    +0.000 A 
ATOM     20  C   UNL     1       3.509   0.086   0.395  0.00  0.00    +0.000 A 
ATOM     21  C   UNL     1       2.895  -0.891  -0.362  0.00  0.00    +0.000 A 
ATOM     22  C   UNL     1       3.688  -1.847  -0.960  0.00  0.00    +0.000 A 
ATOM     23  C   UNL     1       5.061  -1.856  -0.827  0.00  0.00    +0.000 A 
ATOM     24  C   UNL     1       5.656  -0.863  -0.060  0.00  0.00    +0.000 A 
BRANCH  19  26
ATOM     25  C   UNL     1       4.791   2.100   1.957  0.00  0.00    +0.000 C 
ATOM     26  O   UNL     1       5.519   1.079   1.306  0.00  0.00    +0.000 OA
ENDBRANCH  19  26
BRANCH  24  27
ATOM     27  O   UNL     1       7.027  -0.824   0.108  0.00  0.00    +0.000 OA
BRANCH  27  28
ATOM     28  C   UNL     1       7.907  -1.757  -0.466  0.00  0.00    +0.000 C 
BRANCH  28  29
ATOM     29  C   UNL     1       9.317  -1.347  -0.030  0.00  0.00    +0.000 C 
ATOM     30  C   UNL     1       9.363  -1.389   1.501  0.00  0.00    +0.000 C 
ATOM     31  C   UNL     1       9.521   0.101  -0.441  0.00  0.00    +0.000 C 
ENDBRANCH  28  29
ENDBRANCH  27  28
ENDBRANCH  24  27
ENDBRANCH  17  21
ENDBRANCH   1  18
TORSDOF 7
