REMARK  Name = 
REMARK  6 active torsions:
REMARK  status: ('A' for Active; 'I' for Inactive)
REMARK    1  A    between atoms: O_2  and  C_3
REMARK    2  A    between atoms: C_7  and  C_8
REMARK    3  A    between atoms: C_12  and  C_13
REMARK    4  A    between atoms: C_20  and  N_21
REMARK    5  A    between atoms: C_26  and  C_27
REMARK    6  A    between atoms: C_27  and  C_28
REMARK                            x       y       z     vdW  Elec       q    Type
REMARK                         _______ _______ _______ _____ _____    ______ ____
ROOT
ATOM      1  C   UNL     1       1.787  -0.870   0.061  0.00  0.00    +0.000 A 
ATOM      2  C   UNL     1       1.736   0.466   0.396  0.00  0.00    +0.000 A 
ATOM      3  C   UNL     1       0.453   0.929   0.115  0.00  0.00    +0.000 A 
ATOM      4  N   UNL     1      -0.121   2.145   0.258  0.00  0.00    +0.000 NA
ATOM      5  C   UNL     1      -1.406   2.332  -0.092  0.00  0.00    +0.000 A 
ATOM      6  C   UNL     1      -2.064   1.242  -0.586  0.00  0.00    +0.000 A 
ATOM      7  C   UNL     1      -1.495  -0.021  -0.742  0.00  0.00    +0.000 A 
ATOM      8  N   UNL     1      -0.198  -0.143  -0.371  0.00  0.00    +0.000 N 
ATOM      9  N   UNL     1       0.591  -1.203  -0.402  0.00  0.00    +0.000 NA
ENDROOT
BRANCH   1  14
ATOM     10  C   UNL     1       5.359  -1.806   0.867  0.00  0.00    +0.000 A 
ATOM     11  C   UNL     1       5.329  -3.159   0.602  0.00  0.00    +0.000 A 
ATOM     12  C   UNL     1       4.158  -3.788   0.164  0.00  0.00    +0.000 A 
ATOM     13  C   UNL     1       3.009  -3.053  -0.010  0.00  0.00    +0.000 A 
ATOM     14  C   UNL     1       2.996  -1.691   0.244  0.00  0.00    +0.000 A 
ATOM     15  C   UNL     1       4.182  -1.117   0.676  0.00  0.00    +0.000 A 
BRANCH  10  17
ATOM     16  C   UNL     1       6.530   0.210   1.569  0.00  0.00    +0.000 C 
ATOM     17  O   UNL     1       6.521  -1.174   1.303  0.00  0.00    +0.000 OA
ENDBRANCH  10  17
ENDBRANCH   1  14
BRANCH   5  18
ATOM     18  C   UNL     1      -2.002   3.654   0.089  0.00  0.00    +0.000 A 
ATOM     19  C   UNL     1      -1.275   4.686   0.606  0.00  0.00    +0.000 A 
ATOM     20  C   UNL     1      -1.796   5.947   0.805  0.00  0.00    +0.000 A 
ATOM     21  C   UNL     1      -3.108   6.218   0.479  0.00  0.00    +0.000 A 
ATOM     22  C   UNL     1      -3.862   5.184  -0.048  0.00  0.00    +0.000 A 
ATOM     23  C   UNL     1      -3.313   3.909  -0.242  0.00  0.00    +0.000 A 
ENDBRANCH   5  18
BRANCH   7  24
ATOM     24  N   UNL     1      -2.254  -1.021  -1.260  0.00  0.00    +0.000 N 
ATOM     25  C   UNL     1      -2.039  -1.579  -2.585  0.00  0.00    +0.000 C 
ATOM     26  C   UNL     1      -1.881  -3.076  -2.572  0.00  0.00    +0.000 C 
ATOM     27  C   UNL     1      -2.724  -3.758  -1.523  0.00  0.00    +0.000 C 
ATOM     28  C   UNL     1      -2.596  -3.045  -0.165  0.00  0.00    +0.000 C 
ATOM     29  C   UNL     1      -3.461  -1.698  -0.545  0.00  0.00    +0.000 C 
BRANCH  29  30
ATOM     30  C   UNL     1      -3.318  -0.956   0.899  0.00  0.00    +0.000 C 
BRANCH  30  31
ATOM     31  C   UNL     1      -2.037  -1.239   1.518  0.00  0.00    +0.000 C 
ATOM     32  O   UNL     1      -1.700  -2.526   1.812  0.00  0.00    +0.000 OA
ENDBRANCH  30  31
ENDBRANCH  29  30
ENDBRANCH   7  24
TORSDOF 6
