REMARK  Name = 
REMARK  10 active torsions:
REMARK  status: ('A' for Active; 'I' for Inactive)
REMARK    1  A    between atoms: C_2  and  C_3
REMARK    2  A    between atoms: C_3  and  C_4
REMARK    3  A    between atoms: C_4  and  C_5
REMARK    4  A    between atoms: C_8  and  N_9
REMARK    5  A    between atoms: C_10  and  C_12
REMARK    6  A    between atoms: C_12  and  O_13
REMARK    7  A    between atoms: O_13  and  C_14
REMARK    8  A    between atoms: C_14  and  C_16
REMARK    9  A    between atoms: C_16  and  C_17
REMARK   10  A    between atoms: C_16  and  C_23
REMARK                            x       y       z     vdW  Elec       q    Type
REMARK                         _______ _______ _______ _____ _____    ______ ____
ROOT
ATOM      1  O   UNL     1      -1.682   1.137   0.207  0.00  0.00    +0.000 OA
ENDROOT
BRANCH   1   2
ATOM      2  C   UNL     1      -1.859   0.218   1.225  0.00  0.00    +0.000 C 
ATOM      3  O   UNL     1      -1.081   0.220   2.186  0.00  0.00    +0.000 OA
BRANCH   2   4
ATOM      4  C   UNL     1      -2.992  -0.763   1.143  0.00  0.00    +0.000 C 
BRANCH   4   5
ATOM      5  C   UNL     1      -4.244   0.048   1.089  0.00  0.00    +0.000 A 
ATOM      6  C   UNL     1      -4.270   1.323   0.548  0.00  0.00    +0.000 A 
ATOM      7  C   UNL     1      -5.406   2.072   0.492  0.00  0.00    +0.000 A 
ATOM      8  C   UNL     1      -6.583   1.555   0.991  0.00  0.00    +0.000 A 
ATOM      9  C   UNL     1      -6.590   0.297   1.532  0.00  0.00    +0.000 A 
ATOM     10  C   UNL     1      -5.436  -0.454   1.584  0.00  0.00    +0.000 A 
ENDBRANCH   4   5
BRANCH   4  11
ATOM     11  C   UNL     1      -2.880  -1.558  -0.083  0.00  0.00    +0.000 A 
ATOM     12  C   UNL     1      -2.234  -1.058  -1.183  0.00  0.00    +0.000 A 
ATOM     13  C   UNL     1      -2.130  -1.825  -2.357  0.00  0.00    +0.000 A 
ATOM     14  C   UNL     1      -2.677  -3.070  -2.389  0.00  0.00    +0.000 A 
ATOM     15  C   UNL     1      -3.330  -3.593  -1.296  0.00  0.00    +0.000 A 
ATOM     16  C   UNL     1      -3.419  -2.815  -0.149  0.00  0.00    +0.000 A 
ENDBRANCH   4  11
ENDBRANCH   2   4
ENDBRANCH   1   2
BRANCH   1  17
ATOM     17  C   UNL     1      -0.659   2.079   0.204  0.00  0.00    +0.000 C 
BRANCH  17  19
ATOM     18  N   UNL     1       1.888   2.090   0.236  0.00  0.00    +0.000 NA
ATOM     19  C   UNL     1       0.649   1.394   0.228  0.00  0.00    +0.000 C 
ATOM     20  O   UNL     1       0.686   0.140   0.241  0.00  0.00    +0.000 OA
BRANCH  18  24
ATOM     21  C   UNL     1       5.559   0.008   0.304  0.00  0.00    +0.000 A 
ATOM     22  C   UNL     1       4.361  -0.718   0.297  0.00  0.00    +0.000 A 
ATOM     23  C   UNL     1       3.170  -0.029   0.275  0.00  0.00    +0.000 A 
ATOM     24  C   UNL     1       3.093   1.344   0.259  0.00  0.00    +0.000 A 
ATOM     25  C   UNL     1       4.281   2.038   0.267  0.00  0.00    +0.000 A 
ATOM     26  C   UNL     1       5.495   1.393   0.289  0.00  0.00    +0.000 A 
BRANCH  21  27
ATOM     27  C   UNL     1       6.809  -0.762   0.358  0.00  0.00    +0.000 C 
BRANCH  27  28
ATOM     28  C   UNL     1       7.361  -1.235  -0.929  0.00  0.00    +0.000 C 
BRANCH  28  30
ATOM     29  C   UNL     1       6.445   0.650  -2.226  0.00  0.00    +0.000 C 
ATOM     30  C   UNL     1       7.676  -0.125  -1.867  0.00  0.00    +0.000 C 
ENDBRANCH  28  30
ENDBRANCH  27  28
ENDBRANCH  21  27
ENDBRANCH  18  24
ENDBRANCH  17  19
ENDBRANCH   1  17
TORSDOF 10
