REMARK  Name = 
REMARK  8 active torsions:
REMARK  status: ('A' for Active; 'I' for Inactive)
REMARK    1  A    between atoms: C_2  and  C_5
REMARK    2  A    between atoms: C_8  and  N_9
REMARK    3  A    between atoms: C_10  and  C_12
REMARK    4  A    between atoms: C_12  and  O_13
REMARK    5  A    between atoms: O_13  and  C_14
REMARK    6  A    between atoms: C_14  and  C_16
REMARK    7  A    between atoms: C_21  and  N_22
REMARK    8  A    between atoms: N_22  and  C_23
REMARK                            x       y       z     vdW  Elec       q    Type
REMARK                         _______ _______ _______ _____ _____    ______ ____
ROOT
ATOM      1  O   UNL     1      -1.386   0.236  -1.712  0.00  0.00    +0.000 OA
ENDROOT
BRANCH   1   2
ATOM      2  C   UNL     1      -1.333   1.323  -0.891  0.00  0.00    +0.000 C 
ATOM      3  O   UNL     1      -0.417   2.180  -1.095  0.00  0.00    +0.000 OA
BRANCH   2   4
ATOM      4  C   UNL     1      -2.240   1.572   0.191  0.00  0.00    +0.000 A 
ATOM      5  C   UNL     1      -2.022   2.698   0.992  0.00  0.00    +0.000 A 
ATOM      6  C   UNL     1      -2.784   3.021   2.084  0.00  0.00    +0.000 A 
ATOM      7  C   UNL     1      -3.833   2.215   2.441  0.00  0.00    +0.000 A 
ATOM      8  C   UNL     1      -4.048   1.107   1.653  0.00  0.00    +0.000 A 
ATOM      9  C   UNL     1      -3.283   0.769   0.544  0.00  0.00    +0.000 A 
BRANCH   9  10
ATOM     10  N   UNL     1      -3.610  -0.368  -0.266  0.00  0.00    +0.000 NA
BRANCH  10  11
ATOM     11  C   UNL     1      -4.689  -1.169   0.272  0.00  0.00    +0.000 A 
ATOM     12  C   UNL     1      -5.869  -1.408  -0.391  0.00  0.00    +0.000 A 
ATOM     13  C   UNL     1      -6.853  -2.221   0.183  0.00  0.00    +0.000 A 
ATOM     14  C   UNL     1      -6.624  -2.796   1.436  0.00  0.00    +0.000 A 
ATOM     15  C   UNL     1      -5.439  -2.567   2.121  0.00  0.00    +0.000 A 
ATOM     16  C   UNL     1      -4.489  -1.743   1.505  0.00  0.00    +0.000 A 
ENDBRANCH  10  11
ENDBRANCH   9  10
ENDBRANCH   2   4
ENDBRANCH   1   2
BRANCH   1  17
ATOM     17  C   UNL     1      -0.311   0.239  -2.726  0.00  0.00    +0.000 C 
BRANCH  17  19
ATOM     18  N   UNL     1       2.227   0.588  -2.557  0.00  0.00    +0.000 NA
ATOM     19  C   UNL     1       0.990   0.239  -1.979  0.00  0.00    +0.000 C 
ATOM     20  O   UNL     1       0.952  -0.086  -0.766  0.00  0.00    +0.000 OA
BRANCH  18  24
ATOM     21  C   UNL     1       5.589   0.435  -0.055  0.00  0.00    +0.000 A 
ATOM     22  C   UNL     1       4.695  -0.596  -0.111  0.00  0.00    +0.000 A 
ATOM     23  C   UNL     1       3.582  -0.564  -0.957  0.00  0.00    +0.000 A 
ATOM     24  C   UNL     1       3.400   0.566  -1.753  0.00  0.00    +0.000 A 
ATOM     25  C   UNL     1       4.273   1.615  -1.718  0.00  0.00    +0.000 A 
ATOM     26  C   UNL     1       5.379   1.545  -0.858  0.00  0.00    +0.000 A 
BRANCH  21  28
ATOM     27  C   UNL     1       6.188   0.009   2.230  0.00  0.00    +0.000 C 
ATOM     28  C   UNL     1       6.761   0.326   0.847  0.00  0.00    +0.000 C 
ATOM     29  C   UNL     1       7.592  -0.894   0.477  0.00  0.00    +0.000 C 
ATOM     30  C   UNL     1       7.603   1.574   0.858  0.00  0.00    +0.000 C 
ENDBRANCH  21  28
ENDBRANCH  18  24
ENDBRANCH  17  19
ENDBRANCH   1  17
TORSDOF 8
