REMARK  Name = 
REMARK  7 active torsions:
REMARK  status: ('A' for Active; 'I' for Inactive)
REMARK    1  A    between atoms: O_2  and  C_3
REMARK    2  A    between atoms: C_6  and  C_7
REMARK    3  A    between atoms: C_9  and  C_10
REMARK    4  A    between atoms: C_17  and  C_18
REMARK    5  A    between atoms: C_18  and  C_20
REMARK    6  A    between atoms: C_27  and  O_28
REMARK    7  A    between atoms: O_28  and  C_29
REMARK                            x       y       z     vdW  Elec       q    Type
REMARK                         _______ _______ _______ _____ _____    ______ ____
ROOT
ATOM      1  C   UNL     1      -0.385  -0.184   0.519  0.00  0.00    +0.000 A 
ATOM      2  O   UNL     1      -0.630   1.012   0.046  0.00  0.00    +0.000 OA
ATOM      3  C   UNL     1      -1.877   1.200  -0.212  0.00  0.00    +0.000 A 
ATOM      4  C   UNL     1      -2.522   0.013   0.121  0.00  0.00    +0.000 A 
ATOM      5  C   UNL     1      -1.566  -0.833   0.574  0.00  0.00    +0.000 A 
ENDROOT
BRANCH   1   9
ATOM      6  C   UNL     1       3.543  -1.394   1.556  0.00  0.00    +0.000 A 
ATOM      7  C   UNL     1       2.484  -2.247   1.755  0.00  0.00    +0.000 A 
ATOM      8  C   UNL     1       1.195  -1.902   1.436  0.00  0.00    +0.000 A 
ATOM      9  C   UNL     1       0.959  -0.663   0.901  0.00  0.00    +0.000 A 
ATOM     10  C   UNL     1       2.032   0.180   0.708  0.00  0.00    +0.000 A 
ATOM     11  C   UNL     1       3.333  -0.141   1.019  0.00  0.00    +0.000 A 
BRANCH   6  13
ATOM     12  C   UNL     1       5.215  -2.977   2.431  0.00  0.00    +0.000 C 
ATOM     13  O   UNL     1       4.852  -1.724   1.873  0.00  0.00    +0.000 OA
ENDBRANCH   6  13
BRANCH  11  14
ATOM     14  O   UNL     1       4.393   0.739   0.810  0.00  0.00    +0.000 OA
BRANCH  14  15
ATOM     15  C   UNL     1       4.168   2.022   0.259  0.00  0.00    +0.000 C 
ATOM     16  C   UNL     1       5.500   2.718   0.161  0.00  0.00    +0.000 C 
ATOM     17  C   UNL     1       6.082   2.258  -1.130  0.00  0.00    +0.000 C 
ATOM     18  C   UNL     1       4.985   1.746  -1.999  0.00  0.00    +0.000 C 
ATOM     19  C   UNL     1       3.718   1.816  -1.173  0.00  0.00    +0.000 C 
ENDBRANCH  14  15
ENDBRANCH  11  14
ENDBRANCH   1   9
BRANCH   3  20
ATOM     20  C   UNL     1      -2.432   2.425  -0.743  0.00  0.00    +0.000 A 
ATOM     21  C   UNL     1      -1.645   3.512  -1.019  0.00  0.00    +0.000 A 
ATOM     22  C   UNL     1      -2.137   4.697  -1.524  0.00  0.00    +0.000 A 
ATOM     23  C   UNL     1      -3.503   4.771  -1.760  0.00  0.00    +0.000 A 
ATOM     24  C   UNL     1      -4.279   3.687  -1.483  0.00  0.00    +0.000 A 
ATOM     25  N   UNL     1      -3.742   2.543  -0.986  0.00  0.00    +0.000 NA
ENDBRANCH   3  20
BRANCH   5  26
ATOM     26  C   UNL     1      -1.785  -2.327   1.055  0.00  0.00    +0.000 C 
ATOM     27  O   UNL     1      -0.794  -2.965   0.012  0.00  0.00    +0.000 OA
BRANCH  26  28
ATOM     28  C   UNL     1      -3.079  -2.679   0.153  0.00  0.00    +0.000 A 
ATOM     29  C   UNL     1      -3.113  -2.459  -1.147  0.00  0.00    +0.000 A 
ATOM     30  C   UNL     1      -4.228  -2.769  -1.879  0.00  0.00    +0.000 A 
ATOM     31  C   UNL     1      -5.304  -3.307  -1.253  0.00  0.00    +0.000 A 
ATOM     32  C   UNL     1      -5.296  -3.546   0.092  0.00  0.00    +0.000 A 
ATOM     33  C   UNL     1      -4.143  -3.221   0.827  0.00  0.00    +0.000 A 
ENDBRANCH  26  28
ENDBRANCH   5  26
TORSDOF 7
