REMARK  Name = 
REMARK  6 active torsions:
REMARK  status: ('A' for Active; 'I' for Inactive)
REMARK    1  A    between atoms: C_2  and  O_3
REMARK    2  A    between atoms: O_3  and  C_4
REMARK    3  A    between atoms: C_7  and  N_8
REMARK    4  A    between atoms: C_10  and  C_11
REMARK    5  A    between atoms: N_13  and  C_14
REMARK    6  A    between atoms: C_17  and  C_18
REMARK                            x       y       z     vdW  Elec       q    Type
REMARK                         _______ _______ _______ _____ _____    ______ ____
ROOT
ATOM      1  N   UNL     1       2.236  -0.863   0.126  0.00  0.00    +0.000 N 
ATOM      2  N   UNL     1       1.112  -0.165  -0.020  0.00  0.00    +0.000 NA
ATOM      3  C   UNL     1      -0.086  -0.699   0.210  0.00  0.00    +0.000 A 
ATOM      4  C   UNL     1      -0.187  -2.012   0.613  0.00  0.00    +0.000 A 
ATOM      5  C   UNL     1      -1.388  -2.609   0.863  0.00  0.00    +0.000 A 
ATOM      6  C   UNL     1      -1.483  -3.913   1.263  0.00  0.00    +0.000 A 
ATOM      7  C   UNL     1      -0.340  -4.659   1.422  0.00  0.00    +0.000 A 
ATOM      8  C   UNL     1       0.889  -4.089   1.179  0.00  0.00    +0.000 A 
ATOM      9  C   UNL     1       0.957  -2.776   0.778  0.00  0.00    +0.000 A 
ATOM     10  C   UNL     1       2.159  -2.129   0.513  0.00  0.00    +0.000 A 
ATOM     11  O   UNL     1       3.239  -2.772   0.645  0.00  0.00    +0.000 OA
ENDROOT
BRANCH   1  15
ATOM     12  C   UNL     1       5.978   0.926  -0.638  0.00  0.00    +0.000 A 
ATOM     13  C   UNL     1       4.895   1.677  -0.258  0.00  0.00    +0.000 A 
ATOM     14  C   UNL     1       3.643   1.114   0.002  0.00  0.00    +0.000 A 
ATOM     15  C   UNL     1       3.501  -0.252  -0.132  0.00  0.00    +0.000 A 
ATOM     16  C   UNL     1       4.568  -1.040  -0.512  0.00  0.00    +0.000 A 
ATOM     17  C   UNL     1       5.782  -0.445  -0.758  0.00  0.00    +0.000 A 
BRANCH  12  18
ATOM     18  O   UNL     1       7.228   1.419  -0.907  0.00  0.00    +0.000 OA
BRANCH  18  20
ATOM     19  C   UNL     1       6.633   3.525  -1.800  0.00  0.00    +0.000 C 
ATOM     20  C   UNL     1       7.540   2.797  -0.817  0.00  0.00    +0.000 C 
ENDBRANCH  18  20
ENDBRANCH  12  18
ENDBRANCH   1  15
BRANCH   3  21
ATOM     21  C   UNL     1      -1.325   0.087   0.044  0.00  0.00    +0.000 C 
ATOM     22  O   UNL     1      -1.259   1.280  -0.320  0.00  0.00    +0.000 OA
ATOM     23  N   UNL     1      -2.588  -0.494   0.293  0.00  0.00    +0.000 NA
BRANCH  23  24
ATOM     24  C   UNL     1      -3.793   0.287   0.126  0.00  0.00    +0.000 A 
ATOM     25  C   UNL     1      -5.029  -0.256   0.362  0.00  0.00    +0.000 A 
ATOM     26  C   UNL     1      -6.147   0.524   0.190  0.00  0.00    +0.000 A 
ATOM     27  C   UNL     1      -6.096   1.843  -0.211  0.00  0.00    +0.000 A 
ATOM     28  C   UNL     1      -4.821   2.351  -0.439  0.00  0.00    +0.000 A 
ATOM     29  C   UNL     1      -3.694   1.601  -0.277  0.00  0.00    +0.000 A 
BRANCH  27  30
ATOM     30  C   UNL     1      -7.326   2.658  -0.387  0.00  0.00    +0.000 C 
ATOM     31  C   UNL     1      -7.352   3.356  -1.731  0.00  0.00    +0.000 C 
ATOM     32  C   UNL     1      -7.446   3.730   0.677  0.00  0.00    +0.000 C 
ENDBRANCH  27  30
ENDBRANCH  23  24
ENDBRANCH   3  21
TORSDOF 6
