REMARK  Name = 
REMARK  8 active torsions:
REMARK  status: ('A' for Active; 'I' for Inactive)
REMARK    1  A    between atoms: C_6  and  N_7
REMARK    2  A    between atoms: C_8  and  C_10
REMARK    3  A    between atoms: C_10  and  O_11
REMARK    4  A    between atoms: O_11  and  C_12
REMARK    5  A    between atoms: C_12  and  C_14
REMARK    6  A    between atoms: C_14  and  C_15
REMARK    7  A    between atoms: C_15  and  C_16
REMARK    8  A    between atoms: C_15  and  C_22
REMARK                            x       y       z     vdW  Elec       q    Type
REMARK                         _______ _______ _______ _____ _____    ______ ____
ROOT
ATOM      1  C   UNL     1      -0.364  -0.065  -0.410  0.00  0.00    +0.000 C 
ATOM      2  O   UNL     1       0.337   0.172  -1.424  0.00  0.00    +0.000 OA
ENDROOT
BRANCH   1   3
ATOM      3  O   UNL     1      -0.304  -1.328   0.188  0.00  0.00    +0.000 OA
BRANCH   3   4
ATOM      4  C   UNL     1       0.506  -2.361  -0.285  0.00  0.00    +0.000 C 
BRANCH   4   6
ATOM      5  N   UNL     1       2.371  -0.763   0.180  0.00  0.00    +0.000 NA
ATOM      6  C   UNL     1       1.948  -2.017  -0.278  0.00  0.00    +0.000 C 
ATOM      7  O   UNL     1       2.781  -2.856  -0.684  0.00  0.00    +0.000 OA
BRANCH   5  13
ATOM      8  C   UNL     1       7.823   0.912   0.183  0.00  0.00    +0.000 C 
ATOM      9  C   UNL     1       6.410   0.466   0.213  0.00  0.00    +0.000 A 
ATOM     10  C   UNL     1       5.607   0.680  -0.871  0.00  0.00    +0.000 A 
ATOM     11  C   UNL     1       4.289   0.277  -0.874  0.00  0.00    +0.000 A 
ATOM     12  C   UNL     1       3.493   0.557  -2.109  0.00  0.00    +0.000 C 
ATOM     13  C   UNL     1       3.741  -0.356   0.219  0.00  0.00    +0.000 A 
ATOM     14  C   UNL     1       4.542  -0.576   1.313  0.00  0.00    +0.000 A 
ATOM     15  C   UNL     1       3.955  -1.265   2.512  0.00  0.00    +0.000 C 
ATOM     16  C   UNL     1       5.846  -0.173   1.307  0.00  0.00    +0.000 A 
ENDBRANCH   5  13
ENDBRANCH   4   6
ENDBRANCH   3   4
ENDBRANCH   1   3
BRANCH   1  17
ATOM     17  C   UNL     1      -1.272   0.952   0.199  0.00  0.00    +0.000 C 
BRANCH  17  18
ATOM     18  C   UNL     1      -2.567   0.925  -0.585  0.00  0.00    +0.000 C 
BRANCH  18  19
ATOM     19  C   UNL     1      -3.545   1.909  -0.056  0.00  0.00    +0.000 A 
ATOM     20  C   UNL     1      -3.641   2.247   1.272  0.00  0.00    +0.000 A 
ATOM     21  C   UNL     1      -4.566   3.165   1.718  0.00  0.00    +0.000 A 
ATOM     22  C   UNL     1      -5.407   3.743   0.775  0.00  0.00    +0.000 A 
ATOM     23  C   UNL     1      -5.346   3.434  -0.560  0.00  0.00    +0.000 A 
ATOM     24  C   UNL     1      -4.401   2.509  -0.954  0.00  0.00    +0.000 A 
ENDBRANCH  18  19
BRANCH  18  25
ATOM     25  C   UNL     1      -3.142  -0.446  -0.634  0.00  0.00    +0.000 A 
ATOM     26  C   UNL     1      -3.783  -0.824  -1.793  0.00  0.00    +0.000 A 
ATOM     27  C   UNL     1      -4.357  -2.057  -1.971  0.00  0.00    +0.000 A 
ATOM     28  C   UNL     1      -4.274  -2.952  -0.915  0.00  0.00    +0.000 A 
ATOM     29  C   UNL     1      -3.624  -2.580   0.269  0.00  0.00    +0.000 A 
ATOM     30  C   UNL     1      -3.056  -1.328   0.416  0.00  0.00    +0.000 A 
ENDBRANCH  18  25
ENDBRANCH  17  18
ENDBRANCH   1  17
TORSDOF 8
