REMARK  Name = 
REMARK  9 active torsions:
REMARK  status: ('A' for Active; 'I' for Inactive)
REMARK    1  A    between atoms: C_2  and  C_3
REMARK    2  A    between atoms: C_3  and  C_4
REMARK    3  A    between atoms: C_4  and  C_5
REMARK    4  A    between atoms: C_5  and  C_6
REMARK    5  A    between atoms: C_6  and  O_7
REMARK    6  A    between atoms: O_7  and  C_8
REMARK    7  A    between atoms: C_8  and  C_10
REMARK    8  A    between atoms: N_13  and  C_14
REMARK    9  A    between atoms: C_14  and  C_16
REMARK                            x       y       z     vdW  Elec       q    Type
REMARK                         _______ _______ _______ _____ _____    ______ ____
ROOT
ATOM      1  C   UNL     1       0.782   0.449   0.508  0.00  0.00    +0.000 A 
ATOM      2  C   UNL     1      -0.021   1.418   1.053  0.00  0.00    +0.000 A 
ATOM      3  N   UNL     1       0.388   2.716   1.444  0.00  0.00    +0.000 NA
ATOM      4  N   UNL     1      -1.253   0.884   1.135  0.00  0.00    +0.000 N 
ATOM      5  C   UNL     1      -1.277  -0.323   0.690  0.00  0.00    +0.000 A 
ATOM      6  N   UNL     1      -2.229  -1.241   0.565  0.00  0.00    +0.000 NA
ATOM      7  C   UNL     1      -2.031  -2.472   0.061  0.00  0.00    +0.000 A 
ATOM      8  C   UNL     1      -3.068  -3.400  -0.049  0.00  0.00    +0.000 A 
ATOM      9  C   UNL     1      -2.828  -4.651  -0.570  0.00  0.00    +0.000 A 
ATOM     10  C   UNL     1      -1.544  -4.949  -0.974  0.00  0.00    +0.000 A 
ATOM     11  C   UNL     1      -0.515  -4.037  -0.869  0.00  0.00    +0.000 A 
ATOM     12  C   UNL     1      -0.747  -2.793  -0.352  0.00  0.00    +0.000 A 
ATOM     13  N   UNL     1       0.252  -1.866  -0.234  0.00  0.00    +0.000 NA
ATOM     14  C   UNL     1       0.004  -0.649   0.276  0.00  0.00    +0.000 A 
ENDROOT
BRANCH   1  15
ATOM     15  C   UNL     1       2.236   0.599   0.233  0.00  0.00    +0.000 C 
ATOM     16  O   UNL     1       2.856  -0.365  -0.268  0.00  0.00    +0.000 OA
BRANCH  15  17
ATOM     17  O   UNL     1       2.899   1.744   0.508  0.00  0.00    +0.000 OA
BRANCH  17  18
ATOM     18  C   UNL     1       4.166   2.179   0.383  0.00  0.00    +0.000 C 
BRANCH  18  19
ATOM     19  C   UNL     1       5.215   1.446   1.114  0.00  0.00    +0.000 C 
BRANCH  19  20
ATOM     20  C   UNL     1       5.401   0.047   0.640  0.00  0.00    +0.000 C 
BRANCH  20  21
ATOM     21  C   UNL     1       5.873   0.039  -0.826  0.00  0.00    +0.000 C 
BRANCH  21  23
ATOM     22  C   UNL     1       7.695   0.806  -2.306  0.00  0.00    +0.000 C 
ATOM     23  C   UNL     1       7.195   0.791  -0.876  0.00  0.00    +0.000 C 
ENDBRANCH  21  23
ENDBRANCH  20  21
ENDBRANCH  19  20
ENDBRANCH  18  19
ENDBRANCH  17  18
ENDBRANCH  15  17
ENDBRANCH   1  15
BRANCH   4  24
ATOM     24  C   UNL     1      -2.463   1.711   1.719  0.00  0.00    +0.000 C 
ATOM     25  C   UNL     1      -3.258   0.445   2.466  0.00  0.00    +0.000 C 
BRANCH  24  26
ATOM     26  C   UNL     1      -3.296   1.754   0.384  0.00  0.00    +0.000 A 
ATOM     27  C   UNL     1      -3.025   2.833  -0.407  0.00  0.00    +0.000 A 
ATOM     28  C   UNL     1      -3.706   2.994  -1.641  0.00  0.00    +0.000 A 
ATOM     29  C   UNL     1      -4.626   2.046  -2.001  0.00  0.00    +0.000 A 
ATOM     30  C   UNL     1      -4.883   0.977  -1.199  0.00  0.00    +0.000 A 
ATOM     31  C   UNL     1      -4.194   0.867  -0.010  0.00  0.00    +0.000 A 
ENDBRANCH  24  26
ENDBRANCH   4  24
TORSDOF 9
