REMARK  Name = 
REMARK  6 active torsions:
REMARK  status: ('A' for Active; 'I' for Inactive)
REMARK    1  A    between atoms: C_5  and  N_6
REMARK    2  A    between atoms: C_10  and  N_11
REMARK    3  A    between atoms: C_12  and  C_14
REMARK    4  A    between atoms: C_14  and  O_15
REMARK    5  A    between atoms: O_15  and  C_16
REMARK    6  A    between atoms: C_19  and  C_20
REMARK                            x       y       z     vdW  Elec       q    Type
REMARK                         _______ _______ _______ _____ _____    ______ ____
ROOT
ATOM      1  N   UNL     1       0.256   1.270  -1.218  0.00  0.00    +0.000 NA
ATOM      2  C   UNL     1       0.174   1.800  -2.530  0.00  0.00    +0.000 C 
ATOM      3  O   UNL     1       0.869   1.221  -3.405  0.00  0.00    +0.000 OA
ENDROOT
BRANCH   1   8
ATOM      4  N   UNL     1       2.946  -0.959  -0.352  0.00  0.00    +0.000 N 
ATOM      5  N   UNL     1       1.973  -1.817  -0.607  0.00  0.00    +0.000 NA
ATOM      6  C   UNL     1       0.835  -1.198  -0.962  0.00  0.00    +0.000 A 
ATOM      7  C   UNL     1      -0.482  -1.806  -1.327  0.00  0.00    +0.000 C 
ATOM      8  C   UNL     1       1.083   0.152  -0.936  0.00  0.00    +0.000 A 
ATOM      9  C   UNL     1       2.400   0.269  -0.554  0.00  0.00    +0.000 A 
ATOM     10  C   UNL     1       3.188   1.520  -0.365  0.00  0.00    +0.000 C 
BRANCH   4  15
ATOM     11  C   UNL     1       8.354  -2.021   1.246  0.00  0.00    +0.000 C 
ATOM     12  C   UNL     1       6.931  -1.758   0.835  0.00  0.00    +0.000 A 
ATOM     13  C   UNL     1       5.913  -2.629   1.159  0.00  0.00    +0.000 A 
ATOM     14  C   UNL     1       4.598  -2.359   0.764  0.00  0.00    +0.000 A 
ATOM     15  C   UNL     1       4.286  -1.232   0.050  0.00  0.00    +0.000 A 
ATOM     16  C   UNL     1       5.304  -0.362  -0.273  0.00  0.00    +0.000 A 
ATOM     17  C   UNL     1       6.623  -0.625   0.119  0.00  0.00    +0.000 A 
ENDBRANCH   4  15
ENDBRANCH   1   8
BRANCH   2  18
ATOM     18  C   UNL     1      -0.688   2.966  -2.823  0.00  0.00    +0.000 C 
BRANCH  18  19
ATOM     19  O   UNL     1      -1.332   3.352  -1.633  0.00  0.00    +0.000 OA
BRANCH  19  20
ATOM     20  C   UNL     1      -2.195   2.548  -0.896  0.00  0.00    +0.000 A 
ATOM     21  C   UNL     1      -2.525   1.258  -1.256  0.00  0.00    +0.000 A 
ATOM     22  C   UNL     1      -3.387   0.484  -0.500  0.00  0.00    +0.000 A 
ATOM     23  C   UNL     1      -3.964   0.966   0.658  0.00  0.00    +0.000 A 
ATOM     24  C   UNL     1      -3.631   2.259   1.016  0.00  0.00    +0.000 A 
ATOM     25  C   UNL     1      -2.771   3.032   0.263  0.00  0.00    +0.000 A 
BRANCH  23  26
ATOM     26  C   UNL     1      -4.874   0.154   1.458  0.00  0.00    +0.000 A 
ATOM     27  C   UNL     1      -5.879   0.788   2.157  0.00  0.00    +0.000 A 
ATOM     28  C   UNL     1      -6.785   0.106   2.939  0.00  0.00    +0.000 A 
ATOM     29  C   UNL     1      -6.706  -1.263   3.045  0.00  0.00    +0.000 A 
ATOM     30  C   UNL     1      -5.713  -1.927   2.358  0.00  0.00    +0.000 A 
ATOM     31  C   UNL     1      -4.803  -1.216   1.569  0.00  0.00    +0.000 A 
ENDBRANCH  23  26
ENDBRANCH  19  20
ENDBRANCH  18  19
ENDBRANCH   2  18
TORSDOF 6
