REMARK  Name = 
REMARK  8 active torsions:
REMARK  status: ('A' for Active; 'I' for Inactive)
REMARK    1  A    between atoms: C_2  and  O_3
REMARK    2  A    between atoms: O_3  and  C_4
REMARK    3  A    between atoms: C_11  and  O_12
REMARK    4  A    between atoms: C_18  and  C_19
REMARK    5  A    between atoms: C_19  and  C_20
REMARK    6  A    between atoms: C_23  and  O_24
REMARK    7  A    between atoms: O_24  and  C_25
REMARK    8  A    between atoms: C_25  and  C_26
REMARK                            x       y       z     vdW  Elec       q    Type
REMARK                         _______ _______ _______ _____ _____    ______ ____
ROOT
ATOM      1  C   UNL     1      -4.375  -1.735  -0.222  0.00  0.00    +0.000 C 
ATOM      2  O   UNL     1      -5.506  -1.887   0.304  0.00  0.00    +0.000 OA
ATOM      3  N   UNL     1      -3.288  -1.469   0.613  0.00  0.00    +0.000 N 
ATOM      4  C   UNL     1      -3.389  -1.363   2.005  0.00  0.00    +0.000 C 
ATOM      5  C   UNL     1      -3.354   0.112   2.282  0.00  0.00    +0.000 C 
ATOM      6  C   UNL     1      -2.285   0.706   1.476  0.00  0.00    +0.000 A 
ATOM      7  C   UNL     1      -1.934   2.020   1.851  0.00  0.00    +0.000 A 
ATOM      8  C   UNL     1      -0.951   2.716   1.179  0.00  0.00    +0.000 A 
ATOM      9  C   UNL     1      -0.286   2.136   0.115  0.00  0.00    +0.000 A 
ATOM     10  O   UNL     1       0.715   2.853  -0.566  0.00  0.00    +0.000 OA
ATOM     11  C   UNL     1      -0.617   0.855  -0.261  0.00  0.00    +0.000 A 
ATOM     12  C   UNL     1      -1.616   0.204   0.456  0.00  0.00    +0.000 A 
ATOM     13  C   UNL     1      -1.898  -1.290  -0.110  0.00  0.00    +0.000 C 
ENDROOT
BRANCH   8  14
ATOM     14  O   UNL     1      -0.569   4.013   1.510  0.00  0.00    +0.000 OA
ATOM     15  C   UNL     1      -1.249   4.613   2.599  0.00  0.00    +0.000 C 
ENDBRANCH   8  14
BRANCH   1  16
ATOM     16  O   UNL     1      -4.235  -1.833  -1.590  0.00  0.00    +0.000 OA
BRANCH  16  18
ATOM     17  C   UNL     1      -5.080  -2.182  -3.835  0.00  0.00    +0.000 C 
ATOM     18  C   UNL     1      -5.393  -2.105  -2.354  0.00  0.00    +0.000 C 
ENDBRANCH  16  18
ENDBRANCH   1  16
BRANCH  13  19
ATOM     19  C   UNL     1      -1.039  -2.025   1.095  0.00  0.00    +0.000 C 
BRANCH  19  20
ATOM     20  C   UNL     1       0.365  -2.025   0.661  0.00  0.00    +0.000 A 
ATOM     21  C   UNL     1       1.163  -0.976   1.004  0.00  0.00    +0.000 A 
ATOM     22  C   UNL     1       2.495  -0.904   0.652  0.00  0.00    +0.000 A 
ATOM     23  C   UNL     1       3.061  -1.920  -0.073  0.00  0.00    +0.000 A 
ATOM     24  C   UNL     1       2.241  -2.988  -0.420  0.00  0.00    +0.000 A 
ATOM     25  C   UNL     1       0.914  -3.064  -0.072  0.00  0.00    +0.000 A 
BRANCH  23  26
ATOM     26  O   UNL     1       4.382  -1.855  -0.424  0.00  0.00    +0.000 OA
BRANCH  26  27
ATOM     27  C   UNL     1       5.242  -0.811  -0.105  0.00  0.00    +0.000 C 
BRANCH  27  28
ATOM     28  C   UNL     1       4.803   0.474  -0.674  0.00  0.00    +0.000 A 
ATOM     29  C   UNL     1       3.747   0.555  -1.551  0.00  0.00    +0.000 A 
ATOM     30  C   UNL     1       3.355   1.758  -2.076  0.00  0.00    +0.000 A 
ATOM     31  C   UNL     1       4.027   2.900  -1.720  0.00  0.00    +0.000 A 
ATOM     32  C   UNL     1       5.099   2.873  -0.840  0.00  0.00    +0.000 A 
ATOM     33  C   UNL     1       5.454   1.647  -0.341  0.00  0.00    +0.000 A 
ENDBRANCH  27  28
ENDBRANCH  26  27
ENDBRANCH  23  26
ENDBRANCH  19  20
ENDBRANCH  13  19
TORSDOF 8
