REMARK  Name = 
REMARK  6 active torsions:
REMARK  status: ('A' for Active; 'I' for Inactive)
REMARK    1  A    between atoms: C_5  and  S_6
REMARK    2  A    between atoms: S_6  and  C_7
REMARK    3  A    between atoms: C_8  and  N_9
REMARK    4  A    between atoms: N_21  and  C_22
REMARK    5  A    between atoms: C_22  and  C_23
REMARK    6  A    between atoms: C_23  and  C_24
REMARK                            x       y       z     vdW  Elec       q    Type
REMARK                         _______ _______ _______ _____ _____    ______ ____
ROOT
ATOM      1  C   UNL     1      -1.087   0.041   0.197  0.00  0.00    +0.000 C 
ATOM      2  C   UNL     1      -0.261   1.111   0.253  0.00  0.00    +0.000 C 
ATOM      3  C   UNL     1       1.093   0.711  -0.075  0.00  0.00    +0.000 C 
ATOM      4  O   UNL     1       2.120   1.451  -0.120  0.00  0.00    +0.000 OA
ATOM      5  N   UNL     1       1.117  -0.676  -0.349  0.00  0.00    +0.000 N 
ATOM      6  C   UNL     1      -0.265  -1.090  -0.175  0.00  0.00    +0.000 C 
ATOM      7  O   UNL     1      -0.611  -2.266  -0.340  0.00  0.00    +0.000 OA
ENDROOT
BRANCH   2   8
ATOM      8  N   UNL     1      -0.644   2.422   0.578  0.00  0.00    +0.000 N 
ATOM      9  C   UNL     1      -0.199   3.057   1.801  0.00  0.00    +0.000 C 
ATOM     10  C   UNL     1      -0.182   4.548   1.731  0.00  0.00    +0.000 C 
ATOM     11  C   UNL     1      -0.039   5.085   0.357  0.00  0.00    +0.000 A 
ATOM     12  C   UNL     1       0.734   6.208   0.100  0.00  0.00    +0.000 A 
ATOM     13  C   UNL     1       0.815   6.644  -1.201  0.00  0.00    +0.000 A 
ATOM     14  C   UNL     1       0.163   6.010  -2.230  0.00  0.00    +0.000 A 
ATOM     15  C   UNL     1      -0.595   4.895  -1.926  0.00  0.00    +0.000 A 
ATOM     16  C   UNL     1      -0.709   4.417  -0.643  0.00  0.00    +0.000 A 
ATOM     17  C   UNL     1      -1.513   3.224  -0.294  0.00  0.00    +0.000 C 
ENDBRANCH   2   8
BRANCH   1  18
ATOM     18  S   UNL     1      -2.802   0.190   0.542  0.00  0.00    +0.000 S 
BRANCH  18  23
ATOM     19  C   UNL     1      -5.893  -4.990   0.104  0.00  0.00    +0.000 C 
ATOM     20  C   UNL     1      -5.189  -3.712   0.223  0.00  0.00    +0.000 A 
ATOM     21  C   UNL     1      -5.766  -2.519   0.562  0.00  0.00    +0.000 A 
ATOM     22  C   UNL     1      -5.075  -1.348   0.662  0.00  0.00    +0.000 A 
ATOM     23  C   UNL     1      -3.711  -1.327   0.415  0.00  0.00    +0.000 A 
ATOM     24  C   UNL     1      -3.139  -2.515   0.078  0.00  0.00    +0.000 A 
ATOM     25  C   UNL     1      -3.821  -3.689  -0.025  0.00  0.00    +0.000 A 
ENDBRANCH  18  23
ENDBRANCH   1  18
BRANCH   5  26
ATOM     26  C   UNL     1       2.239  -1.520  -0.720  0.00  0.00    +0.000 C 
BRANCH  26  27
ATOM     27  C   UNL     1       2.842  -2.052   0.574  0.00  0.00    +0.000 C 
BRANCH  27  28
ATOM     28  C   UNL     1       3.995  -2.922   0.268  0.00  0.00    +0.000 A 
ATOM     29  C   UNL     1       5.247  -2.377   0.178  0.00  0.00    +0.000 A 
ATOM     30  C   UNL     1       6.340  -3.171  -0.106  0.00  0.00    +0.000 A 
ATOM     31  C   UNL     1       6.134  -4.513  -0.295  0.00  0.00    +0.000 A 
ATOM     32  C   UNL     1       4.872  -5.062  -0.204  0.00  0.00    +0.000 A 
ATOM     33  C   UNL     1       3.793  -4.263   0.080  0.00  0.00    +0.000 A 
ENDBRANCH  27  28
ENDBRANCH  26  27
ENDBRANCH   5  26
TORSDOF 6
