REMARK  Name = 
REMARK  9 active torsions:
REMARK  status: ('A' for Active; 'I' for Inactive)
REMARK    1  A    between atoms: C_6  and  C_7
REMARK    2  A    between atoms: C_10  and  N_11
REMARK    3  A    between atoms: C_12  and  C_14
REMARK    4  A    between atoms: C_14  and  O_15
REMARK    5  A    between atoms: O_15  and  C_16
REMARK    6  A    between atoms: C_16  and  C_18
REMARK    7  A    between atoms: C_18  and  C_19
REMARK    8  A    between atoms: C_19  and  C_20
REMARK    9  A    between atoms: C_19  and  C_26
REMARK                            x       y       z     vdW  Elec       q    Type
REMARK                         _______ _______ _______ _____ _____    ______ ____
ROOT
ATOM      1  C   UNL     1      -0.761  -0.563   0.594  0.00  0.00    +0.000 C 
ATOM      2  O   UNL     1      -0.197  -0.794  -0.492  0.00  0.00    +0.000 OA
ENDROOT
BRANCH   1   3
ATOM      3  O   UNL     1      -0.375   0.607   1.257  0.00  0.00    +0.000 OA
BRANCH   3   4
ATOM      4  C   UNL     1       0.574   1.506   0.791  0.00  0.00    +0.000 C 
BRANCH   4   6
ATOM      5  N   UNL     1       3.042   1.516   0.169  0.00  0.00    +0.000 NA
ATOM      6  C   UNL     1       1.875   0.813   0.648  0.00  0.00    +0.000 C 
ATOM      7  O   UNL     1       1.974  -0.409   0.947  0.00  0.00    +0.000 OA
BRANCH   5  14
ATOM      8  C   UNL     1       4.788   1.385   2.365  0.00  0.00    +0.000 C 
ATOM      9  C   UNL     1       5.136   0.646   1.116  0.00  0.00    +0.000 A 
ATOM     10  C   UNL     1       6.298  -0.092   1.037  0.00  0.00    +0.000 A 
ATOM     11  C   UNL     1       6.607  -0.770  -0.122  0.00  0.00    +0.000 A 
ATOM     12  C   UNL     1       5.716  -0.672  -1.169  0.00  0.00    +0.000 A 
ATOM     13  C   UNL     1       4.549   0.072  -1.083  0.00  0.00    +0.000 A 
ATOM     14  C   UNL     1       4.235   0.752   0.074  0.00  0.00    +0.000 A 
BRANCH  13  15
ATOM     15  C   UNL     1       3.590   0.177  -2.211  0.00  0.00    +0.000 C 
ATOM     16  C   UNL     1       4.045  -0.624  -3.410  0.00  0.00    +0.000 C 
ATOM     17  C   UNL     1       3.259   1.595  -2.556  0.00  0.00    +0.000 C 
ENDBRANCH  13  15
ENDBRANCH   5  14
ENDBRANCH   4   6
ENDBRANCH   3   4
ENDBRANCH   1   3
BRANCH   1  18
ATOM     18  C   UNL     1      -1.783  -1.390   1.245  0.00  0.00    +0.000 C 
BRANCH  18  19
ATOM     19  C   UNL     1      -3.181  -1.142   0.812  0.00  0.00    +0.000 C 
BRANCH  19  20
ATOM     20  C   UNL     1      -3.462  -1.357  -0.610  0.00  0.00    +0.000 A 
ATOM     21  C   UNL     1      -2.695  -0.836  -1.628  0.00  0.00    +0.000 A 
ATOM     22  C   UNL     1      -3.049  -1.099  -2.923  0.00  0.00    +0.000 A 
ATOM     23  C   UNL     1      -4.147  -1.867  -3.211  0.00  0.00    +0.000 A 
ATOM     24  C   UNL     1      -4.922  -2.394  -2.190  0.00  0.00    +0.000 A 
ATOM     25  C   UNL     1      -4.572  -2.133  -0.909  0.00  0.00    +0.000 A 
ENDBRANCH  19  20
BRANCH  19  26
ATOM     26  C   UNL     1      -3.800   0.081   1.374  0.00  0.00    +0.000 A 
ATOM     27  C   UNL     1      -3.126   1.287   1.364  0.00  0.00    +0.000 A 
ATOM     28  C   UNL     1      -3.793   2.369   1.915  0.00  0.00    +0.000 A 
ATOM     29  C   UNL     1      -5.045   2.273   2.443  0.00  0.00    +0.000 A 
ATOM     30  C   UNL     1      -5.714   1.074   2.454  0.00  0.00    +0.000 A 
ATOM     31  C   UNL     1      -5.066  -0.013   1.910  0.00  0.00    +0.000 A 
ENDBRANCH  19  26
ENDBRANCH  18  19
ENDBRANCH   1  18
TORSDOF 9
