REMARK  Name = 
REMARK  8 active torsions:
REMARK  status: ('A' for Active; 'I' for Inactive)
REMARK    1  A    between atoms: C_2  and  N_3
REMARK    2  A    between atoms: C_2  and  C_25
REMARK    3  A    between atoms: C_4  and  C_6
REMARK    4  A    between atoms: C_9  and  C_10
REMARK    5  A    between atoms: C_10  and  N_11
REMARK    6  A    between atoms: N_11  and  C_12
REMARK    7  A    between atoms: N_11  and  C_20
REMARK    8  A    between atoms: C_12  and  C_13
REMARK                            x       y       z     vdW  Elec       q    Type
REMARK                         _______ _______ _______ _____ _____    ______ ____
ROOT
ATOM      1  C   UNL     1       1.256  -0.670  -0.295  0.00  0.00    +0.000 A 
ATOM      2  C   UNL     1       1.012   0.688  -0.197  0.00  0.00    +0.000 A 
ATOM      3  C   UNL     1      -0.181   0.783   0.544  0.00  0.00    +0.000 A 
ATOM      4  C   UNL     1      -0.544  -0.547   0.812  0.00  0.00    +0.000 A 
ATOM      5  O   UNL     1       0.355  -1.324   0.287  0.00  0.00    +0.000 OA
ENDROOT
BRANCH   1   7
ATOM      6  N   UNL     1       3.623  -0.797  -0.373  0.00  0.00    +0.000 NA
ATOM      7  C   UNL     1       2.451  -1.262  -0.967  0.00  0.00    +0.000 C 
ATOM      8  O   UNL     1       2.454  -2.043  -1.908  0.00  0.00    +0.000 OA
BRANCH   6  10
ATOM      9  C   UNL     1       5.208  -2.364   0.389  0.00  0.00    +0.000 C 
ATOM     10  C   UNL     1       4.996  -1.288  -0.899  0.00  0.00    +0.000 C 
BRANCH  10  11
ATOM     11  C   UNL     1       5.812  -0.107  -0.158  0.00  0.00    +0.000 A 
ATOM     12  C   UNL     1       6.963  -0.378   0.435  0.00  0.00    +0.000 A 
ATOM     13  C   UNL     1       7.640   0.624   1.085  0.00  0.00    +0.000 A 
ATOM     14  C   UNL     1       7.097   1.916   1.107  0.00  0.00    +0.000 A 
ATOM     15  C   UNL     1       5.893   2.163   0.476  0.00  0.00    +0.000 A 
ATOM     16  C   UNL     1       5.244   1.098  -0.168  0.00  0.00    +0.000 A 
ENDBRANCH  10  11
ENDBRANCH   6  10
ENDBRANCH   1   7
BRANCH   4  17
ATOM     17  C   UNL     1      -1.731  -0.960   1.560  0.00  0.00    +0.000 C 
BRANCH  17  18
ATOM     18  N   UNL     1      -2.928  -0.493   0.918  0.00  0.00    +0.000 NA
BRANCH  18  19
ATOM     19  C   UNL     1      -3.158  -1.289  -0.259  0.00  0.00    +0.000 C 
ATOM     20  C   UNL     1      -3.385  -2.729   0.294  0.00  0.00    +0.000 C 
ATOM     21  C   UNL     1      -4.361  -0.891  -1.002  0.00  0.00    +0.000 C 
ATOM     22  C   UNL     1      -1.963  -1.386  -1.134  0.00  0.00    +0.000 C 
ENDBRANCH  18  19
BRANCH  18  23
ATOM     23  C   UNL     1      -3.027   0.914   0.835  0.00  0.00    +0.000 C 
BRANCH  23  24
ATOM     24  C   UNL     1      -4.317   1.312   0.225  0.00  0.00    +0.000 A 
ATOM     25  C   UNL     1      -4.415   2.101  -0.867  0.00  0.00    +0.000 A 
ATOM     26  C   UNL     1      -5.667   2.522  -1.362  0.00  0.00    +0.000 A 
ATOM     27  C   UNL     1      -6.779   2.115  -0.688  0.00  0.00    +0.000 A 
ATOM     28  C   UNL     1      -6.709   1.306   0.443  0.00  0.00    +0.000 A 
ATOM     29  C   UNL     1      -5.483   0.900   0.892  0.00  0.00    +0.000 A 
ATOM     30  F   UNL     1      -5.354   0.086   1.953  0.00  0.00    +0.000 F 
ENDBRANCH  23  24
ENDBRANCH  18  23
ENDBRANCH  17  18
ENDBRANCH   4  17
TORSDOF 8
