REMARK  Name = 
REMARK  6 active torsions:
REMARK  status: ('A' for Active; 'I' for Inactive)
REMARK    1  A    between atoms: C_2  and  O_3
REMARK    2  A    between atoms: O_3  and  C_4
REMARK    3  A    between atoms: C_7  and  C_8
REMARK    4  A    between atoms: C_10  and  C_11
REMARK    5  A    between atoms: N_13  and  N_14
REMARK    6  A    between atoms: C_15  and  C_16
REMARK                            x       y       z     vdW  Elec       q    Type
REMARK                         _______ _______ _______ _____ _____    ______ ____
ROOT
ATOM      1  C   UNL     1       2.526  -0.733  -0.143  0.00  0.00    +0.000 A 
ATOM      2  C   UNL     1       1.548   0.100   0.343  0.00  0.00    +0.000 A 
ATOM      3  C   UNL     1       0.346  -0.384   0.812  0.00  0.00    +0.000 A 
ATOM      4  C   UNL     1       0.157  -1.752   0.778  0.00  0.00    +0.000 A 
ATOM      5  C   UNL     1      -1.027  -2.315   1.247  0.00  0.00    +0.000 A 
ATOM      6  C   UNL     1      -1.177  -3.680   1.208  0.00  0.00    +0.000 A 
ATOM      7  C   UNL     1      -0.183  -4.504   0.716  0.00  0.00    +0.000 A 
ATOM      8  C   UNL     1       0.978  -3.949   0.257  0.00  0.00    +0.000 A 
ATOM      9  C   UNL     1       1.147  -2.579   0.289  0.00  0.00    +0.000 A 
ATOM     10  N   UNL     1       2.315  -2.056  -0.165  0.00  0.00    +0.000 NA
ENDROOT
BRANCH   1  14
ATOM     11  C   UNL     1       6.216   0.785  -1.604  0.00  0.00    +0.000 A 
ATOM     12  C   UNL     1       5.255   1.658  -1.103  0.00  0.00    +0.000 A 
ATOM     13  C   UNL     1       4.078   1.119  -0.641  0.00  0.00    +0.000 A 
ATOM     14  C   UNL     1       3.802  -0.235  -0.648  0.00  0.00    +0.000 A 
ATOM     15  C   UNL     1       4.764  -1.069  -1.145  0.00  0.00    +0.000 A 
ATOM     16  C   UNL     1       5.960  -0.561  -1.619  0.00  0.00    +0.000 A 
BRANCH  11  17
ATOM     17  O   UNL     1       7.398   1.300  -2.071  0.00  0.00    +0.000 OA
BRANCH  17  19
ATOM     18  C   UNL     1       7.651   3.243  -0.640  0.00  0.00    +0.000 C 
ATOM     19  C   UNL     1       7.688   2.692  -2.066  0.00  0.00    +0.000 C 
ENDBRANCH  17  19
ENDBRANCH  11  17
ENDBRANCH   1  14
BRANCH   3  20
ATOM     20  C   UNL     1      -0.704   0.460   1.301  0.00  0.00    +0.000 C 
ATOM     21  O   UNL     1      -0.380   1.664   1.578  0.00  0.00    +0.000 OA
ATOM     22  N   UNL     1      -2.074   0.050   1.497  0.00  0.00    +0.000 NA
BRANCH  22  23
ATOM     23  N   UNL     1      -2.918   1.005   1.987  0.00  0.00    +0.000 NA
ATOM     24  C   UNL     1      -3.921   1.375   1.450  0.00  0.00    +0.000 C 
BRANCH  24  25
ATOM     25  C   UNL     1      -4.612   1.079   0.272  0.00  0.00    +0.000 A 
ATOM     26  C   UNL     1      -4.340   0.197  -0.735  0.00  0.00    +0.000 A 
ATOM     27  C   UNL     1      -3.130  -0.655  -0.712  0.00  0.00    +0.000 C 
ATOM     28  C   UNL     1      -5.188   0.041  -1.860  0.00  0.00    +0.000 A 
ATOM     29  C   UNL     1      -6.321   0.770  -1.990  0.00  0.00    +0.000 A 
ATOM     30  C   UNL     1      -7.248   0.654  -3.138  0.00  0.00    +0.000 C 
ATOM     31  C   UNL     1      -6.623   1.669  -0.990  0.00  0.00    +0.000 A 
ATOM     32  C   UNL     1      -5.809   1.810   0.078  0.00  0.00    +0.000 A 
ATOM     33  C   UNL     1      -6.175   2.799   1.141  0.00  0.00    +0.000 C 
ENDBRANCH  24  25
ENDBRANCH  22  23
ENDBRANCH   3  20
TORSDOF 6
