REMARK  Name = 
REMARK  6 active torsions:
REMARK  status: ('A' for Active; 'I' for Inactive)
REMARK    1  A    between atoms: C_10  and  C_11
REMARK    2  A    between atoms: C_17  and  C_18
REMARK    3  A    between atoms: C_21  and  S_22
REMARK    4  A    between atoms: S_22  and  C_23
REMARK    5  A    between atoms: C_23  and  C_24
REMARK    6  A    between atoms: C_24  and  N_25
REMARK                            x       y       z     vdW  Elec       q    Type
REMARK                         _______ _______ _______ _____ _____    ______ ____
ROOT
ATOM      1  O   UNL     1      -5.285  -1.608  -1.944  0.00  0.00    +0.000 OA
ATOM      2  C   UNL     1      -4.238  -1.421  -1.054  0.00  0.00    +0.000 A 
ATOM      3  C   UNL     1      -2.985  -1.178  -1.585  0.00  0.00    +0.000 A 
ATOM      4  C   UNL     1      -1.902  -0.984  -0.746  0.00  0.00    +0.000 A 
ATOM      5  C   UNL     1      -2.125  -1.042   0.574  0.00  0.00    +0.000 A 
ATOM      6  C   UNL     1      -3.342  -1.279   1.186  0.00  0.00    +0.000 A 
ATOM      7  C   UNL     1      -4.399  -1.468   0.324  0.00  0.00    +0.000 A 
ATOM      8  O   UNL     1      -3.365  -1.300   2.554  0.00  0.00    +0.000 OA
ATOM      9  C   UNL     1      -2.574  -0.605   3.446  0.00  0.00    +0.000 C 
ATOM     10  C   UNL     1      -1.601   0.410   2.587  0.00  0.00    +0.000 C 
ATOM     11  C   UNL     1      -1.034  -0.877   1.677  0.00  0.00    +0.000 C 
ENDROOT
BRANCH  10  12
ATOM     12  C   UNL     1      -2.690   1.094   1.758  0.00  0.00    +0.000 A 
ATOM     13  C   UNL     1      -3.965   1.339   2.155  0.00  0.00    +0.000 A 
ATOM     14  C   UNL     1      -4.900   1.969   1.378  0.00  0.00    +0.000 A 
ATOM     15  C   UNL     1      -4.499   2.366   0.129  0.00  0.00    +0.000 A 
ATOM     16  C   UNL     1      -3.240   2.161  -0.349  0.00  0.00    +0.000 A 
ATOM     17  C   UNL     1      -2.358   1.514   0.508  0.00  0.00    +0.000 A 
ENDBRANCH  10  12
BRANCH  11  18
ATOM     18  C   UNL     1       0.074  -0.170   0.832  0.00  0.00    +0.000 A 
ATOM     19  C   UNL     1       0.409   1.089   0.826  0.00  0.00    +0.000 A 
ATOM     20  C   UNL     1       1.427   1.520  -0.001  0.00  0.00    +0.000 A 
ATOM     21  C   UNL     1       2.114   0.662  -0.832  0.00  0.00    +0.000 A 
ATOM     22  C   UNL     1       1.740  -0.667  -0.807  0.00  0.00    +0.000 A 
ATOM     23  C   UNL     1       0.723  -1.096   0.019  0.00  0.00    +0.000 A 
BRANCH  21  24
ATOM     24  S   UNL     1       3.437   1.195  -1.910  0.00  0.00    +0.000 S 
BRANCH  24  25
ATOM     25  C   UNL     1       4.122  -0.160  -2.858  0.00  0.00    +0.000 C 
BRANCH  25  26
ATOM     26  C   UNL     1       4.826  -1.182  -2.004  0.00  0.00    +0.000 C 
BRANCH  26  27
ATOM     27  N   UNL     1       5.917  -0.581  -1.285  0.00  0.00    +0.000 NA
ATOM     28  C   UNL     1       6.598  -1.553  -0.460  0.00  0.00    +0.000 C 
ATOM     29  C   UNL     1       7.984  -0.992  -0.290  0.00  0.00    +0.000 C 
ATOM     30  C   UNL     1       8.236  -0.303  -1.595  0.00  0.00    +0.000 C 
ATOM     31  C   UNL     1       6.895  -0.086  -2.232  0.00  0.00    +0.000 C 
ENDBRANCH  26  27
ENDBRANCH  25  26
ENDBRANCH  24  25
ENDBRANCH  21  24
ENDBRANCH  11  18
TORSDOF 6
