REMARK  Name = 
REMARK  6 active torsions:
REMARK  status: ('A' for Active; 'I' for Inactive)
REMARK    1  A    between atoms: C_2  and  O_3
REMARK    2  A    between atoms: O_3  and  C_4
REMARK    3  A    between atoms: C_7  and  N_8
REMARK    4  A    between atoms: C_9  and  C_11
REMARK    5  A    between atoms: C_12  and  N_13
REMARK    6  A    between atoms: C_14  and  C_16
REMARK                            x       y       z     vdW  Elec       q    Type
REMARK                         _______ _______ _______ _____ _____    ______ ____
ROOT
ATOM      1  C   UNL     1      -0.977  -1.303  -0.435  0.00  0.00    +0.000 A 
ATOM      2  C   UNL     1      -2.101  -0.530  -0.275  0.00  0.00    +0.000 A 
ATOM      3  S   UNL     1      -3.388  -1.642  -0.513  0.00  0.00    +0.000 S 
ATOM      4  C   UNL     1      -2.455  -3.066  -0.811  0.00  0.00    +0.000 A 
ATOM      5  C   UNL     1      -1.193  -2.593  -0.707  0.00  0.00    +0.000 A 
ATOM      6  C   UNL     1      -0.200  -3.689  -0.933  0.00  0.00    +0.000 C 
ATOM      7  C   UNL     1      -0.393  -4.903  -0.334  0.00  0.00    +0.000 C 
ATOM      8  C   UNL     1      -1.894  -5.413  -0.051  0.00  0.00    +0.000 C 
ATOM      9  C   UNL     1      -2.115  -4.451   1.240  0.00  0.00    +0.000 C 
ATOM     10  C   UNL     1      -2.680  -4.483  -1.110  0.00  0.00    +0.000 C 
ENDROOT
BRANCH   1  12
ATOM     11  N   UNL     1       1.565  -1.436  -0.456  0.00  0.00    +0.000 NA
ATOM     12  C   UNL     1       0.384  -0.702  -0.304  0.00  0.00    +0.000 C 
ATOM     13  O   UNL     1       0.547   0.513  -0.048  0.00  0.00    +0.000 OA
BRANCH  11  17
ATOM     14  C   UNL     1       5.417   0.330  -0.073  0.00  0.00    +0.000 A 
ATOM     15  C   UNL     1       4.258   1.055   0.077  0.00  0.00    +0.000 A 
ATOM     16  C   UNL     1       3.017   0.460  -0.052  0.00  0.00    +0.000 A 
ATOM     17  C   UNL     1       2.875  -0.885  -0.336  0.00  0.00    +0.000 A 
ATOM     18  C   UNL     1       4.024  -1.604  -0.484  0.00  0.00    +0.000 A 
ATOM     19  C   UNL     1       5.268  -1.013  -0.356  0.00  0.00    +0.000 A 
BRANCH  14  20
ATOM     20  O   UNL     1       6.663   0.932   0.058  0.00  0.00    +0.000 OA
BRANCH  20  22
ATOM     21  C   UNL     1       8.170   2.743   0.443  0.00  0.00    +0.000 C 
ATOM     22  C   UNL     1       6.735   2.316   0.349  0.00  0.00    +0.000 C 
ENDBRANCH  20  22
ENDBRANCH  14  20
ENDBRANCH  11  17
ENDBRANCH   1  12
BRANCH   2  23
ATOM     23  N   UNL     1      -2.154   0.869   0.020  0.00  0.00    +0.000 NA
ATOM     24  C   UNL     1      -3.379   1.562   0.163  0.00  0.00    +0.000 C 
ATOM     25  O   UNL     1      -4.426   0.891   0.018  0.00  0.00    +0.000 OA
BRANCH  24  26
ATOM     26  C   UNL     1      -3.503   2.978   0.461  0.00  0.00    +0.000 A 
ATOM     27  C   UNL     1      -2.374   3.738   0.625  0.00  0.00    +0.000 A 
ATOM     28  C   UNL     1      -2.455   5.085   0.908  0.00  0.00    +0.000 A 
ATOM     29  C   UNL     1      -3.683   5.675   1.030  0.00  0.00    +0.000 A 
ATOM     30  C   UNL     1      -4.830   4.953   0.875  0.00  0.00    +0.000 A 
ATOM     31  C   UNL     1      -4.720   3.613   0.592  0.00  0.00    +0.000 A 
ENDBRANCH  24  26
ENDBRANCH   2  23
TORSDOF 6
