REMARK  Name = 
REMARK  7 active torsions:
REMARK  status: ('A' for Active; 'I' for Inactive)
REMARK    1  A    between atoms: C_2  and  C_3
REMARK    2  A    between atoms: C_2  and  N_13
REMARK    3  A    between atoms: C_4  and  C_5
REMARK    4  A    between atoms: C_6  and  C_7
REMARK    5  A    between atoms: N_13  and  N_14
REMARK    6  A    between atoms: C_15  and  C_17
REMARK    7  A    between atoms: C_23  and  C_24
REMARK                            x       y       z     vdW  Elec       q    Type
REMARK                         _______ _______ _______ _____ _____    ______ ____
ROOT
ATOM      1  N   UNL     1      -0.570   0.179  -1.290  0.00  0.00    +0.000 NA
ATOM      2  C   UNL     1       0.726  -0.219  -0.923  0.00  0.00    +0.000 C 
ATOM      3  O   UNL     1       1.299  -1.098  -1.489  0.00  0.00    +0.000 OA
ENDROOT
BRANCH   2   4
ATOM      4  C   UNL     1       1.274   0.637   0.292  0.00  0.00    +0.000 C 
ATOM      5  C   UNL     1       1.741   1.932  -0.559  0.00  0.00    +0.000 C 
ATOM      6  O   UNL     1       2.633   1.611  -1.557  0.00  0.00    +0.000 OA
ATOM      7  C   UNL     1       3.871   1.133  -1.163  0.00  0.00    +0.000 A 
ATOM      8  C   UNL     1       5.091   1.373  -1.677  0.00  0.00    +0.000 A 
ATOM      9  C   UNL     1       6.267   0.809  -1.158  0.00  0.00    +0.000 A 
ATOM     10  C   UNL     1       6.177  -0.030  -0.070  0.00  0.00    +0.000 A 
ATOM     11  C   UNL     1       4.927  -0.269   0.446  0.00  0.00    +0.000 A 
ATOM     12  C   UNL     1       3.764   0.279  -0.056  0.00  0.00    +0.000 A 
ATOM     13  O   UNL     1       2.609  -0.003   0.499  0.00  0.00    +0.000 OA
BRANCH  10  14
ATOM     14  C   UNL     1       7.406  -0.668   0.536  0.00  0.00    +0.000 C 
ATOM     15  C   UNL     1       7.031  -1.885   1.330  0.00  0.00    +0.000 C 
ATOM     16  C   UNL     1       7.968   0.341   1.556  0.00  0.00    +0.000 C 
ATOM     17  C   UNL     1       8.413  -0.917  -0.528  0.00  0.00    +0.000 C 
ENDBRANCH  10  14
ENDBRANCH   2   4
BRANCH   1  18
ATOM     18  N   UNL     1      -1.315  -0.378  -2.311  0.00  0.00    +0.000 NA
BRANCH  18  20
ATOM     19  C   UNL     1      -2.209  -2.433  -2.994  0.00  0.00    +0.000 C 
ATOM     20  C   UNL     1      -2.324  -1.339  -2.227  0.00  0.00    +0.000 C 
BRANCH  20  21
ATOM     21  C   UNL     1      -3.500  -1.259  -1.393  0.00  0.00    +0.000 C 
ATOM     22  C   UNL     1      -3.679  -0.184  -0.579  0.00  0.00    +0.000 C 
BRANCH  22  23
ATOM     23  C   UNL     1      -4.865  -0.204   0.208  0.00  0.00    +0.000 C 
ATOM     24  C   UNL     1      -5.422   0.572   1.058  0.00  0.00    +0.000 C 
BRANCH  24  25
ATOM     25  C   UNL     1      -6.692   0.249   1.711  0.00  0.00    +0.000 A 
ATOM     26  C   UNL     1      -7.251   1.130   2.583  0.00  0.00    +0.000 A 
ATOM     27  C   UNL     1      -8.455   0.824   3.229  0.00  0.00    +0.000 A 
ATOM     28  C   UNL     1      -9.060  -0.383   2.964  0.00  0.00    +0.000 A 
ATOM     29  C   UNL     1      -8.521  -1.290   2.089  0.00  0.00    +0.000 A 
ATOM     30  C   UNL     1      -7.332  -0.951   1.473  0.00  0.00    +0.000 A 
ENDBRANCH  24  25
ENDBRANCH  22  23
ENDBRANCH  20  21
ENDBRANCH  18  20
ENDBRANCH   1  18
TORSDOF 7
