REMARK  Name = 
REMARK  9 active torsions:
REMARK  status: ('A' for Active; 'I' for Inactive)
REMARK    1  A    between atoms: C_2  and  C_3
REMARK    2  A    between atoms: C_3  and  C_4
REMARK    3  A    between atoms: C_3  and  C_6
REMARK    4  A    between atoms: C_6  and  O_7
REMARK    5  A    between atoms: O_7  and  C_8
REMARK    6  A    between atoms: C_8  and  C_10
REMARK    7  A    between atoms: N_13  and  C_14
REMARK    8  A    between atoms: C_14  and  C_15
REMARK    9  A    between atoms: C_20  and  O_21
REMARK                            x       y       z     vdW  Elec       q    Type
REMARK                         _______ _______ _______ _____ _____    ______ ____
ROOT
ATOM      1  C   UNL     1      -1.060   0.093  -0.823  0.00  0.00    +0.000 A 
ATOM      2  C   UNL     1      -0.008  -0.530  -1.491  0.00  0.00    +0.000 A 
ATOM      3  N   UNL     1      -0.125  -1.776  -2.174  0.00  0.00    +0.000 NA
ATOM      4  N   UNL     1       1.046   0.252  -1.380  0.00  0.00    +0.000 N 
ATOM      5  C   UNL     1       0.715   1.376  -0.659  0.00  0.00    +0.000 A 
ATOM      6  N   UNL     1       1.383   2.470  -0.258  0.00  0.00    +0.000 NA
ATOM      7  C   UNL     1       0.766   3.428   0.461  0.00  0.00    +0.000 A 
ATOM      8  C   UNL     1       1.444   4.554   0.876  0.00  0.00    +0.000 A 
ATOM      9  C   UNL     1       0.844   5.545   1.609  0.00  0.00    +0.000 A 
ATOM     10  C   UNL     1      -0.485   5.424   1.950  0.00  0.00    +0.000 A 
ATOM     11  C   UNL     1      -1.192   4.321   1.556  0.00  0.00    +0.000 A 
ATOM     12  C   UNL     1      -0.567   3.322   0.811  0.00  0.00    +0.000 A 
ATOM     13  N   UNL     1      -1.228   2.231   0.410  0.00  0.00    +0.000 NA
ATOM     14  C   UNL     1      -0.602   1.273  -0.312  0.00  0.00    +0.000 A 
ENDROOT
BRANCH   1  15
ATOM     15  C   UNL     1      -2.386  -0.418  -0.686  0.00  0.00    +0.000 C 
ATOM     16  O   UNL     1      -3.286   0.183  -0.078  0.00  0.00    +0.000 OA
BRANCH  15  17
ATOM     17  O   UNL     1      -2.727  -1.665  -1.256  0.00  0.00    +0.000 OA
BRANCH  17  18
ATOM     18  C   UNL     1      -4.076  -2.131  -1.077  0.00  0.00    +0.000 C 
BRANCH  18  19
ATOM     19  C   UNL     1      -4.232  -2.277   0.431  0.00  0.00    +0.000 C 
BRANCH  19  21
ATOM     20  C   UNL     1      -5.961  -4.089   0.211  0.00  0.00    +0.000 C 
ATOM     21  C   UNL     1      -5.637  -2.744   0.780  0.00  0.00    +0.000 C 
ENDBRANCH  19  21
BRANCH  19  22
ATOM     22  C   UNL     1      -3.210  -3.263   0.973  0.00  0.00    +0.000 C 
ATOM     23  C   UNL     1      -1.790  -2.866   0.662  0.00  0.00    +0.000 C 
ENDBRANCH  19  22
ENDBRANCH  18  19
ENDBRANCH  17  18
ENDBRANCH  15  17
ENDBRANCH   1  15
BRANCH   4  24
ATOM     24  C   UNL     1       2.390   0.059  -1.854  0.00  0.00    +0.000 C 
BRANCH  24  25
ATOM     25  C   UNL     1       3.289  -0.514  -0.825  0.00  0.00    +0.000 A 
ATOM     26  C   UNL     1       4.122   0.357  -0.086  0.00  0.00    +0.000 A 
ATOM     27  C   UNL     1       4.948  -0.129   0.891  0.00  0.00    +0.000 A 
ATOM     28  C   UNL     1       5.014  -1.465   1.203  0.00  0.00    +0.000 A 
ATOM     29  C   UNL     1       4.202  -2.305   0.481  0.00  0.00    +0.000 A 
ATOM     30  C   UNL     1       3.339  -1.847  -0.532  0.00  0.00    +0.000 A 
BRANCH  30  31
ATOM     31  O   UNL     1       2.553  -2.743  -1.222  0.00  0.00    +0.000 OA
ATOM     32  C   UNL     1       2.516  -4.125  -1.016  0.00  0.00    +0.000 C 
ENDBRANCH  30  31
ENDBRANCH  24  25
ENDBRANCH   4  24
TORSDOF 9
