REMARK  Name = 
REMARK  6 active torsions:
REMARK  status: ('A' for Active; 'I' for Inactive)
REMARK    1  A    between atoms: C_3  and  C_4
REMARK    2  A    between atoms: N_6  and  C_7
REMARK    3  A    between atoms: C_7  and  C_8
REMARK    4  A    between atoms: C_8  and  C_9
REMARK    5  A    between atoms: N_25  and  C_26
REMARK    6  A    between atoms: C_26  and  C_27
REMARK                            x       y       z     vdW  Elec       q    Type
REMARK                         _______ _______ _______ _____ _____    ______ ____
ROOT
ATOM      1  N   UNL     1      -0.551  -2.571   1.837  0.00  0.00    +0.000 NA
ATOM      2  C   UNL     1      -1.019  -1.303   1.372  0.00  0.00    +0.000 A 
ATOM      3  C   UNL     1      -0.196  -0.275   0.993  0.00  0.00    +0.000 A 
ATOM      4  C   UNL     1      -1.014   0.766   0.612  0.00  0.00    +0.000 A 
ATOM      5  N   UNL     1      -0.798   1.994   0.161  0.00  0.00    +0.000 NA
ATOM      6  C   UNL     1      -1.820   2.826  -0.142  0.00  0.00    +0.000 A 
ATOM      7  C   UNL     1      -1.570   4.097  -0.610  0.00  0.00    +0.000 A 
ATOM      8  C   UNL     1      -2.642   4.929  -0.913  0.00  0.00    +0.000 A 
ATOM      9  C   UNL     1      -3.949   4.510  -0.755  0.00  0.00    +0.000 A 
ATOM     10  C   UNL     1      -4.159   3.234  -0.286  0.00  0.00    +0.000 A 
ATOM     11  C   UNL     1      -3.108   2.371   0.028  0.00  0.00    +0.000 A 
ATOM     12  N   UNL     1      -3.356   1.124   0.487  0.00  0.00    +0.000 NA
ATOM     13  C   UNL     1      -2.317   0.321   0.779  0.00  0.00    +0.000 A 
ATOM     14  N   UNL     1      -2.311  -0.941   1.243  0.00  0.00    +0.000 N 
ENDROOT
BRANCH   3  15
ATOM     15  C   UNL     1       1.274  -0.272   0.987  0.00  0.00    +0.000 C 
ATOM     16  O   UNL     1       1.911  -1.289   1.359  0.00  0.00    +0.000 OA
ATOM     17  N   UNL     1       2.014   0.864   0.568  0.00  0.00    +0.000 NA
BRANCH  17  18
ATOM     18  C   UNL     1       3.445   0.819   0.581  0.00  0.00    +0.000 C 
BRANCH  18  19
ATOM     19  C   UNL     1       3.877  -0.318  -0.353  0.00  0.00    +0.000 C 
BRANCH  19  20
ATOM     20  C   UNL     1       5.357  -0.426  -0.392  0.00  0.00    +0.000 C 
ATOM     21  C   UNL     1       5.907  -1.564  -0.006  0.00  0.00    +0.000 C 
ATOM     22  C   UNL     1       7.373  -1.804   0.004  0.00  0.00    +0.000 C 
ATOM     23  C   UNL     1       8.090  -0.460   0.136  0.00  0.00    +0.000 C 
ATOM     24  C   UNL     1       7.604   0.520  -0.882  0.00  0.00    +0.000 C 
ATOM     25  C   UNL     1       6.128   0.750  -0.862  0.00  0.00    +0.000 C 
ENDBRANCH  19  20
ENDBRANCH  18  19
ENDBRANCH  17  18
ENDBRANCH   3  15
BRANCH  14  26
ATOM     26  C   UNL     1      -3.424  -1.815   1.567  0.00  0.00    +0.000 C 
BRANCH  26  27
ATOM     27  C   UNL     1      -3.829  -2.608   0.380  0.00  0.00    +0.000 A 
ATOM     28  C   UNL     1      -4.766  -2.238  -0.562  0.00  0.00    +0.000 A 
ATOM     29  C   UNL     1      -4.842  -3.252  -1.494  0.00  0.00    +0.000 A 
ATOM     30  C   UNL     1      -3.939  -4.206  -1.075  0.00  0.00    +0.000 A 
ATOM     31  O   UNL     1      -3.371  -3.784   0.025  0.00  0.00    +0.000 OA
ENDBRANCH  26  27
ENDBRANCH  14  26
TORSDOF 6
