REMARK  Name = 
REMARK  7 active torsions:
REMARK  status: ('A' for Active; 'I' for Inactive)
REMARK    1  A    between atoms: O_2  and  C_3
REMARK    2  A    between atoms: C_6  and  C_7
REMARK    3  A    between atoms: C_7  and  C_8
REMARK    4  A    between atoms: C_8  and  N_9
REMARK    5  A    between atoms: C_12  and  C_13
REMARK    6  A    between atoms: C_13  and  O_15
REMARK    7  A    between atoms: O_15  and  C_16
REMARK                            x       y       z     vdW  Elec       q    Type
REMARK                         _______ _______ _______ _____ _____    ______ ____
ROOT
ATOM      1  N   UNL     1      -0.848  -0.411   0.269  0.00  0.00    +0.000 N 
ATOM      2  C   UNL     1       0.198  -1.268   0.344  0.00  0.00    +0.000 A 
ATOM      3  N   UNL     1       0.124  -2.651   0.056  0.00  0.00    +0.000 NA
ATOM      4  C   UNL     1       1.336  -0.606   0.740  0.00  0.00    +0.000 A 
ATOM      5  C   UNL     1       0.976   0.712   0.914  0.00  0.00    +0.000 A 
ATOM      6  N   UNL     1       1.659   1.784   1.284  0.00  0.00    +0.000 NA
ATOM      7  C   UNL     1       1.031   2.988   1.374  0.00  0.00    +0.000 A 
ATOM      8  C   UNL     1       1.732   4.094   1.754  0.00  0.00    +0.000 A 
ATOM      9  C   UNL     1       1.102   5.306   1.845  0.00  0.00    +0.000 A 
ATOM     10  C   UNL     1      -0.239   5.412   1.554  0.00  0.00    +0.000 A 
ATOM     11  C   UNL     1      -0.927   4.278   1.171  0.00  0.00    +0.000 A 
ATOM     12  C   UNL     1      -0.298   3.051   1.076  0.00  0.00    +0.000 A 
ATOM     13  N   UNL     1      -1.008   1.980   0.701  0.00  0.00    +0.000 NA
ATOM     14  C   UNL     1      -0.367   0.806   0.620  0.00  0.00    +0.000 A 
ENDROOT
BRANCH   4  15
ATOM     15  C   UNL     1       2.679  -1.189   0.938  0.00  0.00    +0.000 C 
ATOM     16  O   UNL     1       2.856  -2.419   0.738  0.00  0.00    +0.000 OA
BRANCH  15  17
ATOM     17  O   UNL     1       3.741  -0.393   1.342  0.00  0.00    +0.000 OA
BRANCH  17  18
ATOM     18  C   UNL     1       4.987  -1.011   1.510  0.00  0.00    +0.000 C 
ATOM     19  C   UNL     1       6.063  -0.049   1.950  0.00  0.00    +0.000 C 
ATOM     20  C   UNL     1       7.401  -0.714   2.049  0.00  0.00    +0.000 C 
ATOM     21  C   UNL     1       7.760  -1.549   0.859  0.00  0.00    +0.000 C 
ATOM     22  C   UNL     1       6.673  -2.533   0.476  0.00  0.00    +0.000 C 
ATOM     23  C   UNL     1       5.397  -1.779   0.253  0.00  0.00    +0.000 C 
ENDBRANCH  17  18
ENDBRANCH  15  17
ENDBRANCH   4  15
BRANCH   1  24
ATOM     24  C   UNL     1      -2.207  -0.723  -0.109  0.00  0.00    +0.000 C 
BRANCH  24  25
ATOM     25  C   UNL     1      -2.414  -0.576  -1.615  0.00  0.00    +0.000 C 
BRANCH  25  29
ATOM     26  C   UNL     1      -6.537  -1.603  -2.323  0.00  0.00    +0.000 A 
ATOM     27  C   UNL     1      -6.149  -0.294  -2.052  0.00  0.00    +0.000 A 
ATOM     28  C   UNL     1      -4.831   0.044  -1.823  0.00  0.00    +0.000 A 
ATOM     29  C   UNL     1      -3.850  -0.925  -1.860  0.00  0.00    +0.000 A 
ATOM     30  C   UNL     1      -4.251  -2.220  -2.130  0.00  0.00    +0.000 A 
ATOM     31  C   UNL     1      -5.569  -2.567  -2.360  0.00  0.00    +0.000 A 
BRANCH  26  33
ATOM     32  C   UNL     1      -8.352  -3.134  -2.817  0.00  0.00    +0.000 C 
ATOM     33  O   UNL     1      -7.870  -1.842  -2.536  0.00  0.00    +0.000 OA
ENDBRANCH  26  33
ENDBRANCH  25  29
ENDBRANCH  24  25
ENDBRANCH   1  24
TORSDOF 7
