REMARK  Name = 
REMARK  8 active torsions:
REMARK  status: ('A' for Active; 'I' for Inactive)
REMARK    1  A    between atoms: C_2  and  C_3
REMARK    2  A    between atoms: C_3  and  C_4
REMARK    3  A    between atoms: C_4  and  N_5
REMARK    4  A    between atoms: C_6  and  C_8
REMARK    5  A    between atoms: C_9  and  C_10
REMARK    6  A    between atoms: C_15  and  O_16
REMARK    7  A    between atoms: O_16  and  C_17
REMARK    8  A    between atoms: C_21  and  C_22
REMARK                            x       y       z     vdW  Elec       q    Type
REMARK                         _______ _______ _______ _____ _____    ______ ____
ROOT
ATOM      1  C   UNL     1       0.212   0.534   0.865  0.00  0.00    +0.000 C 
ATOM      2  C   UNL     1       1.224  -0.213   0.976  0.00  0.00    +0.000 C 
ATOM      3  N   UNL     1       0.781  -1.388   1.580  0.00  0.00    +0.000 NA
ATOM      4  O   UNL     1      -0.442  -1.576   1.492  0.00  0.00    +0.000 OA
ATOM      5  C   UNL     1      -1.108  -0.232   1.322  0.00  0.00    +0.000 C 
ENDROOT
BRANCH   5   6
ATOM      6  C   UNL     1      -1.711  -0.517  -0.093  0.00  0.00    +0.000 A 
ATOM      7  C   UNL     1      -1.701   0.388  -1.084  0.00  0.00    +0.000 A 
ATOM      8  C   UNL     1      -2.252   0.072  -2.320  0.00  0.00    +0.000 A 
ATOM      9  C   UNL     1      -2.799  -1.164  -2.510  0.00  0.00    +0.000 A 
ATOM     10  C   UNL     1      -2.824  -2.116  -1.507  0.00  0.00    +0.000 A 
ATOM     11  C   UNL     1      -3.373  -3.363  -1.684  0.00  0.00    +0.000 A 
ATOM     12  C   UNL     1      -3.368  -4.268  -0.642  0.00  0.00    +0.000 A 
ATOM     13  C   UNL     1      -2.815  -3.944   0.589  0.00  0.00    +0.000 A 
ATOM     14  C   UNL     1      -2.267  -2.680   0.744  0.00  0.00    +0.000 A 
ATOM     15  C   UNL     1      -2.251  -1.746  -0.271  0.00  0.00    +0.000 A 
ENDBRANCH   5   6
BRANCH   2  16
ATOM     16  C   UNL     1       2.648   0.090   0.611  0.00  0.00    +0.000 A 
ATOM     17  C   UNL     1       3.145   1.294   1.016  0.00  0.00    +0.000 A 
ATOM     18  C   UNL     1       4.458   1.684   0.717  0.00  0.00    +0.000 A 
ATOM     19  C   UNL     1       5.241   0.816   0.001  0.00  0.00    +0.000 A 
ATOM     20  C   UNL     1       4.708  -0.388  -0.391  0.00  0.00    +0.000 A 
ATOM     21  C   UNL     1       3.408  -0.779  -0.098  0.00  0.00    +0.000 A 
BRANCH  21  22
ATOM     22  O   UNL     1       2.894  -2.001  -0.502  0.00  0.00    +0.000 OA
BRANCH  22  23
ATOM     23  C   UNL     1       3.715  -2.881  -1.248  0.00  0.00    +0.000 C 
ATOM     24  C   UNL     1       4.956  -3.295  -0.524  0.00  0.00    +0.000 C 
ENDBRANCH  22  23
ENDBRANCH  21  22
ENDBRANCH   2  16
BRANCH   1  26
ATOM     25  N   UNL     1      -1.145   2.603   0.325  0.00  0.00    +0.000 NA
ATOM     26  C   UNL     1       0.083   1.887   0.371  0.00  0.00    +0.000 C 
ATOM     27  O   UNL     1       1.107   2.518  -0.065  0.00  0.00    +0.000 OA
BRANCH  25  28
ATOM     28  C   UNL     1      -1.179   3.955  -0.191  0.00  0.00    +0.000 C 
BRANCH  28  29
ATOM     29  C   UNL     1      -2.592   4.457  -0.122  0.00  0.00    +0.000 C 
BRANCH  29  31
ATOM     30  C   UNL     1      -4.087   6.394  -0.594  0.00  0.00    +0.000 C 
ATOM     31  C   UNL     1      -2.668   5.861  -0.653  0.00  0.00    +0.000 C 
ENDBRANCH  29  31
ENDBRANCH  28  29
ENDBRANCH  25  28
ENDBRANCH   1  26
TORSDOF 8
