REMARK  Name = 
REMARK  9 active torsions:
REMARK  status: ('A' for Active; 'I' for Inactive)
REMARK    1  A    between atoms: C_2  and  O_3
REMARK    2  A    between atoms: O_3  and  C_4
REMARK    3  A    between atoms: C_4  and  C_5
REMARK    4  A    between atoms: C_4  and  C_20
REMARK    5  A    between atoms: C_4  and  C_26
REMARK    6  A    between atoms: C_5  and  O_7
REMARK    7  A    between atoms: O_7  and  C_8
REMARK    8  A    between atoms: C_8  and  C_9
REMARK    9  A    between atoms: N_11  and  C_12
REMARK                            x       y       z     vdW  Elec       q    Type
REMARK                         _______ _______ _______ _____ _____    ______ ____
ROOT
ATOM      1  C   UNL     1      -2.615   0.655   0.313  0.00  0.00    +0.000 C 
ENDROOT
BRANCH   1   2
ATOM      2  C   UNL     1      -3.656  -0.455   0.336  0.00  0.00    +0.000 A 
ATOM      3  C   UNL     1      -3.955  -1.140  -0.822  0.00  0.00    +0.000 A 
ATOM      4  C   UNL     1      -4.891  -2.150  -0.847  0.00  0.00    +0.000 A 
ATOM      5  C   UNL     1      -5.550  -2.487   0.326  0.00  0.00    +0.000 A 
ATOM      6  C   UNL     1      -5.258  -1.801   1.508  0.00  0.00    +0.000 A 
ATOM      7  C   UNL     1      -4.315  -0.798   1.484  0.00  0.00    +0.000 A 
ENDBRANCH   1   2
BRANCH   1   8
ATOM      8  C   UNL     1      -3.204   1.737  -0.567  0.00  0.00    +0.000 A 
ATOM      9  C   UNL     1      -3.421   1.455  -1.880  0.00  0.00    +0.000 A 
ATOM     10  C   UNL     1      -3.963   2.435  -2.707  0.00  0.00    +0.000 A 
ATOM     11  C   UNL     1      -4.258   3.657  -2.145  0.00  0.00    +0.000 A 
ATOM     12  C   UNL     1      -4.042   3.951  -0.816  0.00  0.00    +0.000 A 
ATOM     13  C   UNL     1      -3.496   2.954  -0.003  0.00  0.00    +0.000 A 
ENDBRANCH   1   8
BRANCH   1  14
ATOM     14  C   UNL     1      -1.466   0.110  -0.403  0.00  0.00    +0.000 C 
ATOM     15  O   UNL     1      -1.712  -0.418  -1.542  0.00  0.00    +0.000 OA
BRANCH  14  16
ATOM     16  O   UNL     1      -0.148   0.102   0.004  0.00  0.00    +0.000 OA
BRANCH  16  17
ATOM     17  C   UNL     1       0.824  -0.468  -0.825  0.00  0.00    +0.000 C 
BRANCH  17  18
ATOM     18  C   UNL     1       2.178  -0.387  -0.211  0.00  0.00    +0.000 C 
ATOM     19  O   UNL     1       2.275   0.158   0.916  0.00  0.00    +0.000 OA
ATOM     20  N   UNL     1       3.339  -0.884  -0.825  0.00  0.00    +0.000 NA
BRANCH  20  21
ATOM     21  C   UNL     1       4.634  -0.807  -0.237  0.00  0.00    +0.000 A 
ATOM     22  C   UNL     1       4.888  -0.235   0.991  0.00  0.00    +0.000 A 
ATOM     23  C   UNL     1       6.177  -0.189   1.518  0.00  0.00    +0.000 A 
ATOM     24  C   UNL     1       7.252  -0.715   0.832  0.00  0.00    +0.000 A 
ATOM     25  C   UNL     1       8.638  -0.670   1.394  0.00  0.00    +0.000 C 
ATOM     26  C   UNL     1       6.997  -1.288  -0.396  0.00  0.00    +0.000 A 
ATOM     27  C   UNL     1       8.161  -1.854  -1.131  0.00  0.00    +0.000 C 
ATOM     28  C   UNL     1       5.709  -1.333  -0.923  0.00  0.00    +0.000 A 
ENDBRANCH  20  21
ENDBRANCH  17  18
ENDBRANCH  16  17
ENDBRANCH  14  16
ENDBRANCH   1  14
BRANCH   1  29
ATOM     29  O   UNL     1      -2.360   1.111   1.555  0.00  0.00    +0.000 OA
BRANCH  29  31
ATOM     30  C   UNL     1      -0.771  -0.526   2.455  0.00  0.00    +0.000 C 
ATOM     31  C   UNL     1      -1.993   0.280   2.548  0.00  0.00    +0.000 C 
ENDBRANCH  29  31
ENDBRANCH   1  29
TORSDOF 9
