REMARK  Name = 
REMARK  8 active torsions:
REMARK  status: ('A' for Active; 'I' for Inactive)
REMARK    1  A    between atoms: C_2  and  O_3
REMARK    2  A    between atoms: O_3  and  C_4
REMARK    3  A    between atoms: C_7  and  C_8
REMARK    4  A    between atoms: C_11  and  C_12
REMARK    5  A    between atoms: C_12  and  N_13
REMARK    6  A    between atoms: N_13  and  C_14
REMARK    7  A    between atoms: C_14  and  C_15
REMARK    8  A    between atoms: C_18  and  O_19
REMARK                            x       y       z     vdW  Elec       q    Type
REMARK                         _______ _______ _______ _____ _____    ______ ____
ROOT
ATOM      1  C   UNL     1      -2.344  -0.120  -0.093  0.00  0.00    +0.000 A 
ATOM      2  C   UNL     1      -1.753   1.060   0.242  0.00  0.00    +0.000 A 
ATOM      3  C   UNL     1      -0.326   1.228   0.156  0.00  0.00    +0.000 A 
ATOM      4  C   UNL     1       0.450   0.185  -0.277  0.00  0.00    +0.000 A 
ATOM      5  C   UNL     1      -0.180  -1.016  -0.605  0.00  0.00    +0.000 A 
ATOM      6  C   UNL     1       0.671  -2.046  -1.027  0.00  0.00    +0.000 A 
ATOM      7  N   UNL     1       0.004  -3.205  -1.346  0.00  0.00    +0.000 NA
ATOM      8  C   UNL     1      -1.283  -3.363  -1.265  0.00  0.00    +0.000 A 
ATOM      9  C   UNL     1      -2.186  -2.384  -0.852  0.00  0.00    +0.000 A 
ATOM     10  C   UNL     1      -1.526  -1.169  -0.518  0.00  0.00    +0.000 A 
ENDROOT
BRANCH   1  14
ATOM     11  C   UNL     1      -6.558  -0.898  -0.165  0.00  0.00    +0.000 A 
ATOM     12  C   UNL     1      -6.018  -0.206   0.858  0.00  0.00    +0.000 A 
ATOM     13  C   UNL     1      -4.633   0.065   0.914  0.00  0.00    +0.000 A 
ATOM     14  C   UNL     1      -3.801  -0.375  -0.068  0.00  0.00    +0.000 A 
ATOM     15  C   UNL     1      -4.365  -1.078  -1.100  0.00  0.00    +0.000 A 
ATOM     16  C   UNL     1      -5.735  -1.364  -1.194  0.00  0.00    +0.000 A 
BRANCH  11  17
ATOM     17  O   UNL     1      -7.940  -1.186  -0.285  0.00  0.00    +0.000 OA
BRANCH  17  19
ATOM     18  C   UNL     1      -8.916   0.723   0.758  0.00  0.00    +0.000 C 
ATOM     19  C   UNL     1      -8.916  -0.798   0.619  0.00  0.00    +0.000 C 
ENDBRANCH  17  19
ENDBRANCH  11  17
ENDBRANCH   1  14
BRANCH   4  20
ATOM     20  C   UNL     1       1.922   0.308  -0.562  0.00  0.00    +0.000 C 
BRANCH  20  21
ATOM     21  N   UNL     1       2.483   1.583  -0.090  0.00  0.00    +0.000 NA
BRANCH  21  22
ATOM     22  C   UNL     1       3.679   1.761  -0.825  0.00  0.00    +0.000 C 
BRANCH  22  23
ATOM     23  C   UNL     1       4.994   1.776  -0.254  0.00  0.00    +0.000 A 
ATOM     24  C   UNL     1       6.066   1.326  -1.134  0.00  0.00    +0.000 A 
ATOM     25  C   UNL     1       7.332   1.235  -0.683  0.00  0.00    +0.000 A 
ATOM     26  C   UNL     1       7.710   1.557   0.636  0.00  0.00    +0.000 A 
ATOM     27  C   UNL     1       6.726   1.980   1.469  0.00  0.00    +0.000 A 
ATOM     28  C   UNL     1       5.391   2.075   0.985  0.00  0.00    +0.000 A 
BRANCH  26  29
ATOM     29  O   UNL     1       9.053   1.414   0.985  0.00  0.00    +0.000 OA
ATOM     30  C   UNL     1       9.998   0.933   0.009  0.00  0.00    +0.000 C 
ENDBRANCH  26  29
ENDBRANCH  22  23
ENDBRANCH  21  22
ENDBRANCH  20  21
ENDBRANCH   4  20
TORSDOF 8
