REMARK  Name = 
REMARK  6 active torsions:
REMARK  status: ('A' for Active; 'I' for Inactive)
REMARK    1  A    between atoms: C_7  and  C_8
REMARK    2  A    between atoms: C_8  and  N_9
REMARK    3  A    between atoms: C_11  and  S_12
REMARK    4  A    between atoms: S_12  and  C_13
REMARK    5  A    between atoms: C_13  and  C_14
REMARK    6  A    between atoms: N_16  and  C_17
REMARK                            x       y       z     vdW  Elec       q    Type
REMARK                         _______ _______ _______ _____ _____    ______ ____
ROOT
ATOM      1  N   UNL     1      -3.253  -0.406   0.639  0.00  0.00    +0.000 N 
ATOM      2  C   UNL     1      -2.866  -1.295  -0.257  0.00  0.00    +0.000 A 
ATOM      3  C   UNL     1      -1.611  -0.945  -0.683  0.00  0.00    +0.000 A 
ATOM      4  C   UNL     1      -1.258   0.208   0.007  0.00  0.00    +0.000 A 
ATOM      5  C   UNL     1      -0.143   1.013   0.009  0.00  0.00    +0.000 A 
ATOM      6  C   UNL     1      -0.086   2.114   0.824  0.00  0.00    +0.000 A 
ATOM      7  C   UNL     1      -1.144   2.435   1.657  0.00  0.00    +0.000 A 
ATOM      8  C   UNL     1      -2.256   1.639   1.660  0.00  0.00    +0.000 A 
ATOM      9  C   UNL     1      -2.303   0.539   0.840  0.00  0.00    +0.000 A 
ENDROOT
BRANCH   1  10
ATOM     10  C   UNL     1      -4.538  -0.386   1.342  0.00  0.00    +0.000 C 
BRANCH  10  17
ATOM     11  C   UNL     1      -5.849  -1.516  -0.989  0.00  0.00    +0.000 C 
ATOM     12  C   UNL     1      -6.128  -0.105  -0.570  0.00  0.00    +0.000 A 
ATOM     13  C   UNL     1      -7.024   0.648  -1.342  0.00  0.00    +0.000 A 
ATOM     14  C   UNL     1      -7.281   1.942  -0.957  0.00  0.00    +0.000 A 
ATOM     15  C   UNL     1      -6.681   2.482   0.149  0.00  0.00    +0.000 A 
ATOM     16  C   UNL     1      -5.809   1.717   0.882  0.00  0.00    +0.000 A 
ATOM     17  C   UNL     1      -5.515   0.423   0.545  0.00  0.00    +0.000 A 
ENDBRANCH  10  17
ENDBRANCH   1  10
BRANCH   3  18
ATOM     18  S   UNL     1      -0.625  -1.795  -1.881  0.00  0.00    +0.000 S 
BRANCH  18  19
ATOM     19  C   UNL     1       0.495  -3.018  -1.166  0.00  0.00    +0.000 C 
BRANCH  19  20
ATOM     20  C   UNL     1       1.539  -2.387  -0.334  0.00  0.00    +0.000 C 
ATOM     21  O   UNL     1       1.410  -2.343   0.901  0.00  0.00    +0.000 OA
ATOM     22  N   UNL     1       2.676  -1.836  -0.941  0.00  0.00    +0.000 NA
BRANCH  22  23
ATOM     23  C   UNL     1       3.708  -1.214  -0.222  0.00  0.00    +0.000 A 
ATOM     24  C   UNL     1       3.792  -1.082   1.140  0.00  0.00    +0.000 A 
ATOM     25  C   UNL     1       4.872  -0.433   1.699  0.00  0.00    +0.000 A 
ATOM     26  C   UNL     1       5.874   0.090   0.909  0.00  0.00    +0.000 A 
ATOM     27  C   UNL     1       5.811  -0.031  -0.458  0.00  0.00    +0.000 A 
ATOM     28  C   UNL     1       4.732  -0.679  -0.994  0.00  0.00    +0.000 A 
ATOM     29  O   UNL     1       6.851   0.518  -1.189  0.00  0.00    +0.000 OA
ATOM     30  C   UNL     1       7.632   1.600  -0.643  0.00  0.00    +0.000 C 
ATOM     31  C   UNL     1       8.007   1.354   0.785  0.00  0.00    +0.000 C 
ATOM     32  O   UNL     1       6.969   0.748   1.482  0.00  0.00    +0.000 OA
ENDBRANCH  22  23
ENDBRANCH  19  20
ENDBRANCH  18  19
ENDBRANCH   3  18
TORSDOF 6
