REMARK  Name = 
REMARK  7 active torsions:
REMARK  status: ('A' for Active; 'I' for Inactive)
REMARK    1  A    between atoms: C_2  and  O_3
REMARK    2  A    between atoms: O_3  and  C_4
REMARK    3  A    between atoms: C_7  and  C_8
REMARK    4  A    between atoms: C_18  and  O_19
REMARK    5  A    between atoms: O_19  and  C_20
REMARK    6  A    between atoms: C_20  and  C_21
REMARK    7  A    between atoms: C_29  and  C_30
REMARK                            x       y       z     vdW  Elec       q    Type
REMARK                         _______ _______ _______ _____ _____    ______ ____
ROOT
ATOM      1  C   UNL     1      -2.536  -0.875   2.152  0.00  0.00    +0.000 C 
ATOM      2  N   UNL     1      -2.827  -2.377   1.662  0.00  0.00    +0.000 NA
ATOM      3  C   UNL     1      -2.744  -2.343   0.241  0.00  0.00    +0.000 C 
ATOM      4  C   UNL     1      -1.308  -2.486  -0.145  0.00  0.00    +0.000 C 
ATOM      5  C   UNL     1      -0.531  -1.582   0.699  0.00  0.00    +0.000 A 
ATOM      6  C   UNL     1      -1.078  -0.877   1.690  0.00  0.00    +0.000 A 
ATOM      7  N   UNL     1      -0.154  -0.177   2.300  0.00  0.00    +0.000 NA
ATOM      8  C   UNL     1       1.040  -0.395   1.731  0.00  0.00    +0.000 A 
ATOM      9  C   UNL     1       2.307   0.137   2.048  0.00  0.00    +0.000 A 
ATOM     10  C   UNL     1       3.339  -0.313   1.238  0.00  0.00    +0.000 A 
ATOM     11  C   UNL     1       3.176  -1.197   0.210  0.00  0.00    +0.000 A 
ATOM     12  C   UNL     1       1.903  -1.694  -0.064  0.00  0.00    +0.000 A 
ATOM     13  C   UNL     1       0.818  -1.281   0.716  0.00  0.00    +0.000 A 
ENDROOT
BRANCH   1  17
ATOM     14  C   UNL     1      -5.145   1.116  -0.716  0.00  0.00    +0.000 A 
ATOM     15  C   UNL     1      -5.309  -0.211  -0.392  0.00  0.00    +0.000 A 
ATOM     16  C   UNL     1      -4.447  -0.842   0.478  0.00  0.00    +0.000 A 
ATOM     17  C   UNL     1      -3.360  -0.172   1.081  0.00  0.00    +0.000 A 
ATOM     18  C   UNL     1      -3.231   1.114   0.739  0.00  0.00    +0.000 A 
ATOM     19  C   UNL     1      -4.107   1.774  -0.150  0.00  0.00    +0.000 A 
BRANCH  18  20
ATOM     20  C   UNL     1      -2.061   1.894   1.209  0.00  0.00    +0.000 C 
ATOM     21  C   UNL     1      -1.015   1.696   0.082  0.00  0.00    +0.000 C 
ENDBRANCH  18  20
BRANCH  14  22
ATOM     22  O   UNL     1      -6.028   1.736  -1.596  0.00  0.00    +0.000 OA
BRANCH  22  24
ATOM     23  C   UNL     1      -6.728  -0.028  -3.101  0.00  0.00    +0.000 C 
ATOM     24  C   UNL     1      -7.117   1.138  -2.222  0.00  0.00    +0.000 C 
ENDBRANCH  22  24
ENDBRANCH  14  22
ENDBRANCH   1  17
BRANCH  11  25
ATOM     25  O   UNL     1       4.243  -1.631  -0.588  0.00  0.00    +0.000 OA
BRANCH  25  26
ATOM     26  C   UNL     1       5.562  -1.244  -0.459  0.00  0.00    +0.000 C 
BRANCH  26  27
ATOM     27  C   UNL     1       5.866   0.171  -0.613  0.00  0.00    +0.000 A 
ATOM     28  C   UNL     1       5.615   1.179   0.293  0.00  0.00    +0.000 A 
ATOM     29  C   UNL     1       5.952   2.487   0.060  0.00  0.00    +0.000 A 
ATOM     30  C   UNL     1       6.570   2.848  -1.122  0.00  0.00    +0.000 A 
ATOM     31  C   UNL     1       6.842   1.871  -2.062  0.00  0.00    +0.000 A 
ATOM     32  C   UNL     1       6.493   0.565  -1.801  0.00  0.00    +0.000 A 
ENDBRANCH  26  27
ENDBRANCH  25  26
ENDBRANCH  11  25
TORSDOF 7
