REMARK  Name = 
REMARK  7 active torsions:
REMARK  status: ('A' for Active; 'I' for Inactive)
REMARK    1  A    between atoms: O_2  and  C_3
REMARK    2  A    between atoms: C_6  and  C_7
REMARK    3  A    between atoms: C_7  and  C_8
REMARK    4  A    between atoms: C_8  and  C_9
REMARK    5  A    between atoms: N_11  and  C_12
REMARK    6  A    between atoms: N_17  and  C_18
REMARK    7  A    between atoms: C_18  and  C_19
REMARK                            x       y       z     vdW  Elec       q    Type
REMARK                         _______ _______ _______ _____ _____    ______ ____
ROOT
ATOM      1  C   UNL     1      -0.463  -1.101  -0.095  0.00  0.00    +0.000 A 
ATOM      2  C   UNL     1       0.346  -1.780  -1.010  0.00  0.00    +0.000 A 
ATOM      3  C   UNL     1      -0.253  -2.982  -1.241  0.00  0.00    +0.000 A 
ATOM      4  C   UNL     1       0.200  -4.099  -2.146  0.00  0.00    +0.000 C 
ATOM      5  N   UNL     1      -1.353  -2.999  -0.498  0.00  0.00    +0.000 NA
ATOM      6  N   UNL     1      -1.499  -1.874   0.201  0.00  0.00    +0.000 N 
ENDROOT
BRANCH   1   9
ATOM      7  C   UNL     1       1.052   0.860  -0.008  0.00  0.00    +0.000 C 
ATOM      8  O   UNL     1       1.772   0.239  -0.831  0.00  0.00    +0.000 OA
ATOM      9  N   UNL     1      -0.130   0.188   0.402  0.00  0.00    +0.000 NA
BRANCH   7  10
ATOM     10  C   UNL     1       1.405   2.204   0.506  0.00  0.00    +0.000 C 
BRANCH  10  11
ATOM     11  C   UNL     1       2.703   2.677   0.006  0.00  0.00    +0.000 C 
BRANCH  11  15
ATOM     12  C   UNL     1       6.138   0.359   0.909  0.00  0.00    +0.000 A 
ATOM     13  C   UNL     1       5.698   1.328   1.788  0.00  0.00    +0.000 A 
ATOM     14  C   UNL     1       4.586   2.104   1.546  0.00  0.00    +0.000 A 
ATOM     15  C   UNL     1       3.891   1.880   0.353  0.00  0.00    +0.000 A 
ATOM     16  C   UNL     1       4.342   0.912  -0.508  0.00  0.00    +0.000 A 
ATOM     17  C   UNL     1       5.452   0.141  -0.263  0.00  0.00    +0.000 A 
BRANCH  12  19
ATOM     18  C   UNL     1       8.019  -0.247   2.357  0.00  0.00    +0.000 C 
ATOM     19  O   UNL     1       7.269  -0.413   1.179  0.00  0.00    +0.000 OA
ENDBRANCH  12  19
ENDBRANCH  11  15
ENDBRANCH  10  11
ENDBRANCH   7  10
ENDBRANCH   1   9
BRANCH   6  20
ATOM     20  C   UNL     1      -2.612  -1.605   1.067  0.00  0.00    +0.000 C 
BRANCH  20  21
ATOM     21  C   UNL     1      -3.832  -1.104   0.419  0.00  0.00    +0.000 A 
ATOM     22  C   UNL     1      -4.878  -1.998   0.128  0.00  0.00    +0.000 A 
ATOM     23  C   UNL     1      -6.032  -1.603  -0.490  0.00  0.00    +0.000 A 
ATOM     24  C   UNL     1      -6.212  -0.289  -0.857  0.00  0.00    +0.000 A 
ATOM     25  C   UNL     1      -5.219   0.610  -0.590  0.00  0.00    +0.000 A 
ATOM     26  C   UNL     1      -5.442   1.917  -0.963  0.00  0.00    +0.000 A 
ATOM     27  C   UNL     1      -4.484   2.864  -0.711  0.00  0.00    +0.000 A 
ATOM     28  C   UNL     1      -3.308   2.465  -0.080  0.00  0.00    +0.000 A 
ATOM     29  C   UNL     1      -3.111   1.156   0.281  0.00  0.00    +0.000 A 
ATOM     30  C   UNL     1      -4.043   0.190   0.044  0.00  0.00    +0.000 A 
ENDBRANCH  20  21
ENDBRANCH   6  20
TORSDOF 7
