REMARK  Name = 
REMARK  7 active torsions:
REMARK  status: ('A' for Active; 'I' for Inactive)
REMARK    1  A    between atoms: C_2  and  C_4
REMARK    2  A    between atoms: C_4  and  C_5
REMARK    3  A    between atoms: C_5  and  N_6
REMARK    4  A    between atoms: C_9  and  C_10
REMARK    5  A    between atoms: N_12  and  C_13
REMARK    6  A    between atoms: C_13  and  C_14
REMARK    7  A    between atoms: C_14  and  C_15
REMARK                            x       y       z     vdW  Elec       q    Type
REMARK                         _______ _______ _______ _____ _____    ______ ____
ROOT
ATOM      1  N   UNL     1      -2.490  -0.839  -0.678  0.00  0.00    +0.000 N 
ATOM      2  C   UNL     1      -1.314  -1.469  -0.730  0.00  0.00    +0.000 A 
ATOM      3  N   UNL     1      -1.024  -2.780  -1.224  0.00  0.00    +0.000 NA
ATOM      4  C   UNL     1      -0.375  -0.616  -0.205  0.00  0.00    +0.000 A 
ATOM      5  C   UNL     1      -1.030   0.535   0.156  0.00  0.00    +0.000 A 
ATOM      6  N   UNL     1      -0.599   1.699   0.719  0.00  0.00    +0.000 NA
ATOM      7  C   UNL     1      -1.471   2.675   0.969  0.00  0.00    +0.000 A 
ATOM      8  C   UNL     1      -1.025   3.855   1.540  0.00  0.00    +0.000 A 
ATOM      9  C   UNL     1      -1.867   4.910   1.829  0.00  0.00    +0.000 A 
ATOM     10  C   UNL     1      -3.204   4.740   1.518  0.00  0.00    +0.000 A 
ATOM     11  C   UNL     1      -3.683   3.571   0.945  0.00  0.00    +0.000 A 
ATOM     12  C   UNL     1      -2.805   2.539   0.673  0.00  0.00    +0.000 A 
ATOM     13  N   UNL     1      -3.219   1.371   0.112  0.00  0.00    +0.000 NA
ATOM     14  C   UNL     1      -2.356   0.385  -0.144  0.00  0.00    +0.000 A 
ENDROOT
BRANCH   4  15
ATOM     15  C   UNL     1       1.058  -0.879  -0.058  0.00  0.00    +0.000 C 
ATOM     16  O   UNL     1       1.520  -1.982  -0.435  0.00  0.00    +0.000 OA
ATOM     17  N   UNL     1       1.905   0.093   0.499  0.00  0.00    +0.000 NA
BRANCH  17  18
ATOM     18  C   UNL     1       3.328  -0.125   0.664  0.00  0.00    +0.000 C 
BRANCH  18  19
ATOM     19  C   UNL     1       3.948  -0.384  -0.702  0.00  0.00    +0.000 C 
BRANCH  19  20
ATOM     20  C   UNL     1       5.406  -0.612  -0.582  0.00  0.00    +0.000 A 
ATOM     21  C   UNL     1       5.837  -1.902  -0.395  0.00  0.00    +0.000 A 
ATOM     22  C   UNL     1       7.174  -2.200  -0.274  0.00  0.00    +0.000 A 
ATOM     23  C   UNL     1       8.078  -1.168  -0.345  0.00  0.00    +0.000 A 
ATOM     24  C   UNL     1       7.682   0.132  -0.531  0.00  0.00    +0.000 A 
ATOM     25  C   UNL     1       6.335   0.404  -0.650  0.00  0.00    +0.000 A 
ENDBRANCH  19  20
ENDBRANCH  18  19
ENDBRANCH  17  18
ENDBRANCH   4  15
BRANCH   1  26
ATOM     26  C   UNL     1      -3.740  -1.431  -1.149  0.00  0.00    +0.000 C 
BRANCH  26  27
ATOM     27  C   UNL     1      -4.334  -2.156   0.059  0.00  0.00    +0.000 C 
BRANCH  27  29
ATOM     28  C   UNL     1      -5.502  -3.824  -1.409  0.00  0.00    +0.000 C 
ATOM     29  C   UNL     1      -5.634  -2.809  -0.310  0.00  0.00    +0.000 C 
ATOM     30  C   UNL     1      -6.598  -1.732  -0.761  0.00  0.00    +0.000 C 
ENDBRANCH  27  29
ENDBRANCH  26  27
ENDBRANCH   1  26
TORSDOF 7
