REMARK  Name = 
REMARK  7 active torsions:
REMARK  status: ('A' for Active; 'I' for Inactive)
REMARK    1  A    between atoms: C_5  and  C_6
REMARK    2  A    between atoms: C_6  and  N_7
REMARK    3  A    between atoms: C_8  and  C_10
REMARK    4  A    between atoms: N_12  and  C_13
REMARK    5  A    between atoms: C_13  and  C_14
REMARK    6  A    between atoms: C_14  and  C_15
REMARK    7  A    between atoms: C_14  and  N_20
REMARK                            x       y       z     vdW  Elec       q    Type
REMARK                         _______ _______ _______ _____ _____    ______ ____
ROOT
ATOM      1  C   UNL     1      -1.682  -1.151  -2.080  0.00  0.00    +0.000 C 
ENDROOT
BRANCH   1   4
ATOM      2  C   UNL     1       0.674  -1.327  -1.524  0.00  0.00    +0.000 C 
ATOM      3  O   UNL     1       0.925  -1.467  -2.758  0.00  0.00    +0.000 OA
ATOM      4  N   UNL     1      -0.670  -1.157  -1.098  0.00  0.00    +0.000 NA
BRANCH   2   6
ATOM      5  N   UNL     1       3.113  -1.515  -1.035  0.00  0.00    +0.000 NA
ATOM      6  C   UNL     1       1.789  -1.345  -0.580  0.00  0.00    +0.000 C 
ATOM      7  O   UNL     1       1.621  -1.212   0.658  0.00  0.00    +0.000 OA
BRANCH   5   8
ATOM      8  C   UNL     1       4.284  -1.551  -0.223  0.00  0.00    +0.000 C 
BRANCH   8  13
ATOM      9  C   UNL     1       5.910   3.642   1.616  0.00  0.00    +0.000 C 
ATOM     10  C   UNL     1       5.429   2.327   1.103  0.00  0.00    +0.000 A 
ATOM     11  C   UNL     1       6.174   1.216   1.468  0.00  0.00    +0.000 A 
ATOM     12  C   UNL     1       5.754  -0.025   1.007  0.00  0.00    +0.000 A 
ATOM     13  C   UNL     1       4.639  -0.177   0.212  0.00  0.00    +0.000 A 
ATOM     14  C   UNL     1       3.911   0.939  -0.141  0.00  0.00    +0.000 A 
ATOM     15  C   UNL     1       4.308   2.201   0.307  0.00  0.00    +0.000 A 
ENDBRANCH   8  13
ENDBRANCH   5   8
ENDBRANCH   2   6
ENDBRANCH   1   4
BRANCH   1  16
ATOM     16  C   UNL     1      -3.128  -0.939  -1.305  0.00  0.00    +0.000 C 
BRANCH  16  17
ATOM     17  N   UNL     1      -2.587   0.142  -0.316  0.00  0.00    +0.000 N 
ATOM     18  C   UNL     1      -1.591   0.120   0.636  0.00  0.00    +0.000 C 
ATOM     19  C   UNL     1      -1.864   1.295   1.552  0.00  0.00    +0.000 C 
ATOM     20  C   UNL     1      -2.794   2.169   0.762  0.00  0.00    +0.000 A 
ATOM     21  C   UNL     1      -3.235   3.448   0.979  0.00  0.00    +0.000 A 
ATOM     22  C   UNL     1      -4.100   4.018   0.077  0.00  0.00    +0.000 A 
ATOM     23  C   UNL     1      -4.521   3.324  -1.026  0.00  0.00    +0.000 A 
ATOM     24  C   UNL     1      -4.062   2.046  -1.216  0.00  0.00    +0.000 A 
ATOM     25  C   UNL     1      -3.192   1.424  -0.341  0.00  0.00    +0.000 A 
ENDBRANCH  16  17
BRANCH  16  26
ATOM     26  C   UNL     1      -3.068  -2.227  -0.388  0.00  0.00    +0.000 A 
ATOM     27  C   UNL     1      -3.453  -2.352   0.879  0.00  0.00    +0.000 A 
ATOM     28  C   UNL     1      -3.303  -3.563   1.440  0.00  0.00    +0.000 A 
ATOM     29  C   UNL     1      -2.779  -4.554   0.690  0.00  0.00    +0.000 A 
ATOM     30  S   UNL     1      -2.502  -3.749  -0.821  0.00  0.00    +0.000 S 
ENDBRANCH  16  26
ENDBRANCH   1  16
TORSDOF 7
