REMARK  Name = 
REMARK  6 active torsions:
REMARK  status: ('A' for Active; 'I' for Inactive)
REMARK    1  A    between atoms: C_2  and  O_3
REMARK    2  A    between atoms: O_3  and  C_4
REMARK    3  A    between atoms: C_9  and  C_10
REMARK    4  A    between atoms: C_15  and  C_16
REMARK    5  A    between atoms: N_20  and  C_21
REMARK    6  A    between atoms: C_21  and  C_22
REMARK                            x       y       z     vdW  Elec       q    Type
REMARK                         _______ _______ _______ _____ _____    ______ ____
ROOT
ATOM      1  C   UNL     1       3.472   0.286  -0.089  0.00  0.00    +0.000 C 
ATOM      2  O   UNL     1       2.646   0.664  -0.958  0.00  0.00    +0.000 OA
ATOM      3  N   UNL     1       2.982  -0.554   0.941  0.00  0.00    +0.000 NA
ATOM      4  C   UNL     1       1.588  -0.949   0.975  0.00  0.00    +0.000 A 
ATOM      5  N   UNL     1       0.618  -0.634   0.142  0.00  0.00    +0.000 NA
ATOM      6  C   UNL     1      -0.579  -1.094   0.347  0.00  0.00    +0.000 A 
ATOM      7  C   UNL     1      -0.759  -1.900   1.447  0.00  0.00    +0.000 A 
ATOM      8  S   UNL     1       0.810  -1.942   2.116  0.00  0.00    +0.000 S 
ENDROOT
BRANCH   6   9
ATOM      9  C   UNL     1      -1.729  -0.783  -0.549  0.00  0.00    +0.000 A 
ATOM     10  C   UNL     1      -1.710   0.001  -1.681  0.00  0.00    +0.000 A 
ATOM     11  C   UNL     1      -2.984   0.026  -2.211  0.00  0.00    +0.000 A 
ATOM     12  C   UNL     1      -3.340   0.777  -3.439  0.00  0.00    +0.000 C 
ATOM     13  N   UNL     1      -3.780  -0.723  -1.430  0.00  0.00    +0.000 N 
ATOM     14  C   UNL     1      -3.027  -1.210  -0.432  0.00  0.00    +0.000 A 
ATOM     15  C   UNL     1      -3.541  -2.100   0.662  0.00  0.00    +0.000 C 
BRANCH  13  16
ATOM     16  C   UNL     1      -5.179  -0.936  -1.663  0.00  0.00    +0.000 C 
BRANCH  16  17
ATOM     17  C   UNL     1      -6.009   0.094  -0.987  0.00  0.00    +0.000 A 
ATOM     18  C   UNL     1      -6.431  -0.156   0.300  0.00  0.00    +0.000 A 
ATOM     19  C   UNL     1      -7.209   0.798   0.948  0.00  0.00    +0.000 A 
ATOM     20  C   UNL     1      -7.569   1.972   0.350  0.00  0.00    +0.000 A 
ATOM     21  C   UNL     1      -7.142   2.211  -0.934  0.00  0.00    +0.000 A 
ATOM     22  C   UNL     1      -6.370   1.276  -1.592  0.00  0.00    +0.000 A 
ENDBRANCH  16  17
ENDBRANCH  13  16
ENDBRANCH   6   9
BRANCH   1  28
ATOM     23  C   UNL     1       5.723   0.235   0.856  0.00  0.00    +0.000 A 
ATOM     24  N   UNL     1       7.014   0.610   0.811  0.00  0.00    +0.000 NA
ATOM     25  C   UNL     1       7.492   1.413  -0.171  0.00  0.00    +0.000 A 
ATOM     26  C   UNL     1       6.672   1.886  -1.175  0.00  0.00    +0.000 A 
ATOM     27  C   UNL     1       5.350   1.518  -1.152  0.00  0.00    +0.000 A 
ATOM     28  C   UNL     1       4.892   0.700  -0.141  0.00  0.00    +0.000 A 
BRANCH  23  29
ATOM     29  O   UNL     1       5.220  -0.588   1.856  0.00  0.00    +0.000 OA
BRANCH  29  31
ATOM     30  C   UNL     1       6.740   0.138   3.598  0.00  0.00    +0.000 C 
ATOM     31  C   UNL     1       6.139  -1.035   2.862  0.00  0.00    +0.000 C 
ENDBRANCH  29  31
ENDBRANCH  23  29
ENDBRANCH   1  28
TORSDOF 6
