REMARK  Name = 
REMARK  9 active torsions:
REMARK  status: ('A' for Active; 'I' for Inactive)
REMARK    1  A    between atoms: C_2  and  O_3
REMARK    2  A    between atoms: O_3  and  C_4
REMARK    3  A    between atoms: C_4  and  C_6
REMARK    4  A    between atoms: C_7  and  C_8
REMARK    5  A    between atoms: C_15  and  N_16
REMARK    6  A    between atoms: N_16  and  C_17
REMARK    7  A    between atoms: C_17  and  C_18
REMARK    8  A    between atoms: C_26  and  O_27
REMARK    9  A    between atoms: C_29  and  O_30
REMARK                            x       y       z     vdW  Elec       q    Type
REMARK                         _______ _______ _______ _____ _____    ______ ____
ROOT
ATOM      1  C   UNL     1      -1.443   0.574   0.868  0.00  0.00    +0.000 A 
ATOM      2  C   UNL     1      -1.446   0.748  -0.495  0.00  0.00    +0.000 A 
ATOM      3  C   UNL     1      -0.352   0.291  -1.243  0.00  0.00    +0.000 A 
ATOM      4  C   UNL     1       0.705  -0.319  -0.648  0.00  0.00    +0.000 A 
ATOM      5  C   UNL     1       0.709  -0.495   0.713  0.00  0.00    +0.000 A 
ATOM      6  C   UNL     1       1.818  -1.131   1.292  0.00  0.00    +0.000 A 
ATOM      7  C   UNL     1       1.798  -1.296   2.657  0.00  0.00    +0.000 A 
ATOM      8  C   UNL     1       0.752  -0.868   3.447  0.00  0.00    +0.000 A 
ATOM      9  C   UNL     1      -0.325  -0.246   2.849  0.00  0.00    +0.000 A 
ATOM     10  C   UNL     1      -0.344  -0.059   1.465  0.00  0.00    +0.000 A 
ENDROOT
BRANCH   2  11
ATOM     11  C   UNL     1      -2.550   1.345  -1.207  0.00  0.00    +0.000 A 
ATOM     12  C   UNL     1      -3.829   0.880  -1.125  0.00  0.00    +0.000 A 
ATOM     13  C   UNL     1      -4.864   1.465  -1.812  0.00  0.00    +0.000 A 
ATOM     14  C   UNL     1      -4.646   2.554  -2.617  0.00  0.00    +0.000 A 
ATOM     15  C   UNL     1      -3.369   3.057  -2.729  0.00  0.00    +0.000 A 
ATOM     16  C   UNL     1      -2.349   2.451  -2.029  0.00  0.00    +0.000 A 
ENDBRANCH   2  11
BRANCH   1  17
ATOM     17  C   UNL     1      -2.508   1.053   1.736  0.00  0.00    +0.000 C 
ATOM     18  O   UNL     1      -2.415   0.824   2.968  0.00  0.00    +0.000 OA
BRANCH  17  19
ATOM     19  O   UNL     1      -3.617   1.745   1.327  0.00  0.00    +0.000 OA
BRANCH  19  21
ATOM     20  C   UNL     1      -3.998   3.126   3.267  0.00  0.00    +0.000 C 
ATOM     21  C   UNL     1      -4.610   2.181   2.234  0.00  0.00    +0.000 C 
ENDBRANCH  19  21
ENDBRANCH  17  19
ENDBRANCH   1  17
BRANCH   7  22
ATOM     22  O   UNL     1       2.869  -1.923   3.325  0.00  0.00    +0.000 OA
ATOM     23  C   UNL     1       3.984  -2.392   2.579  0.00  0.00    +0.000 C 
ENDBRANCH   7  22
BRANCH   8  24
ATOM     24  O   UNL     1       0.801  -1.070   4.830  0.00  0.00    +0.000 OA
ATOM     25  C   UNL     1      -0.234  -0.656   5.690  0.00  0.00    +0.000 C 
ENDBRANCH   8  24
BRANCH   4  26
ATOM     26  N   UNL     1       1.802  -0.772  -1.431  0.00  0.00    +0.000 NA
BRANCH  26  27
ATOM     27  C   UNL     1       1.829  -0.604  -2.849  0.00  0.00    +0.000 C 
BRANCH  27  28
ATOM     28  C   UNL     1       3.102  -1.182  -3.358  0.00  0.00    +0.000 A 
ATOM     29  C   UNL     1       4.264  -0.449  -3.484  0.00  0.00    +0.000 A 
ATOM     30  C   UNL     1       5.448  -0.971  -3.953  0.00  0.00    +0.000 A 
ATOM     31  C   UNL     1       5.482  -2.292  -4.318  0.00  0.00    +0.000 A 
ATOM     32  C   UNL     1       4.352  -3.062  -4.211  0.00  0.00    +0.000 A 
ATOM     33  C   UNL     1       3.185  -2.508  -3.738  0.00  0.00    +0.000 A 
ENDBRANCH  27  28
ENDBRANCH  26  27
ENDBRANCH   4  26
TORSDOF 9
