REMARK  Name = 
REMARK  7 active torsions:
REMARK  status: ('A' for Active; 'I' for Inactive)
REMARK    1  A    between atoms: C_2  and  C_3
REMARK    2  A    between atoms: C_3  and  O_4
REMARK    3  A    between atoms: O_4  and  C_5
REMARK    4  A    between atoms: C_8  and  C_9
REMARK    5  A    between atoms: C_19  and  O_20
REMARK    6  A    between atoms: O_20  and  C_21
REMARK    7  A    between atoms: C_21  and  C_22
REMARK                            x       y       z     vdW  Elec       q    Type
REMARK                         _______ _______ _______ _____ _____    ______ ____
ROOT
ATOM      1  C   UNL     1       2.057  -2.824  -0.845  0.00  0.00    +0.000 C 
ATOM      2  N   UNL     1       2.763  -3.168   0.487  0.00  0.00    +0.000 NA
ATOM      3  C   UNL     1       2.399  -2.497   1.608  0.00  0.00    +0.000 C 
ATOM      4  C   UNL     1       1.912  -1.093   1.307  0.00  0.00    +0.000 C 
ATOM      5  C   UNL     1       0.607  -1.390   0.674  0.00  0.00    +0.000 A 
ATOM      6  C   UNL     1       0.694  -2.258  -0.376  0.00  0.00    +0.000 A 
ATOM      7  N   UNL     1      -0.520  -2.462  -0.854  0.00  0.00    +0.000 NA
ATOM      8  C   UNL     1      -1.408  -1.721  -0.111  0.00  0.00    +0.000 A 
ATOM      9  C   UNL     1      -2.769  -1.563  -0.172  0.00  0.00    +0.000 A 
ATOM     10  C   UNL     1      -3.363  -0.739   0.729  0.00  0.00    +0.000 A 
ATOM     11  C   UNL     1      -2.671  -0.055   1.698  0.00  0.00    +0.000 A 
ATOM     12  C   UNL     1      -1.308  -0.207   1.767  0.00  0.00    +0.000 A 
ATOM     13  C   UNL     1      -0.678  -1.030   0.875  0.00  0.00    +0.000 A 
ENDROOT
BRANCH   1  17
ATOM     14  C   UNL     1       4.156   0.934  -1.628  0.00  0.00    +0.000 A 
ATOM     15  C   UNL     1       2.778   0.822  -1.799  0.00  0.00    +0.000 A 
ATOM     16  C   UNL     1       2.141  -0.366  -1.548  0.00  0.00    +0.000 A 
ATOM     17  C   UNL     1       2.798  -1.434  -1.140  0.00  0.00    +0.000 A 
ATOM     18  C   UNL     1       4.152  -1.404  -0.948  0.00  0.00    +0.000 A 
ATOM     19  C   UNL     1       4.800  -0.205  -1.202  0.00  0.00    +0.000 A 
BRANCH  14  20
ATOM     20  O   UNL     1       4.809   2.127  -1.881  0.00  0.00    +0.000 OA
BRANCH  20  21
ATOM     21  C   UNL     1       6.135   2.433  -1.767  0.00  0.00    +0.000 C 
BRANCH  21  23
ATOM     22  C   UNL     1       6.883   1.036   0.216  0.00  0.00    +0.000 C 
ATOM     23  C   UNL     1       6.826   2.355  -0.483  0.00  0.00    +0.000 C 
ENDBRANCH  21  23
ENDBRANCH  20  21
ENDBRANCH  14  20
ENDBRANCH   1  17
BRANCH  11  24
ATOM     24  O   UNL     1      -3.375   0.747   2.551  0.00  0.00    +0.000 OA
BRANCH  24  25
ATOM     25  C   UNL     1      -4.745   0.919   2.503  0.00  0.00    +0.000 C 
BRANCH  25  26
ATOM     26  C   UNL     1      -5.302   1.473   1.263  0.00  0.00    +0.000 A 
ATOM     27  C   UNL     1      -5.833   0.650   0.293  0.00  0.00    +0.000 A 
ATOM     28  C   UNL     1      -6.360   1.146  -0.878  0.00  0.00    +0.000 A 
ATOM     29  C   UNL     1      -6.385   2.496  -1.143  0.00  0.00    +0.000 A 
ATOM     30  C   UNL     1      -5.857   3.332  -0.182  0.00  0.00    +0.000 A 
ATOM     31  C   UNL     1      -5.334   2.827   0.982  0.00  0.00    +0.000 A 
ENDBRANCH  25  26
ENDBRANCH  24  25
ENDBRANCH  11  24
TORSDOF 7
