REMARK  Name = 
REMARK  5 active torsions:
REMARK  status: ('A' for Active; 'I' for Inactive)
REMARK    1  A    between atoms: C_2  and  C_4
REMARK    2  A    between atoms: C_5  and  C_6
REMARK    3  A    between atoms: C_6  and  C_7
REMARK    4  A    between atoms: C_7  and  C_8
REMARK    5  A    between atoms: C_16  and  C_17
REMARK                            x       y       z     vdW  Elec       q    Type
REMARK                         _______ _______ _______ _____ _____    ______ ____
ROOT
ATOM      1  C   UNL     1      -0.061  -1.524  -0.002  0.00  0.00    +0.000 A 
ATOM      2  C   UNL     1      -0.100  -0.472  -0.844  0.00  0.00    +0.000 A 
ATOM      3  C   UNL     1       1.056   0.304  -0.590  0.00  0.00    +0.000 A 
ATOM      4  C   UNL     1       1.761  -0.310   0.410  0.00  0.00    +0.000 A 
ATOM      5  C   UNL     1       2.948   0.060   1.012  0.00  0.00    +0.000 A 
ATOM      6  C   UNL     1       3.645   1.213   0.647  0.00  0.00    +0.000 A 
ATOM      7  C   UNL     1       4.826   1.522   1.301  0.00  0.00    +0.000 A 
ATOM      8  C   UNL     1       5.361   0.739   2.313  0.00  0.00    +0.000 A 
ATOM      9  C   UNL     1       4.663  -0.402   2.670  0.00  0.00    +0.000 A 
ATOM     10  C   UNL     1       3.467  -0.723   2.013  0.00  0.00    +0.000 A 
ATOM     11  C   UNL     1       2.742  -1.845   2.345  0.00  0.00    +0.000 A 
ATOM     12  C   UNL     1       1.555  -2.209   1.738  0.00  0.00    +0.000 A 
ATOM     13  N   UNL     1       1.073  -1.413   0.756  0.00  0.00    +0.000 N 
ENDROOT
BRANCH   3  14
ATOM     14  C   UNL     1       1.471   1.508  -1.224  0.00  0.00    +0.000 A 
ATOM     15  C   UNL     1       2.080   1.698  -2.402  0.00  0.00    +0.000 A 
ATOM     16  C   UNL     1       2.471   2.886  -2.982  0.00  0.00    +0.000 A 
ATOM     17  C   UNL     1       2.188   4.030  -2.221  0.00  0.00    +0.000 A 
ATOM     18  C   UNL     1       1.568   3.918  -1.004  0.00  0.00    +0.000 A 
ATOM     19  C   UNL     1       1.209   2.687  -0.500  0.00  0.00    +0.000 A 
ENDBRANCH   3  14
BRANCH   1  21
ATOM     20  C   UNL     1      -0.818  -3.508   1.285  0.00  0.00    +0.000 C 
ATOM     21  C   UNL     1      -0.994  -2.646   0.098  0.00  0.00    +0.000 C 
ATOM     22  C   UNL     1      -1.179  -3.393  -1.194  0.00  0.00    +0.000 C 
ENDBRANCH   1  21
BRANCH   2  23
ATOM     23  C   UNL     1      -1.102  -0.043  -1.814  0.00  0.00    +0.000 C 
BRANCH  23  24
ATOM     24  C   UNL     1      -2.158   0.745  -1.201  0.00  0.00    +0.000 C 
BRANCH  24  25
ATOM     25  C   UNL     1      -3.031  -0.050  -0.117  0.00  0.00    +0.000 C 
ATOM     26  C   UNL     1      -3.609  -1.125  -1.181  0.00  0.00    +0.000 C 
ATOM     27  C   UNL     1      -4.831  -1.896  -0.438  0.00  0.00    +0.000 C 
ATOM     28  O   UNL     1      -4.499  -1.616   1.002  0.00  0.00    +0.000 OA
ATOM     29  C   UNL     1      -5.909  -0.683  -0.627  0.00  0.00    +0.000 C 
ATOM     30  C   UNL     1      -5.447   0.496   0.065  0.00  0.00    +0.000 C 
ATOM     31  O   UNL     1      -6.143   1.127   0.913  0.00  0.00    +0.000 OA
ATOM     32  O   UNL     1      -4.203   0.925  -0.228  0.00  0.00    +0.000 OA
ENDBRANCH  24  25
ENDBRANCH  23  24
ENDBRANCH   2  23
TORSDOF 5
