REMARK  Name = 
REMARK  9 active torsions:
REMARK  status: ('A' for Active; 'I' for Inactive)
REMARK    1  A    between atoms: O_2  and  C_3
REMARK    2  A    between atoms: C_6  and  S_7
REMARK    3  A    between atoms: S_7  and  N_10
REMARK    4  A    between atoms: N_10  and  C_11
REMARK    5  A    between atoms: C_11  and  C_13
REMARK    6  A    between atoms: C_13  and  C_14
REMARK    7  A    between atoms: C_14  and  C_15
REMARK    8  A    between atoms: N_17  and  C_18
REMARK    9  A    between atoms: C_18  and  C_19
REMARK                            x       y       z     vdW  Elec       q    Type
REMARK                         _______ _______ _______ _____ _____    ______ ____
ROOT
ATOM      1  C   UNL     1      -0.242  -0.101  -0.093  0.00  0.00    +0.000 C 
ENDROOT
BRANCH   1   2
ATOM      2  C   UNL     1      -1.680  -0.309   0.210  0.00  0.00    +0.000 A 
ATOM      3  C   UNL     1      -2.686  -0.663  -0.667  0.00  0.00    +0.000 A 
ATOM      4  N   UNL     1      -3.872  -0.758  -0.049  0.00  0.00    +0.000 N 
ATOM      5  C   UNL     1      -3.635  -0.464   1.243  0.00  0.00    +0.000 A 
ATOM      6  C   UNL     1      -4.545  -0.424   2.299  0.00  0.00    +0.000 A 
ATOM      7  C   UNL     1      -4.119  -0.101   3.561  0.00  0.00    +0.000 A 
ATOM      8  C   UNL     1      -2.790   0.181   3.766  0.00  0.00    +0.000 A 
ATOM      9  C   UNL     1      -1.881   0.140   2.709  0.00  0.00    +0.000 A 
ATOM     10  C   UNL     1      -2.303  -0.184   1.436  0.00  0.00    +0.000 A 
BRANCH   4  11
ATOM     11  C   UNL     1      -5.170  -1.107  -0.644  0.00  0.00    +0.000 C 
BRANCH  11  12
ATOM     12  C   UNL     1      -5.807   0.146  -1.092  0.00  0.00    +0.000 A 
ATOM     13  C   UNL     1      -5.635   0.669  -2.346  0.00  0.00    +0.000 A 
ATOM     14  C   UNL     1      -6.255   1.864  -2.738  0.00  0.00    +0.000 A 
ATOM     15  C   UNL     1      -7.040   2.495  -1.829  0.00  0.00    +0.000 A 
ATOM     16  C   UNL     1      -7.228   1.994  -0.570  0.00  0.00    +0.000 A 
ATOM     17  C   UNL     1      -6.608   0.818  -0.207  0.00  0.00    +0.000 A 
ENDBRANCH  11  12
ENDBRANCH   4  11
ENDBRANCH   1   2
BRANCH   1  18
ATOM     18  C   UNL     1       0.616  -1.252   0.371  0.00  0.00    +0.000 C 
BRANCH  18  19
ATOM     19  C   UNL     1       2.122  -0.707  -0.116  0.00  0.00    +0.000 C 
ATOM     20  C   UNL     1       1.938  -1.348  -1.633  0.00  0.00    +0.000 C 
BRANCH  19  21
ATOM     21  N   UNL     1       2.849  -2.001   0.439  0.00  0.00    +0.000 NA
BRANCH  21  22
ATOM     22  S   UNL     1       4.280  -2.148  -0.518  0.00  0.00    +0.000 S 
ATOM     23  O   UNL     1       3.976  -2.235  -1.984  0.00  0.00    +0.000 OA
ATOM     24  O   UNL     1       4.980  -3.390  -0.039  0.00  0.00    +0.000 OA
BRANCH  22  28
ATOM     25  C   UNL     1       6.743   1.537   0.135  0.00  0.00    +0.000 A 
ATOM     26  C   UNL     1       5.806   1.502  -0.855  0.00  0.00    +0.000 A 
ATOM     27  C   UNL     1       5.051   0.371  -1.053  0.00  0.00    +0.000 A 
ATOM     28  C   UNL     1       5.240  -0.724  -0.254  0.00  0.00    +0.000 A 
ATOM     29  C   UNL     1       6.174  -0.708   0.743  0.00  0.00    +0.000 A 
ATOM     30  C   UNL     1       6.942   0.421   0.955  0.00  0.00    +0.000 A 
BRANCH  25  32
ATOM     31  C   UNL     1       7.285   3.802  -0.513  0.00  0.00    +0.000 C 
ATOM     32  O   UNL     1       7.494   2.686   0.319  0.00  0.00    +0.000 OA
ENDBRANCH  25  32
ENDBRANCH  22  28
ENDBRANCH  21  22
ENDBRANCH  19  21
ENDBRANCH  18  19
ENDBRANCH   1  18
TORSDOF 9
