REMARK  Name = 
REMARK  8 active torsions:
REMARK  status: ('A' for Active; 'I' for Inactive)
REMARK    1  A    between atoms: C_2  and  O_3
REMARK    2  A    between atoms: O_3  and  C_4
REMARK    3  A    between atoms: C_9  and  N_10
REMARK    4  A    between atoms: N_10  and  C_11
REMARK    5  A    between atoms: C_12  and  S_13
REMARK    6  A    between atoms: S_13  and  C_14
REMARK    7  A    between atoms: N_22  and  C_23
REMARK    8  A    between atoms: C_26  and  C_27
REMARK                            x       y       z     vdW  Elec       q    Type
REMARK                         _______ _______ _______ _____ _____    ______ ____
ROOT
ATOM      1  C   UNL     1      -0.945   0.592   0.555  0.00  0.00    +0.000 C 
ATOM      2  C   UNL     1      -1.209  -0.688   0.345  0.00  0.00    +0.000 C 
ATOM      3  C   UNL     1       0.047  -1.395   0.065  0.00  0.00    +0.000 C 
ATOM      4  O   UNL     1       0.150  -2.609  -0.176  0.00  0.00    +0.000 OA
ATOM      5  N   UNL     1       1.116  -0.451   0.118  0.00  0.00    +0.000 N 
ATOM      6  C   UNL     1       0.494   0.791   0.425  0.00  0.00    +0.000 C 
ATOM      7  O   UNL     1       1.121   1.869   0.555  0.00  0.00    +0.000 OA
ENDROOT
BRANCH   5   8
ATOM      8  C   UNL     1       2.514  -0.677  -0.092  0.00  0.00    +0.000 A 
ATOM      9  C   UNL     1       3.010  -0.979  -1.354  0.00  0.00    +0.000 A 
ATOM     10  C   UNL     1       4.352  -1.200  -1.585  0.00  0.00    +0.000 A 
ATOM     11  C   UNL     1       5.268  -1.130  -0.561  0.00  0.00    +0.000 A 
ATOM     12  C   UNL     1       4.790  -0.832   0.695  0.00  0.00    +0.000 A 
ATOM     13  C   UNL     1       3.449  -0.611   0.922  0.00  0.00    +0.000 A 
BRANCH  11  14
ATOM     14  C   UNL     1       6.714  -1.354  -0.734  0.00  0.00    +0.000 C 
ATOM     15  C   UNL     1       7.314  -1.961   0.524  0.00  0.00    +0.000 C 
ATOM     16  C   UNL     1       7.380   0.002  -0.974  0.00  0.00    +0.000 C 
ENDBRANCH  11  14
ENDBRANCH   5   8
BRANCH   1  17
ATOM     17  N   UNL     1      -1.851   1.652   0.857  0.00  0.00    +0.000 NA
BRANCH  17  23
ATOM     18  C   UNL     1      -2.806   3.751   0.103  0.00  0.00    +0.000 A 
ATOM     19  C   UNL     1      -2.929   4.791  -0.821  0.00  0.00    +0.000 A 
ATOM     20  C   UNL     1      -2.183   4.779  -1.980  0.00  0.00    +0.000 A 
ATOM     21  C   UNL     1      -1.327   3.719  -2.189  0.00  0.00    +0.000 A 
ATOM     22  C   UNL     1      -1.201   2.695  -1.289  0.00  0.00    +0.000 A 
ATOM     23  C   UNL     1      -1.944   2.699  -0.124  0.00  0.00    +0.000 A 
BRANCH  18  24
ATOM     24  O   UNL     1      -3.562   3.763   1.278  0.00  0.00    +0.000 OA
BRANCH  24  26
ATOM     25  C   UNL     1      -3.617   6.124   1.535  0.00  0.00    +0.000 C 
ATOM     26  C   UNL     1      -4.456   4.857   1.510  0.00  0.00    +0.000 C 
ENDBRANCH  24  26
ENDBRANCH  18  24
ENDBRANCH  17  23
ENDBRANCH   1  17
BRANCH   2  27
ATOM     27  S   UNL     1      -2.844  -1.389   0.399  0.00  0.00    +0.000 S 
BRANCH  27  28
ATOM     28  C   UNL     1      -2.815  -3.124   0.049  0.00  0.00    +0.000 A 
ATOM     29  C   UNL     1      -2.670  -4.114   0.992  0.00  0.00    +0.000 A 
ATOM     30  C   UNL     1      -2.665  -5.444   0.575  0.00  0.00    +0.000 A 
ATOM     31  C   UNL     1      -2.799  -5.817  -0.742  0.00  0.00    +0.000 A 
ATOM     32  C   UNL     1      -2.946  -4.809  -1.680  0.00  0.00    +0.000 A 
ATOM     33  C   UNL     1      -2.952  -3.500  -1.284  0.00  0.00    +0.000 A 
ENDBRANCH  27  28
ENDBRANCH   2  27
TORSDOF 8
