REMARK  Name = 
REMARK  9 active torsions:
REMARK  status: ('A' for Active; 'I' for Inactive)
REMARK    1  A    between atoms: C_2  and  C_3
REMARK    2  A    between atoms: C_3  and  C_4
REMARK    3  A    between atoms: C_4  and  C_5
REMARK    4  A    between atoms: C_8  and  N_9
REMARK    5  A    between atoms: C_14  and  N_15
REMARK    6  A    between atoms: N_15  and  C_16
REMARK    7  A    between atoms: N_15  and  C_23
REMARK    8  A    between atoms: C_16  and  C_17
REMARK    9  A    between atoms: C_23  and  C_24
REMARK                            x       y       z     vdW  Elec       q    Type
REMARK                         _______ _______ _______ _____ _____    ______ ____
ROOT
ATOM      1  N   UNL     1       1.294  -0.862   0.643  0.00  0.00    +0.000 N 
ATOM      2  C   UNL     1       0.489  -1.334   1.703  0.00  0.00    +0.000 C 
ATOM      3  O   UNL     1       0.855  -2.217   2.549  0.00  0.00    +0.000 OA
ATOM      4  C   UNL     1      -0.825  -0.655   1.678  0.00  0.00    +0.000 C 
ATOM      5 CL   UNL     1      -2.127  -0.937   2.813  0.00  0.00    +0.000 Cl
ATOM      6  C   UNL     1      -0.806   0.177   0.659  0.00  0.00    +0.000 C 
ATOM      7  C   UNL     1       0.468   0.111  -0.034  0.00  0.00    +0.000 C 
ATOM      8  O   UNL     1       0.842   0.750  -1.036  0.00  0.00    +0.000 OA
ENDROOT
BRANCH   1  12
ATOM      9  C   UNL     1       5.230  -1.941  -0.382  0.00  0.00    +0.000 A 
ATOM     10  C   UNL     1       4.169  -2.425  -1.096  0.00  0.00    +0.000 A 
ATOM     11  C   UNL     1       2.863  -2.076  -0.755  0.00  0.00    +0.000 A 
ATOM     12  C   UNL     1       2.613  -1.238   0.308  0.00  0.00    +0.000 A 
ATOM     13  C   UNL     1       3.691  -0.761   1.016  0.00  0.00    +0.000 A 
ATOM     14  C   UNL     1       4.999  -1.106   0.680  0.00  0.00    +0.000 A 
BRANCH   9  15
ATOM     15  C   UNL     1       6.600  -2.321  -0.776  0.00  0.00    +0.000 C 
BRANCH  15  16
ATOM     16  C   UNL     1       7.049  -1.268  -1.797  0.00  0.00    +0.000 C 
BRANCH  16  18
ATOM     17  C   UNL     1       7.920  -0.020   0.130  0.00  0.00    +0.000 C 
ATOM     18  C   UNL     1       6.981   0.071  -1.048  0.00  0.00    +0.000 C 
ENDBRANCH  16  18
ENDBRANCH  15  16
ENDBRANCH   9  15
ENDBRANCH   1  12
BRANCH   6  19
ATOM     19  N   UNL     1      -1.857   1.061   0.227  0.00  0.00    +0.000 N 
BRANCH  19  20
ATOM     20  C   UNL     1      -2.137   2.239   0.999  0.00  0.00    +0.000 C 
BRANCH  20  21
ATOM     21  C   UNL     1      -3.039   3.207   0.361  0.00  0.00    +0.000 A 
ATOM     22  C   UNL     1      -2.457   4.324  -0.237  0.00  0.00    +0.000 A 
ATOM     23  C   UNL     1      -3.195   5.305  -0.875  0.00  0.00    +0.000 A 
ATOM     24  C   UNL     1      -4.562   5.190  -0.930  0.00  0.00    +0.000 A 
ATOM     25  C   UNL     1      -5.160   4.095  -0.345  0.00  0.00    +0.000 A 
ATOM     26  C   UNL     1      -4.403   3.100   0.302  0.00  0.00    +0.000 A 
ENDBRANCH  20  21
ENDBRANCH  19  20
BRANCH  19  27
ATOM     27  C   UNL     1      -2.592   0.698  -0.971  0.00  0.00    +0.000 C 
BRANCH  27  28
ATOM     28  C   UNL     1      -3.187  -0.669  -0.721  0.00  0.00    +0.000 A 
ATOM     29  C   UNL     1      -4.406  -0.685  -0.079  0.00  0.00    +0.000 A 
ATOM     30  C   UNL     1      -5.044  -1.881   0.216  0.00  0.00    +0.000 A 
ATOM     31  C   UNL     1      -4.449  -3.071  -0.139  0.00  0.00    +0.000 A 
ATOM     32  C   UNL     1      -3.235  -3.031  -0.776  0.00  0.00    +0.000 A 
ATOM     33  C   UNL     1      -2.582  -1.832  -1.079  0.00  0.00    +0.000 A 
ENDBRANCH  27  28
ENDBRANCH  19  27
ENDBRANCH   6  19
TORSDOF 9
