REMARK  Name = 
REMARK  6 active torsions:
REMARK  status: ('A' for Active; 'I' for Inactive)
REMARK    1  A    between atoms: C_2  and  C_3
REMARK    2  A    between atoms: C_6  and  N_7
REMARK    3  A    between atoms: N_7  and  C_8
REMARK    4  A    between atoms: C_9  and  S_10
REMARK    5  A    between atoms: S_10  and  C_11
REMARK    6  A    between atoms: N_19  and  C_20
REMARK                            x       y       z     vdW  Elec       q    Type
REMARK                         _______ _______ _______ _____ _____    ______ ____
ROOT
ATOM      1  C   UNL     1      -0.276   0.619  -0.397  0.00  0.00    +0.000 C 
ATOM      2  C   UNL     1      -1.108   1.087   0.493  0.00  0.00    +0.000 C 
ATOM      3  C   UNL     1      -2.225   0.119   0.637  0.00  0.00    +0.000 C 
ATOM      4  O   UNL     1      -3.202   0.230   1.395  0.00  0.00    +0.000 OA
ATOM      5  N   UNL     1      -1.995  -0.966  -0.239  0.00  0.00    +0.000 N 
ATOM      6  C   UNL     1      -0.775  -0.669  -0.897  0.00  0.00    +0.000 C 
ATOM      7  O   UNL     1      -0.251  -1.412  -1.752  0.00  0.00    +0.000 OA
ENDROOT
BRANCH   5   8
ATOM      8  C   UNL     1      -2.800  -2.130  -0.444  0.00  0.00    +0.000 A 
ATOM      9  C   UNL     1      -2.592  -3.186   0.406  0.00  0.00    +0.000 A 
ATOM     10  C   UNL     1      -3.359  -4.334   0.235  0.00  0.00    +0.000 A 
ATOM     11  C   UNL     1      -4.303  -4.446  -0.740  0.00  0.00    +0.000 A 
ATOM     12  C   UNL     1      -5.074  -5.699  -0.854  0.00  0.00    +0.000 C 
ATOM     13  C   UNL     1      -4.516  -3.386  -1.598  0.00  0.00    +0.000 A 
ATOM     14  C   UNL     1      -3.744  -2.236  -1.423  0.00  0.00    +0.000 A 
ATOM     15  C   UNL     1      -3.974  -1.109  -2.339  0.00  0.00    +0.000 C 
ENDBRANCH   5   8
BRANCH   1  16
ATOM     16  N   UNL     1       0.958   1.149  -0.894  0.00  0.00    +0.000 NA
BRANCH  16  20
ATOM     17  C   UNL     1       4.666  -0.703  -0.263  0.00  0.00    +0.000 A 
ATOM     18  C   UNL     1       4.562   0.469  -0.984  0.00  0.00    +0.000 A 
ATOM     19  C   UNL     1       3.326   1.050  -1.173  0.00  0.00    +0.000 A 
ATOM     20  C   UNL     1       2.199   0.458  -0.641  0.00  0.00    +0.000 A 
ATOM     21  C   UNL     1       2.258  -0.708   0.083  0.00  0.00    +0.000 A 
ATOM     22  C   UNL     1       3.520  -1.270   0.256  0.00  0.00    +0.000 A 
BRANCH  17  24
ATOM     23  C   UNL     1       6.335  -2.341  -1.104  0.00  0.00    +0.000 C 
ATOM     24  C   UNL     1       5.977  -1.356  -0.039  0.00  0.00    +0.000 C 
ENDBRANCH  17  24
ENDBRANCH  16  20
ENDBRANCH   1  16
BRANCH   2  25
ATOM     25  S   UNL     1      -1.032   2.559   1.428  0.00  0.00    +0.000 S 
BRANCH  25  26
ATOM     26  C   UNL     1       0.244   3.690   1.043  0.00  0.00    +0.000 A 
ATOM     27  C   UNL     1       0.336   4.861   1.829  0.00  0.00    +0.000 A 
ATOM     28  C   UNL     1       1.291   5.811   1.599  0.00  0.00    +0.000 A 
ATOM     29  C   UNL     1       2.229   5.703   0.594  0.00  0.00    +0.000 A 
ATOM     30  C   UNL     1       2.145   4.547  -0.188  0.00  0.00    +0.000 A 
ATOM     31  C   UNL     1       1.181   3.599   0.052  0.00  0.00    +0.000 A 
ENDBRANCH  25  26
ENDBRANCH   2  25
TORSDOF 6
