REMARK  Name = 
REMARK  8 active torsions:
REMARK  status: ('A' for Active; 'I' for Inactive)
REMARK    1  A    between atoms: O_2  and  C_3
REMARK    2  A    between atoms: C_8  and  O_9
REMARK    3  A    between atoms: O_9  and  C_10
REMARK    4  A    between atoms: C_10  and  C_11
REMARK    5  A    between atoms: C_17  and  C_18
REMARK    6  A    between atoms: C_22  and  O_23
REMARK    7  A    between atoms: O_23  and  C_24
REMARK    8  A    between atoms: C_24  and  C_25
REMARK                            x       y       z     vdW  Elec       q    Type
REMARK                         _______ _______ _______ _____ _____    ______ ____
ROOT
ATOM      1  C   UNL     1      -1.182   1.159   3.710  0.00  0.00    +0.000 A 
ATOM      2  C   UNL     1      -0.052   1.956   3.938  0.00  0.00    +0.000 A 
ATOM      3  C   UNL     1       1.062   1.728   3.116  0.00  0.00    +0.000 A 
ATOM      4  C   UNL     1       1.014   0.770   2.151  0.00  0.00    +0.000 A 
ATOM      5  C   UNL     1      -0.071   0.008   1.937  0.00  0.00    +0.000 A 
ATOM      6  C   UNL     1      -1.201   0.163   2.694  0.00  0.00    +0.000 A 
ATOM      7  C   UNL     1       2.349   0.620   1.344  0.00  0.00    +0.000 C 
ATOM      8  N   UNL     1       2.385   2.184   0.884  0.00  0.00    +0.000 NA
ATOM      9  C   UNL     1       2.957   2.831   2.012  0.00  0.00    +0.000 C 
ATOM     10  C   UNL     1       2.313   2.496   3.308  0.00  0.00    +0.000 C 
ENDROOT
BRANCH   7  11
ATOM     11  C   UNL     1       1.840   0.109  -0.038  0.00  0.00    +0.000 A 
ATOM     12  C   UNL     1       0.765  -0.689  -0.075  0.00  0.00    +0.000 A 
ATOM     13  C   UNL     1       0.252  -1.139  -1.329  0.00  0.00    +0.000 A 
ATOM     14  C   UNL     1       0.872  -0.743  -2.491  0.00  0.00    +0.000 A 
ATOM     15  C   UNL     1       1.981   0.081  -2.442  0.00  0.00    +0.000 A 
ATOM     16  C   UNL     1       2.419   0.472  -1.208  0.00  0.00    +0.000 A 
BRANCH  15  17
ATOM     17  O   UNL     1       2.658   0.529  -3.558  0.00  0.00    +0.000 OA
BRANCH  17  18
ATOM     18  C   UNL     1       2.283   0.212  -4.879  0.00  0.00    +0.000 C 
BRANCH  18  19
ATOM     19  C   UNL     1       2.287  -1.272  -5.171  0.00  0.00    +0.000 C 
ATOM     20  C   UNL     1       1.849  -1.492  -6.615  0.00  0.00    +0.000 C 
ATOM     21  C   UNL     1       3.735  -1.751  -5.129  0.00  0.00    +0.000 C 
ENDBRANCH  18  19
ENDBRANCH  17  18
ENDBRANCH  15  17
ENDBRANCH   7  11
BRANCH   1  23
ATOM     22  C   UNL     1      -3.342   1.399   5.106  0.00  0.00    +0.000 C 
ATOM     23  O   UNL     1      -2.293   1.276   4.422  0.00  0.00    +0.000 OA
ENDBRANCH   1  23
BRANCH   6  24
ATOM     24  O   UNL     1      -2.357  -0.554   2.575  0.00  0.00    +0.000 OA
BRANCH  24  25
ATOM     25  C   UNL     1      -2.810  -1.519   1.792  0.00  0.00    +0.000 C 
BRANCH  25  26
ATOM     26  C   UNL     1      -3.020  -1.371   0.374  0.00  0.00    +0.000 A 
ATOM     27  C   UNL     1      -3.530  -0.163  -0.113  0.00  0.00    +0.000 A 
ATOM     28  C   UNL     1      -3.786   0.070  -1.429  0.00  0.00    +0.000 A 
ATOM     29  C   UNL     1      -3.542  -0.907  -2.353  0.00  0.00    +0.000 A 
ATOM     30  C   UNL     1      -3.041  -2.112  -1.944  0.00  0.00    +0.000 A 
ATOM     31  C   UNL     1      -2.792  -2.315  -0.590  0.00  0.00    +0.000 A 
ENDBRANCH  25  26
ENDBRANCH  24  25
ENDBRANCH   6  24
TORSDOF 8
