REMARK  Name = 
REMARK  7 active torsions:
REMARK  status: ('A' for Active; 'I' for Inactive)
REMARK    1  A    between atoms: O_2  and  C_3
REMARK    2  A    between atoms: C_8  and  N_9
REMARK    3  A    between atoms: N_12  and  C_13
REMARK    4  A    between atoms: C_13  and  C_14
REMARK    5  A    between atoms: C_14  and  C_15
REMARK    6  A    between atoms: C_15  and  O_16
REMARK    7  A    between atoms: O_16  and  C_17
REMARK                            x       y       z     vdW  Elec       q    Type
REMARK                         _______ _______ _______ _____ _____    ______ ____
ROOT
ATOM      1  C   UNL     1      -0.122   0.903  -0.194  0.00  0.00    +0.000 C 
ENDROOT
BRANCH   1   2
ATOM      2  C   UNL     1      -1.264   1.434   0.596  0.00  0.00    +0.000 C 
BRANCH   2   6
ATOM      3  N   UNL     1      -4.213   0.100   0.678  0.00  0.00    +0.000 N 
ATOM      4  C   UNL     1      -4.133   1.344   1.388  0.00  0.00    +0.000 C 
ATOM      5  C   UNL     1      -3.385   2.417   0.675  0.00  0.00    +0.000 C 
ATOM      6  N   UNL     1      -2.350   1.935  -0.203  0.00  0.00    +0.000 NA
ATOM      7  C   UNL     1      -2.791   0.863  -1.069  0.00  0.00    +0.000 C 
ATOM      8  C   UNL     1      -3.117  -0.321  -0.147  0.00  0.00    +0.000 C 
BRANCH   3  14
ATOM      9  C   UNL     1      -6.607  -0.195   0.409  0.00  0.00    +0.000 A 
ATOM     10  C   UNL     1      -7.720  -0.998   0.535  0.00  0.00    +0.000 A 
ATOM     11  C   UNL     1      -7.675  -2.285   1.025  0.00  0.00    +0.000 A 
ATOM     12  C   UNL     1      -6.437  -2.786   1.409  0.00  0.00    +0.000 A 
ATOM     13  C   UNL     1      -5.334  -2.001   1.289  0.00  0.00    +0.000 A 
ATOM     14  C   UNL     1      -5.364  -0.700   0.796  0.00  0.00    +0.000 A 
BRANCH   9  16
ATOM     15  C   UNL     1      -7.956   1.594  -0.476  0.00  0.00    +0.000 C 
ATOM     16  O   UNL     1      -6.689   1.102  -0.090  0.00  0.00    +0.000 OA
ENDBRANCH   9  16
ENDBRANCH   3  14
ENDBRANCH   2   6
ENDBRANCH   1   2
BRANCH   1  17
ATOM     17  C   UNL     1       0.508   1.933  -1.102  0.00  0.00    +0.000 C 
BRANCH  17  18
ATOM     18  O   UNL     1       1.575   1.434  -1.839  0.00  0.00    +0.000 OA
BRANCH  18  19
ATOM     19  C   UNL     1       2.691   0.916  -1.219  0.00  0.00    +0.000 A 
ATOM     20  C   UNL     1       2.741   0.897   0.155  0.00  0.00    +0.000 A 
ATOM     21  C   UNL     1       3.831   0.392   0.833  0.00  0.00    +0.000 A 
ATOM     22  C   UNL     1       4.924  -0.119   0.160  0.00  0.00    +0.000 A 
ATOM     23  C   UNL     1       4.867  -0.097  -1.218  0.00  0.00    +0.000 A 
ATOM     24  C   UNL     1       3.774   0.410  -1.905  0.00  0.00    +0.000 A 
ATOM     25  N   UNL     1       6.042  -0.645  -1.629  0.00  0.00    +0.000 NA
ATOM     26  C   UNL     1       6.805  -0.997  -0.586  0.00  0.00    +0.000 A 
ATOM     27  C   UNL     1       8.060  -1.581  -0.454  0.00  0.00    +0.000 A 
ATOM     28  C   UNL     1       8.605  -1.831   0.788  0.00  0.00    +0.000 A 
ATOM     29  C   UNL     1       7.931  -1.513   1.949  0.00  0.00    +0.000 A 
ATOM     30  C   UNL     1       6.675  -0.929   1.811  0.00  0.00    +0.000 A 
ATOM     31  C   UNL     1       6.127  -0.678   0.570  0.00  0.00    +0.000 A 
ENDBRANCH  18  19
ENDBRANCH  17  18
ENDBRANCH   1  17
TORSDOF 7
