REMARK  Name = 
REMARK  8 active torsions:
REMARK  status: ('A' for Active; 'I' for Inactive)
REMARK    1  A    between atoms: O_2  and  C_3
REMARK    2  A    between atoms: C_3  and  C_4
REMARK    3  A    between atoms: C_4  and  O_6
REMARK    4  A    between atoms: O_6  and  C_7
REMARK    5  A    between atoms: C_7  and  C_9
REMARK    6  A    between atoms: N_12  and  C_13
REMARK    7  A    between atoms: C_13  and  C_14
REMARK    8  A    between atoms: C_14  and  C_15
REMARK                            x       y       z     vdW  Elec       q    Type
REMARK                         _______ _______ _______ _____ _____    ______ ____
ROOT
ATOM      1  C   UNL     1      -1.091   1.099   0.660  0.00  0.00    +0.000 A 
ATOM      2  C   UNL     1       0.133   1.704   0.739  0.00  0.00    +0.000 A 
ATOM      3  N   UNL     1       0.369   2.968   1.326  0.00  0.00    +0.000 NA
ATOM      4  N   UNL     1       1.049   0.898   0.170  0.00  0.00    +0.000 N 
ATOM      5  C   UNL     1       0.433  -0.215  -0.272  0.00  0.00    +0.000 A 
ATOM      6  N   UNL     1       0.858  -1.342  -0.911  0.00  0.00    +0.000 NA
ATOM      7  C   UNL     1      -0.006  -2.320  -1.242  0.00  0.00    +0.000 A 
ATOM      8  C   UNL     1       0.432  -3.458  -1.889  0.00  0.00    +0.000 A 
ATOM      9  C   UNL     1      -0.475  -4.452  -2.219  0.00  0.00    +0.000 A 
ATOM     10  C   UNL     1      -1.812  -4.311  -1.906  0.00  0.00    +0.000 A 
ATOM     11  C   UNL     1      -2.260  -3.172  -1.257  0.00  0.00    +0.000 A 
ATOM     12  C   UNL     1      -1.349  -2.206  -0.941  0.00  0.00    +0.000 A 
ATOM     13  N   UNL     1      -1.756  -1.108  -0.319  0.00  0.00    +0.000 NA
ATOM     14  C   UNL     1      -0.898  -0.104   0.025  0.00  0.00    +0.000 A 
ENDROOT
BRANCH   1  15
ATOM     15  C   UNL     1      -2.390   1.552   1.122  0.00  0.00    +0.000 C 
ATOM     16  O   UNL     1      -2.482   2.660   1.691  0.00  0.00    +0.000 OA
BRANCH  15  17
ATOM     17  O   UNL     1      -3.495   0.816   0.956  0.00  0.00    +0.000 OA
BRANCH  17  18
ATOM     18  C   UNL     1      -4.851   1.367   1.478  0.00  0.00    +0.000 C 
ATOM     19  C   UNL     1      -4.636   0.714   3.013  0.00  0.00    +0.000 C 
BRANCH  18  20
ATOM     20  C   UNL     1      -5.776   0.047   0.988  0.00  0.00    +0.000 C 
BRANCH  20  22
ATOM     21  C   UNL     1      -6.023   1.306  -0.849  0.00  0.00    +0.000 C 
ATOM     22  O   UNL     1      -5.558   0.055  -0.376  0.00  0.00    +0.000 OA
ENDBRANCH  20  22
ENDBRANCH  18  20
ENDBRANCH  17  18
ENDBRANCH  15  17
ENDBRANCH   1  15
BRANCH   4  23
ATOM     23  C   UNL     1       2.475   1.137   0.030  0.00  0.00    +0.000 C 
BRANCH  23  24
ATOM     24  C   UNL     1       3.157   0.569   1.275  0.00  0.00    +0.000 C 
BRANCH  24  25
ATOM     25  C   UNL     1       4.618   0.810   1.138  0.00  0.00    +0.000 A 
ATOM     26  C   UNL     1       5.386  -0.162   0.518  0.00  0.00    +0.000 A 
ATOM     27  C   UNL     1       6.734  -0.012   0.356  0.00  0.00    +0.000 A 
ATOM     28  C   UNL     1       7.360   1.120   0.811  0.00  0.00    +0.000 A 
ATOM     29  C   UNL     1       6.615   2.087   1.425  0.00  0.00    +0.000 A 
ATOM     30  C   UNL     1       5.239   1.955   1.601  0.00  0.00    +0.000 A 
ENDBRANCH  24  25
ENDBRANCH  23  24
ENDBRANCH   4  23
TORSDOF 8
