REMARK  Name = 
REMARK  7 active torsions:
REMARK  status: ('A' for Active; 'I' for Inactive)
REMARK    1  A    between atoms: C_2  and  C_4
REMARK    2  A    between atoms: C_4  and  N_5
REMARK    3  A    between atoms: C_8  and  C_9
REMARK    4  A    between atoms: N_11  and  C_12
REMARK    5  A    between atoms: C_12  and  C_14
REMARK    6  A    between atoms: C_14  and  C_15
REMARK    7  A    between atoms: C_15  and  C_16
REMARK                            x       y       z     vdW  Elec       q    Type
REMARK                         _______ _______ _______ _____ _____    ______ ____
ROOT
ATOM      1  N   UNL     1      -1.942   0.250   2.815  0.00  0.00    +0.000 N 
ATOM      2  C   UNL     1      -0.638   0.048   2.665  0.00  0.00    +0.000 A 
ATOM      3  N   UNL     1       0.380   0.231   3.651  0.00  0.00    +0.000 NA
ATOM      4  C   UNL     1      -0.378  -0.380   1.380  0.00  0.00    +0.000 A 
ATOM      5  C   UNL     1      -1.598  -0.443   0.705  0.00  0.00    +0.000 A 
ATOM      6  N   UNL     1      -1.934  -0.791  -0.552  0.00  0.00    +0.000 NA
ATOM      7  C   UNL     1      -3.224  -0.761  -0.951  0.00  0.00    +0.000 A 
ATOM      8  C   UNL     1      -3.620  -1.109  -2.228  0.00  0.00    +0.000 A 
ATOM      9  C   UNL     1      -4.939  -1.082  -2.645  0.00  0.00    +0.000 A 
ATOM     10  C   UNL     1      -5.873  -0.682  -1.710  0.00  0.00    +0.000 A 
ATOM     11  C   UNL     1      -5.485  -0.337  -0.444  0.00  0.00    +0.000 A 
ATOM     12  C   UNL     1      -4.165  -0.363  -0.023  0.00  0.00    +0.000 A 
ATOM     13  N   UNL     1      -3.812  -0.016   1.234  0.00  0.00    +0.000 NA
ATOM     14  C   UNL     1      -2.526  -0.043   1.641  0.00  0.00    +0.000 A 
ENDROOT
BRANCH   4  15
ATOM     15  C   UNL     1       0.897  -0.723   0.764  0.00  0.00    +0.000 C 
ATOM     16  O   UNL     1       1.915  -0.620   1.498  0.00  0.00    +0.000 OA
ATOM     17  N   UNL     1       1.071  -1.148  -0.556  0.00  0.00    +0.000 NA
BRANCH  17  18
ATOM     18  C   UNL     1       2.564  -1.461  -0.989  0.00  0.00    +0.000 C 
ATOM     19  C   UNL     1       3.063   0.101  -0.678  0.00  0.00    +0.000 C 
BRANCH  18  20
ATOM     20  C   UNL     1       2.257  -1.104  -2.595  0.00  0.00    +0.000 C 
BRANCH  20  21
ATOM     21  C   UNL     1       3.562  -1.323  -3.303  0.00  0.00    +0.000 C 
BRANCH  21  22
ATOM     22  C   UNL     1       4.670  -0.494  -2.832  0.00  0.00    +0.000 A 
ATOM     23  C   UNL     1       4.877   0.743  -3.425  0.00  0.00    +0.000 A 
ATOM     24  C   UNL     1       5.925   1.563  -3.006  0.00  0.00    +0.000 A 
ATOM     25  C   UNL     1       6.766   1.172  -2.010  0.00  0.00    +0.000 A 
ATOM     26  C   UNL     1       6.566  -0.071  -1.406  0.00  0.00    +0.000 A 
ATOM     27  C   UNL     1       5.521  -0.872  -1.835  0.00  0.00    +0.000 A 
ENDBRANCH  21  22
ENDBRANCH  20  21
ENDBRANCH  18  20
ENDBRANCH  17  18
ENDBRANCH   4  15
BRANCH   1  28
ATOM     28  C   UNL     1      -2.580   0.710   4.054  0.00  0.00    +0.000 C 
BRANCH  28  30
ATOM     29  C   UNL     1      -3.449   2.716   2.860  0.00  0.00    +0.000 C 
ATOM     30  C   UNL     1      -2.638   2.227   4.058  0.00  0.00    +0.000 C 
ATOM     31  C   UNL     1      -1.233   2.806   3.861  0.00  0.00    +0.000 C 
ENDBRANCH  28  30
ENDBRANCH   1  28
TORSDOF 7
