REMARK  Name = 
REMARK  7 active torsions:
REMARK  status: ('A' for Active; 'I' for Inactive)
REMARK    1  A    between atoms: C_2  and  O_3
REMARK    2  A    between atoms: O_3  and  C_4
REMARK    3  A    between atoms: C_7  and  C_8
REMARK    4  A    between atoms: C_10  and  C_11
REMARK    5  A    between atoms: N_13  and  C_14
REMARK    6  A    between atoms: C_14  and  C_15
REMARK    7  A    between atoms: C_20  and  O_21
REMARK                            x       y       z     vdW  Elec       q    Type
REMARK                         _______ _______ _______ _____ _____    ______ ____
ROOT
ATOM      1  C   UNL     1      -2.079  -0.968  -0.325  0.00  0.00    +0.000 A 
ATOM      2  C   UNL     1      -0.788  -0.458  -0.309  0.00  0.00    +0.000 A 
ATOM      3  C   UNL     1       0.331  -1.250  -0.390  0.00  0.00    +0.000 A 
ATOM      4  C   UNL     1       0.129  -2.626  -0.489  0.00  0.00    +0.000 A 
ATOM      5  C   UNL     1       1.237  -3.447  -0.588  0.00  0.00    +0.000 A 
ATOM      6  C   UNL     1       1.040  -4.824  -0.707  0.00  0.00    +0.000 A 
ATOM      7  C   UNL     1      -0.246  -5.342  -0.726  0.00  0.00    +0.000 A 
ATOM      8  C   UNL     1      -1.366  -4.535  -0.628  0.00  0.00    +0.000 A 
ATOM      9  C   UNL     1      -1.145  -3.153  -0.507  0.00  0.00    +0.000 A 
ATOM     10  N   UNL     1      -2.204  -2.307  -0.424  0.00  0.00    +0.000 NA
ENDROOT
BRANCH   1  14
ATOM     11  C   UNL     1      -5.460   1.559  -0.098  0.00  0.00    +0.000 A 
ATOM     12  C   UNL     1      -4.203   2.090   0.027  0.00  0.00    +0.000 A 
ATOM     13  C   UNL     1      -3.104   1.231  -0.048  0.00  0.00    +0.000 A 
ATOM     14  C   UNL     1      -3.229  -0.101  -0.238  0.00  0.00    +0.000 A 
ATOM     15  C   UNL     1      -4.500  -0.628  -0.363  0.00  0.00    +0.000 A 
ATOM     16  C   UNL     1      -5.651   0.171  -0.298  0.00  0.00    +0.000 A 
BRANCH  11  17
ATOM     17  O   UNL     1      -6.602   2.332  -0.038  0.00  0.00    +0.000 OA
BRANCH  17  19
ATOM     18  C   UNL     1      -5.998   4.178   1.454  0.00  0.00    +0.000 C 
ATOM     19  C   UNL     1      -6.636   3.715   0.151  0.00  0.00    +0.000 C 
ENDBRANCH  17  19
ENDBRANCH  11  17
ENDBRANCH   1  14
BRANCH   3  20
ATOM     20  C   UNL     1       1.708  -0.727  -0.328  0.00  0.00    +0.000 C 
ATOM     21  O   UNL     1       2.076  -0.004  -1.327  0.00  0.00    +0.000 OA
ATOM     22  N   UNL     1       2.627  -0.925   0.686  0.00  0.00    +0.000 NA
BRANCH  22  23
ATOM     23  C   UNL     1       3.948  -0.459   0.806  0.00  0.00    +0.000 C 
BRANCH  23  24
ATOM     24  C   UNL     1       4.136   0.995   0.691  0.00  0.00    +0.000 A 
ATOM     25  C   UNL     1       3.092   1.832   0.450  0.00  0.00    +0.000 A 
ATOM     26  C   UNL     1       3.220   3.222   0.293  0.00  0.00    +0.000 A 
ATOM     27  C   UNL     1       4.492   3.783   0.391  0.00  0.00    +0.000 A 
ATOM     28  C   UNL     1       5.546   2.952   0.635  0.00  0.00    +0.000 A 
ATOM     29  C   UNL     1       5.392   1.577   0.787  0.00  0.00    +0.000 A 
BRANCH  29  30
ATOM     30  O   UNL     1       6.471   0.750   1.036  0.00  0.00    +0.000 OA
ATOM     31  C   UNL     1       7.768   1.365   1.130  0.00  0.00    +0.000 C 
ENDBRANCH  29  30
ENDBRANCH  23  24
ENDBRANCH  22  23
ENDBRANCH   3  20
TORSDOF 7
