REMARK  Name = 
REMARK  8 active torsions:
REMARK  status: ('A' for Active; 'I' for Inactive)
REMARK    1  A    between atoms: O_2  and  C_3
REMARK    2  A    between atoms: C_6  and  C_7
REMARK    3  A    between atoms: C_7  and  C_8
REMARK    4  A    between atoms: C_8  and  N_9
REMARK    5  A    between atoms: C_10  and  C_12
REMARK    6  A    between atoms: C_14  and  C_15
REMARK    7  A    between atoms: C_18  and  O_19
REMARK    8  A    between atoms: C_21  and  O_22
REMARK                            x       y       z     vdW  Elec       q    Type
REMARK                         _______ _______ _______ _____ _____    ______ ____
ROOT
ATOM      1  C   UNL     1      -0.010  -0.805  -0.243  0.00  0.00    +0.000 A 
ATOM      2  C   UNL     1      -1.327  -0.599  -0.597  0.00  0.00    +0.000 A 
ATOM      3  C   UNL     1      -2.286  -0.250   0.329  0.00  0.00    +0.000 A 
ATOM      4  N   UNL     1      -1.879  -0.119   1.603  0.00  0.00    +0.000 NA
ATOM      5  C   UNL     1      -0.620  -0.304   2.010  0.00  0.00    +0.000 A 
ATOM      6  C   UNL     1      -0.228  -0.163   3.328  0.00  0.00    +0.000 A 
ATOM      7  C   UNL     1       1.053  -0.349   3.767  0.00  0.00    +0.000 A 
ATOM      8  C   UNL     1       2.004  -0.701   2.810  0.00  0.00    +0.000 A 
ATOM      9  C   UNL     1       1.645  -0.850   1.482  0.00  0.00    +0.000 A 
ATOM     10  C   UNL     1       0.356  -0.657   1.077  0.00  0.00    +0.000 A 
ENDROOT
BRANCH   3  11
ATOM     11  C   UNL     1      -3.682  -0.031  -0.040  0.00  0.00    +0.000 A 
ATOM     12  C   UNL     1      -4.616   0.317   0.910  0.00  0.00    +0.000 A 
ATOM     13  C   UNL     1      -5.953   0.533   0.589  0.00  0.00    +0.000 A 
ATOM     14  C   UNL     1      -6.371   0.397  -0.718  0.00  0.00    +0.000 A 
ATOM     15  C   UNL     1      -5.457   0.050  -1.691  0.00  0.00    +0.000 A 
ATOM     16  C   UNL     1      -4.122  -0.160  -1.338  0.00  0.00    +0.000 A 
BRANCH  14  17
ATOM     17  O   UNL     1      -7.680   0.601  -1.079  0.00  0.00    +0.000 OA
ATOM     18  C   UNL     1      -8.704   0.957  -0.189  0.00  0.00    +0.000 C 
ENDBRANCH  14  17
BRANCH  15  19
ATOM     19  O   UNL     1      -5.896  -0.081  -2.997  0.00  0.00    +0.000 OA
ATOM     20  C   UNL     1      -4.939  -0.441  -3.986  0.00  0.00    +0.000 C 
ENDBRANCH  15  19
ENDBRANCH   3  11
BRANCH   1  22
ATOM     21  N   UNL     1       2.379  -1.364  -0.901  0.00  0.00    +0.000 NA
ATOM     22  C   UNL     1       1.009  -1.170  -1.213  0.00  0.00    +0.000 C 
ATOM     23  O   UNL     1       0.656  -1.326  -2.409  0.00  0.00    +0.000 OA
BRANCH  21  24
ATOM     24  C   UNL     1       3.351  -1.734  -1.931  0.00  0.00    +0.000 C 
BRANCH  24  25
ATOM     25  C   UNL     1       4.696  -1.852  -1.255  0.00  0.00    +0.000 C 
BRANCH  25  29
ATOM     26  C   UNL     1       6.087   1.808   0.380  0.00  0.00    +0.000 A 
ATOM     27  C   UNL     1       6.352   1.456  -0.924  0.00  0.00    +0.000 A 
ATOM     28  C   UNL     1       5.891   0.269  -1.426  0.00  0.00    +0.000 A 
ATOM     29  C   UNL     1       5.145  -0.592  -0.615  0.00  0.00    +0.000 A 
ATOM     30  C   UNL     1       4.881  -0.239   0.689  0.00  0.00    +0.000 A 
ATOM     31  C   UNL     1       5.360   0.973   1.180  0.00  0.00    +0.000 A 
BRANCH  26  33
ATOM     32  C   UNL     1       6.319   3.400   2.166  0.00  0.00    +0.000 C 
ATOM     33  O   UNL     1       6.586   3.029   0.829  0.00  0.00    +0.000 OA
ENDBRANCH  26  33
ENDBRANCH  25  29
ENDBRANCH  24  25
ENDBRANCH  21  24
ENDBRANCH   1  22
TORSDOF 8
