REMARK  Name = 
REMARK  6 active torsions:
REMARK  status: ('A' for Active; 'I' for Inactive)
REMARK    1  A    between atoms: C_2  and  C_4
REMARK    2  A    between atoms: N_16  and  C_17
REMARK    3  A    between atoms: C_17  and  C_18
REMARK    4  A    between atoms: C_18  and  C_19
REMARK    5  A    between atoms: C_19  and  N_20
REMARK    6  A    between atoms: C_23  and  C_25
REMARK                            x       y       z     vdW  Elec       q    Type
REMARK                         _______ _______ _______ _____ _____    ______ ____
ROOT
ATOM      1  C   UNL     1      -5.305   1.585  -0.629  0.00  0.00    +0.000 A 
ATOM      2  C   UNL     1      -4.298   2.024  -1.457  0.00  0.00    +0.000 A 
ATOM      3  C   UNL     1      -2.977   1.607  -1.310  0.00  0.00    +0.000 A 
ATOM      4  C   UNL     1      -2.636   0.718  -0.297  0.00  0.00    +0.000 A 
ATOM      5  C   UNL     1      -3.626   0.273   0.530  0.00  0.00    +0.000 A 
ATOM      6  C   UNL     1      -4.954   0.690   0.385  0.00  0.00    +0.000 A 
ATOM      7  C   UNL     1      -2.993  -0.561   1.426  0.00  0.00    +0.000 A 
ATOM      8  C   UNL     1      -3.473  -1.304   2.485  0.00  0.00    +0.000 A 
ATOM      9  C   UNL     1      -2.649  -2.101   3.280  0.00  0.00    +0.000 A 
ATOM     10  C   UNL     1      -1.294  -2.151   2.999  0.00  0.00    +0.000 A 
ATOM     11  C   UNL     1      -0.804  -1.415   1.945  0.00  0.00    +0.000 A 
ATOM     12  C   UNL     1      -1.635  -0.629   1.164  0.00  0.00    +0.000 A 
ATOM     13  N   UNL     1      -1.438   0.163   0.103  0.00  0.00    +0.000 N 
ENDROOT
BRANCH   1  15
ATOM     14  C   UNL     1      -6.958   3.124  -1.754  0.00  0.00    +0.000 C 
ATOM     15  C   UNL     1      -6.660   2.080  -0.781  0.00  0.00    +0.000 C 
ATOM     16  O   UNL     1      -7.563   1.596  -0.064  0.00  0.00    +0.000 OA
ENDBRANCH   1  15
BRANCH  13  17
ATOM     17  C   UNL     1      -0.245   0.542  -0.585  0.00  0.00    +0.000 C 
BRANCH  17  18
ATOM     18  C   UNL     1       0.243  -0.477  -1.598  0.00  0.00    +0.000 C 
BRANCH  18  19
ATOM     19  C   UNL     1       0.734  -1.743  -0.924  0.00  0.00    +0.000 C 
BRANCH  19  20
ATOM     20  N   UNL     1       1.964  -1.427  -0.160  0.00  0.00    +0.000 NA
ATOM     21  C   UNL     1       2.955  -1.212  -1.254  0.00  0.00    +0.000 C 
ATOM     22  C   UNL     1       3.195   0.251  -1.489  0.00  0.00    +0.000 C 
ATOM     23  C   UNL     1       3.919   0.791  -0.263  0.00  0.00    +0.000 C 
ATOM     24  O   UNL     1       4.219   2.145  -0.385  0.00  0.00    +0.000 OA
ATOM     25  C   UNL     1       2.999   0.529   0.933  0.00  0.00    +0.000 C 
ATOM     26  C   UNL     1       1.723  -0.138   0.469  0.00  0.00    +0.000 C 
BRANCH  23  27
ATOM     27  C   UNL     1       5.123  -0.043  -0.059  0.00  0.00    +0.000 A 
ATOM     28  C   UNL     1       5.809   0.021   1.135  0.00  0.00    +0.000 A 
ATOM     29  C   UNL     1       6.946  -0.773   1.304  0.00  0.00    +0.000 A 
ATOM     30  C   UNL     1       7.397  -1.613   0.316  0.00  0.00    +0.000 A 
ATOM     31  C   UNL     1       6.707  -1.676  -0.886  0.00  0.00    +0.000 A 
ATOM     32  C   UNL     1       5.576  -0.873  -1.025  0.00  0.00    +0.000 A 
ENDBRANCH  23  27
ENDBRANCH  19  20
ENDBRANCH  18  19
ENDBRANCH  17  18
ENDBRANCH  13  17
TORSDOF 6
