REMARK  Name = 
REMARK  6 active torsions:
REMARK  status: ('A' for Active; 'I' for Inactive)
REMARK    1  A    between atoms: C_8  and  C_9
REMARK    2  A    between atoms: C_15  and  C_16
REMARK    3  A    between atoms: N_22  and  C_23
REMARK    4  A    between atoms: C_23  and  C_24
REMARK    5  A    between atoms: C_24  and  C_26
REMARK    6  A    between atoms: C_26  and  N_27
REMARK                            x       y       z     vdW  Elec       q    Type
REMARK                         _______ _______ _______ _____ _____    ______ ____
ROOT
ATOM      1  C   UNL     1      -2.331  -5.412  -0.769  0.00  0.00    +0.000 C 
ATOM      2  C   UNL     1      -1.578  -4.170  -0.417  0.00  0.00    +0.000 A 
ATOM      3  C   UNL     1      -0.227  -4.216  -0.150  0.00  0.00    +0.000 A 
ATOM      4  C   UNL     1       0.488  -3.064   0.181  0.00  0.00    +0.000 A 
ATOM      5  C   UNL     1      -0.197  -1.865   0.236  0.00  0.00    +0.000 A 
ATOM      6  C   UNL     1      -1.548  -1.761  -0.021  0.00  0.00    +0.000 A 
ATOM      7  C   UNL     1      -2.205  -2.946  -0.346  0.00  0.00    +0.000 A 
ATOM      8  C   UNL     1      -1.956  -0.450   0.107  0.00  0.00    +0.000 A 
ATOM      9  C   UNL     1      -0.810   0.252   0.453  0.00  0.00    +0.000 A 
ATOM     10  N   UNL     1       0.241  -0.599   0.529  0.00  0.00    +0.000 N 
ENDROOT
BRANCH   8  11
ATOM     11  C   UNL     1      -3.324   0.066  -0.090  0.00  0.00    +0.000 A 
ATOM     12  C   UNL     1      -4.345  -0.380   0.724  0.00  0.00    +0.000 A 
ATOM     13  C   UNL     1      -5.625   0.051   0.596  0.00  0.00    +0.000 A 
ATOM     14  C   UNL     1      -5.920   0.967  -0.384  0.00  0.00    +0.000 A 
ATOM     15  C   UNL     1      -4.917   1.448  -1.235  0.00  0.00    +0.000 A 
ATOM     16  C   UNL     1      -3.632   0.972  -1.054  0.00  0.00    +0.000 A 
ENDBRANCH   8  11
BRANCH   9  17
ATOM     17  C   UNL     1      -0.850   1.686   0.708  0.00  0.00    +0.000 A 
ATOM     18  C   UNL     1      -1.341   2.526  -0.256  0.00  0.00    +0.000 A 
ATOM     19  C   UNL     1      -1.406   3.885  -0.082  0.00  0.00    +0.000 A 
ATOM     20  C   UNL     1      -0.961   4.446   1.112  0.00  0.00    +0.000 A 
ATOM     21  C   UNL     1      -0.467   3.595   2.078  0.00  0.00    +0.000 A 
ATOM     22  C   UNL     1      -0.402   2.229   1.903  0.00  0.00    +0.000 A 
ENDBRANCH   9  17
BRANCH  10  23
ATOM     23  C   UNL     1       1.620  -0.295   0.851  0.00  0.00    +0.000 C 
BRANCH  23  24
ATOM     24  C   UNL     1       2.307  -0.058  -0.643  0.00  0.00    +0.000 C 
ATOM     25  O   UNL     1       1.388   1.107  -0.992  0.00  0.00    +0.000 OA
BRANCH  24  26
ATOM     26  C   UNL     1       3.504   0.936  -0.030  0.00  0.00    +0.000 C 
BRANCH  26  27
ATOM     27  N   UNL     1       4.453  -0.101   0.338  0.00  0.00    +0.000 NA
ATOM     28  C   UNL     1       4.998  -0.751  -0.818  0.00  0.00    +0.000 C 
ATOM     29  C   UNL     1       5.783   0.263  -1.620  0.00  0.00    +0.000 C 
ATOM     30  C   UNL     1       6.916   0.852  -0.814  0.00  0.00    +0.000 C 
ATOM     31  C   UNL     1       6.851   0.464   0.633  0.00  0.00    +0.000 C 
ATOM     32  C   UNL     1       5.495   0.323   1.190  0.00  0.00    +0.000 C 
ENDBRANCH  26  27
ENDBRANCH  24  26
ENDBRANCH  23  24
ENDBRANCH  10  23
TORSDOF 6
