REMARK  Name = 
REMARK  6 active torsions:
REMARK  status: ('A' for Active; 'I' for Inactive)
REMARK    1  A    between atoms: C_5  and  S_6
REMARK    2  A    between atoms: S_6  and  C_7
REMARK    3  A    between atoms: C_8  and  N_9
REMARK    4  A    between atoms: N_9  and  C_10
REMARK    5  A    between atoms: N_18  and  C_19
REMARK    6  A    between atoms: C_22  and  C_23
REMARK                            x       y       z     vdW  Elec       q    Type
REMARK                         _______ _______ _______ _____ _____    ______ ____
ROOT
ATOM      1  C   UNL     1      -1.383   0.308   0.584  0.00  0.00    +0.000 C 
ATOM      2  C   UNL     1      -1.037   1.576   0.809  0.00  0.00    +0.000 C 
ATOM      3  C   UNL     1       0.405   1.643   0.682  0.00  0.00    +0.000 C 
ATOM      4  O   UNL     1       1.103   2.701   0.831  0.00  0.00    +0.000 OA
ATOM      5  N   UNL     1       0.909   0.376   0.373  0.00  0.00    +0.000 N 
ATOM      6  C   UNL     1      -0.221  -0.498   0.305  0.00  0.00    +0.000 C 
ATOM      7  O   UNL     1      -0.157  -1.747   0.043  0.00  0.00    +0.000 OA
ENDROOT
BRANCH   5   8
ATOM      8  C   UNL     1       2.250  -0.062   0.150  0.00  0.00    +0.000 A 
ATOM      9  C   UNL     1       3.016  -0.345   1.260  0.00  0.00    +0.000 A 
ATOM     10  C   UNL     1       4.334  -0.781   1.156  0.00  0.00    +0.000 A 
ATOM     11  C   UNL     1       4.851  -0.921  -0.113  0.00  0.00    +0.000 A 
ATOM     12  C   UNL     1       4.073  -0.633  -1.210  0.00  0.00    +0.000 A 
ATOM     13  C   UNL     1       2.774  -0.204  -1.113  0.00  0.00    +0.000 A 
BRANCH  11  14
ATOM     14  C   UNL     1       6.241  -1.379  -0.345  0.00  0.00    +0.000 C 
ATOM     15  C   UNL     1       6.354  -2.326  -1.515  0.00  0.00    +0.000 C 
ATOM     16  C   UNL     1       6.888  -1.918   0.910  0.00  0.00    +0.000 C 
ENDBRANCH  11  14
ENDBRANCH   5   8
BRANCH   1  17
ATOM     17  S   UNL     1      -3.071  -0.257   0.637  0.00  0.00    +0.000 S 
BRANCH  17  22
ATOM     18  C   UNL     1      -3.184  -6.267  -0.421  0.00  0.00    +0.000 C 
ATOM     19  C   UNL     1      -3.155  -4.794  -0.154  0.00  0.00    +0.000 A 
ATOM     20  C   UNL     1      -3.246  -3.882  -1.179  0.00  0.00    +0.000 A 
ATOM     21  C   UNL     1      -3.218  -2.511  -0.928  0.00  0.00    +0.000 A 
ATOM     22  C   UNL     1      -3.100  -2.012   0.344  0.00  0.00    +0.000 A 
ATOM     23  C   UNL     1      -3.007  -2.933   1.389  0.00  0.00    +0.000 A 
ATOM     24  C   UNL     1      -3.036  -4.296   1.131  0.00  0.00    +0.000 A 
ENDBRANCH  17  22
ENDBRANCH   1  17
BRANCH   2  25
ATOM     25  N   UNL     1      -1.937   2.659   1.122  0.00  0.00    +0.000 NA
BRANCH  25  26
ATOM     26  C   UNL     1      -2.118   3.738   0.212  0.00  0.00    +0.000 A 
ATOM     27  C   UNL     1      -1.373   3.736  -0.947  0.00  0.00    +0.000 A 
ATOM     28  C   UNL     1      -1.481   4.735  -1.890  0.00  0.00    +0.000 A 
ATOM     29  C   UNL     1      -2.368   5.769  -1.655  0.00  0.00    +0.000 A 
ATOM     30  C   UNL     1      -3.106   5.760  -0.493  0.00  0.00    +0.000 A 
ATOM     31  C   UNL     1      -2.999   4.764   0.448  0.00  0.00    +0.000 A 
ENDBRANCH  25  26
ENDBRANCH   2  25
TORSDOF 6
