REMARK  Name = 
REMARK  9 active torsions:
REMARK  status: ('A' for Active; 'I' for Inactive)
REMARK    1  A    between atoms: C_2  and  C_3
REMARK    2  A    between atoms: C_9  and  N_10
REMARK    3  A    between atoms: C_11  and  C_13
REMARK    4  A    between atoms: C_13  and  O_14
REMARK    5  A    between atoms: O_14  and  C_15
REMARK    6  A    between atoms: C_15  and  C_17
REMARK    7  A    between atoms: C_17  and  S_18
REMARK    8  A    between atoms: C_17  and  C_25
REMARK    9  A    between atoms: S_18  and  C_19
REMARK                            x       y       z     vdW  Elec       q    Type
REMARK                         _______ _______ _______ _____ _____    ______ ____
ROOT
ATOM      1  C   UNL     1      -1.345   0.255  -1.825  0.00  0.00    +0.000 C 
ATOM      2  O   UNL     1      -1.910   1.288  -2.196  0.00  0.00    +0.000 OA
ENDROOT
BRANCH   1   3
ATOM      3  O   UNL     1      -0.072   0.286  -1.279  0.00  0.00    +0.000 OA
BRANCH   3   4
ATOM      4  C   UNL     1       0.557   1.525  -1.158  0.00  0.00    +0.000 C 
BRANCH   4   6
ATOM      5  N   UNL     1       2.560   0.277  -0.176  0.00  0.00    +0.000 NA
ATOM      6  C   UNL     1       1.899   1.472  -0.584  0.00  0.00    +0.000 C 
ATOM      7  O   UNL     1       2.529   2.549  -0.433  0.00  0.00    +0.000 OA
BRANCH   5  14
ATOM      8  C   UNL     1       4.976   0.141  -0.437  0.00  0.00    +0.000 A 
ATOM      9  C   UNL     1       6.270   0.114   0.052  0.00  0.00    +0.000 A 
ATOM     10  C   UNL     1       6.477   0.204   1.407  0.00  0.00    +0.000 A 
ATOM     11  C   UNL     1       5.395   0.321   2.250  0.00  0.00    +0.000 A 
ATOM     12  C   UNL     1       4.094   0.347   1.737  0.00  0.00    +0.000 A 
ATOM     13  C   UNL     1       2.902   0.473   2.621  0.00  0.00    +0.000 C 
ATOM     14  C   UNL     1       3.870   0.257   0.381  0.00  0.00    +0.000 A 
BRANCH   8  16
ATOM     15  C   UNL     1       4.210  -1.339  -2.250  0.00  0.00    +0.000 C 
ATOM     16  C   UNL     1       4.707   0.046  -1.913  0.00  0.00    +0.000 C 
ENDBRANCH   8  16
ENDBRANCH   5  14
ENDBRANCH   4   6
ENDBRANCH   3   4
ENDBRANCH   1   3
BRANCH   1  17
ATOM     17  C   UNL     1      -2.110  -1.049  -1.997  0.00  0.00    +0.000 C 
BRANCH  17  18
ATOM     18  C   UNL     1      -2.115  -1.539  -0.522  0.00  0.00    +0.000 A 
ATOM     19  C   UNL     1      -1.964  -0.722   0.528  0.00  0.00    +0.000 A 
ATOM     20  C   UNL     1      -1.972  -1.208   1.817  0.00  0.00    +0.000 A 
ATOM     21  C   UNL     1      -2.142  -2.569   2.021  0.00  0.00    +0.000 A 
ATOM     22  C   UNL     1      -2.299  -3.425   0.963  0.00  0.00    +0.000 A 
ATOM     23  C   UNL     1      -2.284  -2.895  -0.307  0.00  0.00    +0.000 A 
ENDBRANCH  17  18
BRANCH  17  24
ATOM     24  S   UNL     1      -3.877  -0.391  -2.069  0.00  0.00    +0.000 S 
BRANCH  24  25
ATOM     25  C   UNL     1      -4.358   0.317  -0.539  0.00  0.00    +0.000 A 
ATOM     26  C   UNL     1      -4.958  -0.409   0.444  0.00  0.00    +0.000 A 
ATOM     27  C   UNL     1      -5.324   0.206   1.642  0.00  0.00    +0.000 A 
ATOM     28  C   UNL     1      -5.091   1.541   1.858  0.00  0.00    +0.000 A 
ATOM     29  C   UNL     1      -4.489   2.276   0.873  0.00  0.00    +0.000 A 
ATOM     30  C   UNL     1      -4.138   1.651  -0.295  0.00  0.00    +0.000 A 
ENDBRANCH  24  25
ENDBRANCH  17  24
ENDBRANCH   1  17
TORSDOF 9
