REMARK  Name = 
REMARK  8 active torsions:
REMARK  status: ('A' for Active; 'I' for Inactive)
REMARK    1  A    between atoms: O_2  and  C_3
REMARK    2  A    between atoms: C_8  and  O_9
REMARK    3  A    between atoms: O_9  and  C_10
REMARK    4  A    between atoms: C_10  and  C_11
REMARK    5  A    between atoms: C_17  and  C_18
REMARK    6  A    between atoms: C_21  and  O_22
REMARK    7  A    between atoms: O_22  and  C_23
REMARK    8  A    between atoms: C_23  and  C_24
REMARK                            x       y       z     vdW  Elec       q    Type
REMARK                         _______ _______ _______ _____ _____    ______ ____
ROOT
ATOM      1  C   UNL     1       2.088  -1.851  -0.468  0.00  0.00    +0.000 A 
ATOM      2  C   UNL     1       0.893  -2.505  -0.198  0.00  0.00    +0.000 A 
ATOM      3  C   UNL     1      -0.064  -1.841   0.569  0.00  0.00    +0.000 A 
ATOM      4  C   UNL     1       0.149  -0.616   1.034  0.00  0.00    +0.000 A 
ATOM      5  C   UNL     1       1.338   0.020   0.758  0.00  0.00    +0.000 A 
ATOM      6  C   UNL     1       2.330  -0.583   0.003  0.00  0.00    +0.000 A 
ATOM      7  C   UNL     1      -0.886   0.184   1.912  0.00  0.00    +0.000 C 
ATOM      8  N   UNL     1      -1.270  -1.089   2.777  0.00  0.00    +0.000 NA
ATOM      9  C   UNL     1      -1.937  -2.030   2.049  0.00  0.00    +0.000 C 
ATOM     10  C   UNL     1      -1.311  -2.582   0.816  0.00  0.00    +0.000 C 
ENDROOT
BRANCH   7  11
ATOM     11  C   UNL     1      -2.111   0.156   0.957  0.00  0.00    +0.000 A 
ATOM     12  C   UNL     1      -1.921   0.336  -0.380  0.00  0.00    +0.000 A 
ATOM     13  C   UNL     1      -3.004   0.317  -1.273  0.00  0.00    +0.000 A 
ATOM     14  C   UNL     1      -4.306   0.111  -0.796  0.00  0.00    +0.000 A 
ATOM     15  C   UNL     1      -4.465  -0.065   0.538  0.00  0.00    +0.000 A 
ATOM     16  C   UNL     1      -3.385  -0.042   1.395  0.00  0.00    +0.000 A 
BRANCH  14  17
ATOM     17  O   UNL     1      -5.345   0.099  -1.714  0.00  0.00    +0.000 OA
BRANCH  17  18
ATOM     18  C   UNL     1      -6.698  -0.076  -1.508  0.00  0.00    +0.000 C 
BRANCH  18  19
ATOM     19  C   UNL     1      -7.285   0.969  -0.647  0.00  0.00    +0.000 C 
ATOM     20  C   UNL     1      -7.165   2.376  -1.133  0.00  0.00    +0.000 C 
ATOM     21  C   UNL     1      -7.101   0.877   0.810  0.00  0.00    +0.000 C 
ENDBRANCH  18  19
ENDBRANCH  17  18
ENDBRANCH  14  17
ENDBRANCH   7  11
BRANCH   1  23
ATOM     22  C   UNL     1       2.781  -3.829  -1.717  0.00  0.00    +0.000 C 
ATOM     23  O   UNL     1       3.019  -2.541  -1.235  0.00  0.00    +0.000 OA
ENDBRANCH   1  23
BRANCH   6  24
ATOM     24  O   UNL     1       3.546  -0.002  -0.312  0.00  0.00    +0.000 OA
BRANCH  24  25
ATOM     25  C   UNL     1       3.800   1.300   0.169  0.00  0.00    +0.000 C 
BRANCH  25  26
ATOM     26  C   UNL     1       5.139   1.754  -0.264  0.00  0.00    +0.000 A 
ATOM     27  C   UNL     1       5.901   0.902  -1.025  0.00  0.00    +0.000 A 
ATOM     28  C   UNL     1       7.144   1.308  -1.433  0.00  0.00    +0.000 A 
ATOM     29  C   UNL     1       7.661   2.547  -1.107  0.00  0.00    +0.000 A 
ATOM     30  C   UNL     1       6.855   3.371  -0.338  0.00  0.00    +0.000 A 
ATOM     31  C   UNL     1       5.609   3.021   0.098  0.00  0.00    +0.000 A 
ENDBRANCH  25  26
ENDBRANCH  24  25
ENDBRANCH   6  24
TORSDOF 8
