REMARK  Name = 
REMARK  7 active torsions:
REMARK  status: ('A' for Active; 'I' for Inactive)
REMARK    1  A    between atoms: O_2  and  C_3
REMARK    2  A    between atoms: C_6  and  N_7
REMARK    3  A    between atoms: N_7  and  C_8
REMARK    4  A    between atoms: C_9  and  S_10
REMARK    5  A    between atoms: S_10  and  C_11
REMARK    6  A    between atoms: N_19  and  C_20
REMARK    7  A    between atoms: C_23  and  C_24
REMARK                            x       y       z     vdW  Elec       q    Type
REMARK                         _______ _______ _______ _____ _____    ______ ____
ROOT
ATOM      1  C   UNL     1      -0.378   0.875   1.243  0.00  0.00    +0.000 C 
ATOM      2  C   UNL     1      -0.666   0.777  -0.035  0.00  0.00    +0.000 C 
ATOM      3  C   UNL     1       0.528   0.468  -0.818  0.00  0.00    +0.000 C 
ATOM      4  O   UNL     1       0.620   0.304  -2.067  0.00  0.00    +0.000 OA
ATOM      5  N   UNL     1       1.622   0.376   0.100  0.00  0.00    +0.000 N 
ATOM      6  C   UNL     1       1.043   0.632   1.381  0.00  0.00    +0.000 C 
ATOM      7  O   UNL     1       1.765   0.624   2.430  0.00  0.00    +0.000 OA
ENDROOT
BRANCH   5   8
ATOM      8  C   UNL     1       2.990   0.089  -0.213  0.00  0.00    +0.000 A 
ATOM      9  C   UNL     1       4.012   0.916   0.204  0.00  0.00    +0.000 A 
ATOM     10  C   UNL     1       5.342   0.644  -0.098  0.00  0.00    +0.000 A 
ATOM     11  C   UNL     1       5.696  -0.468  -0.829  0.00  0.00    +0.000 A 
ATOM     12  C   UNL     1       4.672  -1.292  -1.243  0.00  0.00    +0.000 A 
ATOM     13  C   UNL     1       3.351  -1.023  -0.944  0.00  0.00    +0.000 A 
BRANCH  11  14
ATOM     14  C   UNL     1       7.123  -0.775  -1.163  0.00  0.00    +0.000 C 
ATOM     15  C   UNL     1       7.297  -2.260  -0.819  0.00  0.00    +0.000 C 
ATOM     16  C   UNL     1       8.050   0.006  -0.268  0.00  0.00    +0.000 C 
ENDBRANCH  11  14
ENDBRANCH   5   8
BRANCH   1  17
ATOM     17  N   UNL     1      -1.281   1.164   2.299  0.00  0.00    +0.000 NA
BRANCH  17  21
ATOM     18  C   UNL     1      -4.982  -0.735   3.071  0.00  0.00    +0.000 A 
ATOM     19  C   UNL     1      -4.514   0.324   3.822  0.00  0.00    +0.000 A 
ATOM     20  C   UNL     1      -3.301   0.928   3.553  0.00  0.00    +0.000 A 
ATOM     21  C   UNL     1      -2.507   0.486   2.507  0.00  0.00    +0.000 A 
ATOM     22  C   UNL     1      -2.962  -0.562   1.757  0.00  0.00    +0.000 A 
ATOM     23  C   UNL     1      -4.175  -1.156   2.038  0.00  0.00    +0.000 A 
BRANCH  18  25
ATOM     24  C   UNL     1      -6.992  -0.836   4.444  0.00  0.00    +0.000 C 
ATOM     25  O   UNL     1      -6.215  -1.340   3.353  0.00  0.00    +0.000 OA
ENDBRANCH  18  25
ENDBRANCH  17  21
ENDBRANCH   1  17
BRANCH   2  26
ATOM     26  S   UNL     1      -2.335   1.007  -0.675  0.00  0.00    +0.000 S 
BRANCH  26  27
ATOM     27  C   UNL     1      -2.316   0.799  -2.445  0.00  0.00    +0.000 A 
ATOM     28  C   UNL     1      -2.503  -0.432  -3.034  0.00  0.00    +0.000 A 
ATOM     29  C   UNL     1      -2.487  -0.564  -4.409  0.00  0.00    +0.000 A 
ATOM     30  C   UNL     1      -2.284   0.521  -5.233  0.00  0.00    +0.000 A 
ATOM     31  C   UNL     1      -2.098   1.746  -4.656  0.00  0.00    +0.000 A 
ATOM     32  C   UNL     1      -2.116   1.873  -3.254  0.00  0.00    +0.000 A 
ENDBRANCH  26  27
ENDBRANCH   2  26
TORSDOF 7
