REMARK  Name = 
REMARK  7 active torsions:
REMARK  status: ('A' for Active; 'I' for Inactive)
REMARK    1  A    between atoms: C_7  and  C_8
REMARK    2  A    between atoms: C_8  and  S_9
REMARK    3  A    between atoms: S_9  and  C_10
REMARK    4  A    between atoms: C_15  and  C_16
REMARK    5  A    between atoms: N_18  and  C_19
REMARK    6  A    between atoms: C_19  and  C_20
REMARK    7  A    between atoms: C_19  and  C_26
REMARK                            x       y       z     vdW  Elec       q    Type
REMARK                         _______ _______ _______ _____ _____    ______ ____
ROOT
ATOM      1  C   UNL     1      -0.305   0.024  -0.091  0.00  0.00    +0.000 C 
ATOM      2  O   UNL     1      -0.139  -0.777  -1.004  0.00  0.00    +0.000 OA
ATOM      3  N   UNL     1      -1.665   0.394   0.265  0.00  0.00    +0.000 NA
ENDROOT
BRANCH   1   9
ATOM      4  C   UNL     1       1.947   0.988   0.237  0.00  0.00    +0.000 A 
ATOM      5  C   UNL     1       2.781   1.652   1.102  0.00  0.00    +0.000 A 
ATOM      6  C   UNL     1       2.511   2.007   2.378  0.00  0.00    +0.000 A 
ATOM      7  C   UNL     1       1.239   1.671   2.870  0.00  0.00    +0.000 A 
ATOM      8  C   UNL     1       0.384   1.022   2.039  0.00  0.00    +0.000 A 
ATOM      9  C   UNL     1       0.722   0.663   0.709  0.00  0.00    +0.000 A 
BRANCH   4  10
ATOM     10  S   UNL     1       2.514   0.597  -1.448  0.00  0.00    +0.000 S 
BRANCH  10  11
ATOM     11  C   UNL     1       4.283   1.079  -1.482  0.00  0.00    +0.000 C 
BRANCH  11  18
ATOM     12  C   UNL     1       5.849   1.293   1.207  0.00  0.00    +0.000 C 
ATOM     13  C   UNL     1       5.956   0.190   0.216  0.00  0.00    +0.000 A 
ATOM     14  N   UNL     1       6.789  -0.862   0.245  0.00  0.00    +0.000 NA
ATOM     15  O   UNL     1       6.602  -1.599  -0.799  0.00  0.00    +0.000 OA
ATOM     16  C   UNL     1       5.643  -1.110  -1.576  0.00  0.00    +0.000 A 
ATOM     17  C   UNL     1       5.195  -1.742  -2.837  0.00  0.00    +0.000 C 
ATOM     18  C   UNL     1       5.180   0.063  -0.971  0.00  0.00    +0.000 A 
ENDBRANCH  11  18
ENDBRANCH  10  11
ENDBRANCH   4  10
ENDBRANCH   1   9
BRANCH   3  19
ATOM     19  C   UNL     1      -2.805  -0.079  -0.377  0.00  0.00    +0.000 C 
BRANCH  19  20
ATOM     20  C   UNL     1      -3.272  -1.433  -0.111  0.00  0.00    +0.000 A 
ATOM     21  C   UNL     1      -2.885  -2.553  -0.784  0.00  0.00    +0.000 A 
ATOM     22  C   UNL     1      -3.364  -3.829  -0.503  0.00  0.00    +0.000 A 
ATOM     23  C   UNL     1      -4.283  -3.969   0.517  0.00  0.00    +0.000 A 
ATOM     24  C   UNL     1      -4.686  -2.840   1.195  0.00  0.00    +0.000 A 
ATOM     25  C   UNL     1      -4.211  -1.602   0.910  0.00  0.00    +0.000 A 
ENDBRANCH  19  20
BRANCH  19  26
ATOM     26  C   UNL     1      -3.910   0.891  -0.448  0.00  0.00    +0.000 A 
ATOM     27  C   UNL     1      -3.724   2.244  -0.594  0.00  0.00    +0.000 A 
ATOM     28  C   UNL     1      -4.767   3.141  -0.722  0.00  0.00    +0.000 A 
ATOM     29  C   UNL     1      -6.062   2.688  -0.713  0.00  0.00    +0.000 A 
ATOM     30  C   UNL     1      -6.275   1.343  -0.570  0.00  0.00    +0.000 A 
ATOM     31  C   UNL     1      -5.241   0.445  -0.434  0.00  0.00    +0.000 A 
ENDBRANCH  19  26
ENDBRANCH   3  19
TORSDOF 7
