REMARK  Name = 
REMARK  9 active torsions:
REMARK  status: ('A' for Active; 'I' for Inactive)
REMARK    1  A    between atoms: C_2  and  C_3
REMARK    2  A    between atoms: C_7  and  C_8
REMARK    3  A    between atoms: C_10  and  N_11
REMARK    4  A    between atoms: C_12  and  C_14
REMARK    5  A    between atoms: C_14  and  O_15
REMARK    6  A    between atoms: O_15  and  C_16
REMARK    7  A    between atoms: C_16  and  C_18
REMARK    8  A    between atoms: C_18  and  C_19
REMARK    9  A    between atoms: C_18  and  C_25
REMARK                            x       y       z     vdW  Elec       q    Type
REMARK                         _______ _______ _______ _____ _____    ______ ____
ROOT
ATOM      1  O   UNL     1      -0.423   1.345  -0.410  0.00  0.00    +0.000 OA
ENDROOT
BRANCH   1   2
ATOM      2  C   UNL     1      -0.878   0.917   0.817  0.00  0.00    +0.000 C 
ATOM      3  O   UNL     1      -0.072   0.621   1.729  0.00  0.00    +0.000 OA
BRANCH   2   4
ATOM      4  C   UNL     1      -2.318   0.804   1.067  0.00  0.00    +0.000 C 
BRANCH   4   5
ATOM      5  C   UNL     1      -3.012   2.124   0.910  0.00  0.00    +0.000 A 
ATOM      6  C   UNL     1      -4.072   2.455   1.725  0.00  0.00    +0.000 A 
ATOM      7  C   UNL     1      -4.736   3.671   1.603  0.00  0.00    +0.000 A 
ATOM      8  C   UNL     1      -4.349   4.591   0.653  0.00  0.00    +0.000 A 
ATOM      9  C   UNL     1      -3.291   4.264  -0.162  0.00  0.00    +0.000 A 
ATOM     10  C   UNL     1      -2.638   3.056  -0.035  0.00  0.00    +0.000 A 
ENDBRANCH   4   5
BRANCH   4  11
ATOM     11  C   UNL     1      -3.005  -0.135   0.166  0.00  0.00    +0.000 A 
ATOM     12  C   UNL     1      -2.560  -0.303  -1.121  0.00  0.00    +0.000 A 
ATOM     13  C   UNL     1      -3.181  -1.173  -1.992  0.00  0.00    +0.000 A 
ATOM     14  C   UNL     1      -4.272  -1.899  -1.585  0.00  0.00    +0.000 A 
ATOM     15  C   UNL     1      -4.724  -1.739  -0.300  0.00  0.00    +0.000 A 
ATOM     16  C   UNL     1      -4.096  -0.868   0.558  0.00  0.00    +0.000 A 
ENDBRANCH   4  11
ENDBRANCH   2   4
ENDBRANCH   1   2
BRANCH   1  17
ATOM     17  C   UNL     1       0.939   1.482  -0.733  0.00  0.00    +0.000 C 
BRANCH  17  19
ATOM     18  N   UNL     1       2.989  -0.026  -0.848  0.00  0.00    +0.000 NA
ATOM     19  C   UNL     1       1.607   0.155  -0.590  0.00  0.00    +0.000 C 
ATOM     20  O   UNL     1       0.952  -0.849  -0.232  0.00  0.00    +0.000 OA
BRANCH  18  26
ATOM     21  C   UNL     1       3.606  -2.167  -1.784  0.00  0.00    +0.000 A 
ATOM     22  C   UNL     1       4.171  -3.413  -1.660  0.00  0.00    +0.000 A 
ATOM     23  C   UNL     1       4.716  -3.839  -0.477  0.00  0.00    +0.000 A 
ATOM     24  C   UNL     1       4.682  -2.975   0.596  0.00  0.00    +0.000 A 
ATOM     25  C   UNL     1       4.125  -1.724   0.506  0.00  0.00    +0.000 A 
ATOM     26  C   UNL     1       3.589  -1.330  -0.693  0.00  0.00    +0.000 A 
BRANCH  21  28
ATOM     27  C   UNL     1       3.938  -0.758  -3.790  0.00  0.00    +0.000 C 
ATOM     28  C   UNL     1       3.013  -1.726  -3.098  0.00  0.00    +0.000 C 
ENDBRANCH  21  28
BRANCH  25  29
ATOM     29  C   UNL     1       4.100  -0.793   1.689  0.00  0.00    +0.000 C 
ATOM     30  C   UNL     1       5.197   0.234   1.423  0.00  0.00    +0.000 C 
ENDBRANCH  25  29
ENDBRANCH  18  26
ENDBRANCH  17  19
ENDBRANCH   1  17
TORSDOF 9
