REMARK  Name = 
REMARK  8 active torsions:
REMARK  status: ('A' for Active; 'I' for Inactive)
REMARK    1  A    between atoms: C_2  and  C_3
REMARK    2  A    between atoms: C_3  and  C_6
REMARK    3  A    between atoms: C_9  and  O_10
REMARK    4  A    between atoms: O_10  and  C_11
REMARK    5  A    between atoms: C_14  and  N_15
REMARK    6  A    between atoms: C_16  and  C_18
REMARK    7  A    between atoms: C_18  and  S_19
REMARK    8  A    between atoms: S_19  and  C_20
REMARK                            x       y       z     vdW  Elec       q    Type
REMARK                         _______ _______ _______ _____ _____    ______ ____
ROOT
ATOM      1  C   UNL     1      -1.362  -2.332  -0.330  0.00  0.00    +0.000 A 
ATOM      2  C   UNL     1      -0.770  -1.827  -1.427  0.00  0.00    +0.000 A 
ATOM      3  C   UNL     1       0.535  -1.345  -1.348  0.00  0.00    +0.000 A 
ATOM      4  C   UNL     1       1.226  -1.366  -0.219  0.00  0.00    +0.000 A 
ATOM      5  C   UNL     1       0.600  -1.899   0.943  0.00  0.00    +0.000 A 
ATOM      6  C   UNL     1      -0.678  -2.369   0.848  0.00  0.00    +0.000 A 
ENDROOT
BRANCH   4   7
ATOM      7  N   UNL     1       2.559  -0.869   0.039  0.00  0.00    +0.000 NA
ATOM      8  C   UNL     1       3.410  -1.840   0.781  0.00  0.00    +0.000 C 
ATOM      9  O   UNL     1       2.813  -2.929   1.007  0.00  0.00    +0.000 OA
BRANCH   8  10
ATOM     10  C   UNL     1       4.742  -1.658   1.204  0.00  0.00    +0.000 C 
BRANCH  10  11
ATOM     11  S   UNL     1       5.594  -0.204   1.455  0.00  0.00    +0.000 S 
BRANCH  11  12
ATOM     12  C   UNL     1       5.951   0.921   0.142  0.00  0.00    +0.000 A 
ATOM     13  C   UNL     1       6.969   0.598  -0.746  0.00  0.00    +0.000 A 
ATOM     14  C   UNL     1       7.322   1.475  -1.718  0.00  0.00    +0.000 A 
ATOM     15  C   UNL     1       6.612   2.666  -1.760  0.00  0.00    +0.000 A 
ATOM     16  C   UNL     1       5.589   3.002  -0.887  0.00  0.00    +0.000 A 
ATOM     17  N   UNL     1       5.299   2.117   0.035  0.00  0.00    +0.000 N 
ATOM     18  O   UNL     1       4.296   2.352   0.982  0.00  0.00    +0.000 OA
ENDBRANCH  11  12
ENDBRANCH  10  11
ENDBRANCH   8  10
ENDBRANCH   4   7
BRANCH   1  19
ATOM     19  O   UNL     1      -2.696  -2.829  -0.255  0.00  0.00    +0.000 OA
BRANCH  19  23
ATOM     20  C   UNL     1      -5.331   0.436   0.234  0.00  0.00    +0.000 A 
ATOM     21  C   UNL     1      -5.807  -0.763  -0.181  0.00  0.00    +0.000 A 
ATOM     22  C   UNL     1      -4.955  -1.870  -0.347  0.00  0.00    +0.000 A 
ATOM     23  C   UNL     1      -3.624  -1.770  -0.101  0.00  0.00    +0.000 A 
ATOM     24  C   UNL     1      -3.132  -0.532   0.331  0.00  0.00    +0.000 A 
ATOM     25  C   UNL     1      -3.965   0.547   0.498  0.00  0.00    +0.000 A 
BRANCH  20  26
ATOM     26  C   UNL     1      -6.155   1.706   0.315  0.00  0.00    +0.000 C 
ATOM     27  C   UNL     1      -7.307   1.583  -0.686  0.00  0.00    +0.000 C 
ATOM     28  C   UNL     1      -6.590   2.009   1.692  0.00  0.00    +0.000 C 
BRANCH  26  30
ATOM     29  C   UNL     1      -5.906   4.156  -0.312  0.00  0.00    +0.000 C 
ATOM     30  C   UNL     1      -5.240   2.834  -0.190  0.00  0.00    +0.000 C 
ENDBRANCH  26  30
ENDBRANCH  20  26
ENDBRANCH  19  23
ENDBRANCH   1  19
TORSDOF 8
