REMARK  Name = 
REMARK  7 active torsions:
REMARK  status: ('A' for Active; 'I' for Inactive)
REMARK    1  A    between atoms: C_2  and  C_5
REMARK    2  A    between atoms: C_8  and  C_9
REMARK    3  A    between atoms: C_9  and  C_11
REMARK    4  A    between atoms: C_11  and  C_12
REMARK    5  A    between atoms: N_16  and  C_17
REMARK    6  A    between atoms: C_17  and  C_18
REMARK    7  A    between atoms: C_18  and  C_19
REMARK                            x       y       z     vdW  Elec       q    Type
REMARK                         _______ _______ _______ _____ _____    ______ ____
ROOT
ATOM      1  C   UNL     1       0.451  -0.383  -0.754  0.00  0.00    +0.000 C 
ATOM      2  O   UNL     1      -0.624  -0.135  -1.618  0.00  0.00    +0.000 OA
ATOM      3  C   UNL     1       1.660   0.219  -1.369  0.00  0.00    +0.000 C 
ATOM      4  O   UNL     1       1.835   1.447  -1.559  0.00  0.00    +0.000 OA
ATOM      5  N   UNL     1       2.597  -0.795  -1.713  0.00  0.00    +0.000 N 
ATOM      6  C   UNL     1       2.014  -2.030  -1.339  0.00  0.00    +0.000 A 
ATOM      7  C   UNL     1       2.479  -3.316  -1.448  0.00  0.00    +0.000 A 
ATOM      8  C   UNL     1       1.733  -4.395  -1.015  0.00  0.00    +0.000 A 
ATOM      9  C   UNL     1       0.479  -4.149  -0.458  0.00  0.00    +0.000 A 
ATOM     10  C   UNL     1      -0.017  -2.880  -0.334  0.00  0.00    +0.000 A 
ATOM     11  C   UNL     1       0.767  -1.830  -0.781  0.00  0.00    +0.000 A 
ENDROOT
BRANCH   1  12
ATOM     12  C   UNL     1       0.183   0.164   0.612  0.00  0.00    +0.000 C 
BRANCH  12  13
ATOM     13  C   UNL     1      -1.025  -0.480   1.174  0.00  0.00    +0.000 C 
ATOM     14  O   UNL     1      -0.871  -1.500   1.887  0.00  0.00    +0.000 OA
BRANCH  13  18
ATOM     15  C   UNL     1      -4.909   1.108   0.347  0.00  0.00    +0.000 A 
ATOM     16  C   UNL     1      -4.745   0.003   1.145  0.00  0.00    +0.000 A 
ATOM     17  C   UNL     1      -3.484  -0.497   1.405  0.00  0.00    +0.000 A 
ATOM     18  C   UNL     1      -2.341   0.076   0.889  0.00  0.00    +0.000 A 
ATOM     19  C   UNL     1      -2.503   1.185   0.087  0.00  0.00    +0.000 A 
ATOM     20  C   UNL     1      -3.771   1.682  -0.171  0.00  0.00    +0.000 A 
BRANCH  15  22
ATOM     21  C   UNL     1      -6.774   2.543   1.149  0.00  0.00    +0.000 C 
ATOM     22  C   UNL     1      -6.242   1.688   0.029  0.00  0.00    +0.000 C 
ATOM     23  C   UNL     1      -6.185   2.534  -1.228  0.00  0.00    +0.000 C 
ATOM     24  C   UNL     1      -7.163   0.485  -0.215  0.00  0.00    +0.000 C 
ENDBRANCH  15  22
ENDBRANCH  13  18
ENDBRANCH  12  13
ENDBRANCH   1  12
BRANCH   5  25
ATOM     25  C   UNL     1       3.900  -0.601  -2.322  0.00  0.00    +0.000 C 
BRANCH  25  26
ATOM     26  C   UNL     1       4.969  -0.433  -1.303  0.00  0.00    +0.000 C 
BRANCH  26  27
ATOM     27  C   UNL     1       4.805   0.707  -0.389  0.00  0.00    +0.000 A 
ATOM     28  C   UNL     1       4.107   0.490   0.774  0.00  0.00    +0.000 A 
ATOM     29  C   UNL     1       3.877   1.459   1.726  0.00  0.00    +0.000 A 
ATOM     30  C   UNL     1       4.394   2.716   1.468  0.00  0.00    +0.000 A 
ATOM     31  C   UNL     1       5.096   2.955   0.309  0.00  0.00    +0.000 A 
ATOM     32  C   UNL     1       5.306   1.961  -0.624  0.00  0.00    +0.000 A 
ENDBRANCH  26  27
ENDBRANCH  25  26
ENDBRANCH   5  25
TORSDOF 7
