REMARK  Name = 
REMARK  8 active torsions:
REMARK  status: ('A' for Active; 'I' for Inactive)
REMARK    1  A    between atoms: C_2  and  C_3
REMARK    2  A    between atoms: C_6  and  O_7
REMARK    3  A    between atoms: O_7  and  C_8
REMARK    4  A    between atoms: C_8  and  C_9
REMARK    5  A    between atoms: C_12  and  C_13
REMARK    6  A    between atoms: N_15  and  C_16
REMARK    7  A    between atoms: C_19  and  C_20
REMARK    8  A    between atoms: C_20  and  N_21
REMARK                            x       y       z     vdW  Elec       q    Type
REMARK                         _______ _______ _______ _____ _____    ______ ____
ROOT
ATOM      1  C   UNL     1      -0.506   0.019  -0.640  0.00  0.00    +0.000 C 
ATOM      2  O   UNL     1      -0.827   1.230  -0.585  0.00  0.00    +0.000 OA
ATOM      3  N   UNL     1      -1.462  -0.904  -1.115  0.00  0.00    +0.000 NA
ENDROOT
BRANCH   3   4
ATOM      4  C   UNL     1      -2.770  -0.528  -1.532  0.00  0.00    +0.000 A 
ATOM      5  C   UNL     1      -3.648  -1.490  -1.984  0.00  0.00    +0.000 A 
ATOM      6  C   UNL     1      -4.939  -1.159  -2.401  0.00  0.00    +0.000 A 
ATOM      7  C   UNL     1      -5.379   0.148  -2.374  0.00  0.00    +0.000 A 
ATOM      8  C   UNL     1      -4.489   1.099  -1.920  0.00  0.00    +0.000 A 
ATOM      9  C   UNL     1      -3.205   0.777  -1.504  0.00  0.00    +0.000 A 
BRANCH   7  10
ATOM     10  C   UNL     1      -6.751   0.503  -2.817  0.00  0.00    +0.000 C 
BRANCH  10  11
ATOM     11  N   UNL     1      -7.668   0.444  -1.704  0.00  0.00    +0.000 NA
ATOM     12  C   UNL     1      -7.743  -0.863  -1.099  0.00  0.00    +0.000 C 
ATOM     13  C   UNL     1      -8.646  -0.743   0.118  0.00  0.00    +0.000 C 
ATOM     14  C   UNL     1      -9.016   0.704   0.396  0.00  0.00    +0.000 C 
ATOM     15  C   UNL     1      -9.739   1.221  -0.820  0.00  0.00    +0.000 C 
ATOM     16  C   UNL     1      -8.969   0.921  -2.076  0.00  0.00    +0.000 C 
ENDBRANCH  10  11
ENDBRANCH   7  10
ENDBRANCH   3   4
BRANCH   1  20
ATOM     17  C   UNL     1       2.863  -0.277   0.529  0.00  0.00    +0.000 A 
ATOM     18  C   UNL     1       2.636  -1.595   0.261  0.00  0.00    +0.000 A 
ATOM     19  C   UNL     1       1.354  -1.687  -0.213  0.00  0.00    +0.000 A 
ATOM     20  C   UNL     1       0.841  -0.408  -0.216  0.00  0.00    +0.000 A 
ATOM     21  O   UNL     1       1.769   0.383   0.229  0.00  0.00    +0.000 OA
BRANCH  17  22
ATOM     22  C   UNL     1       4.122   0.328   1.068  0.00  0.00    +0.000 C 
BRANCH  22  23
ATOM     23  O   UNL     1       5.071  -0.678   1.266  0.00  0.00    +0.000 OA
BRANCH  23  27
ATOM     24  C   UNL     1       8.879   0.281   2.772  0.00  0.00    +0.000 A 
ATOM     25  C   UNL     1       8.542  -1.018   2.466  0.00  0.00    +0.000 A 
ATOM     26  C   UNL     1       7.292  -1.322   1.974  0.00  0.00    +0.000 A 
ATOM     27  C   UNL     1       6.331  -0.353   1.765  0.00  0.00    +0.000 A 
ATOM     28  C   UNL     1       6.686   0.945   2.077  0.00  0.00    +0.000 A 
ATOM     29  C   UNL     1       7.936   1.264   2.571  0.00  0.00    +0.000 A 
BRANCH  24  31
ATOM     30  C   UNL     1      11.198   0.947   2.196  0.00  0.00    +0.000 C 
ATOM     31  C   UNL     1      10.238   0.635   3.310  0.00  0.00    +0.000 C 
ENDBRANCH  24  31
ENDBRANCH  23  27
ENDBRANCH  22  23
ENDBRANCH  17  22
ENDBRANCH   1  20
TORSDOF 8
