REMARK  Name = 
REMARK  6 active torsions:
REMARK  status: ('A' for Active; 'I' for Inactive)
REMARK    1  A    between atoms: C_2  and  N_3
REMARK    2  A    between atoms: C_2  and  C_27
REMARK    3  A    between atoms: C_4  and  C_6
REMARK    4  A    between atoms: C_7  and  N_8
REMARK    5  A    between atoms: C_9  and  C_11
REMARK    6  A    between atoms: C_21  and  C_22
REMARK                            x       y       z     vdW  Elec       q    Type
REMARK                         _______ _______ _______ _____ _____    ______ ____
ROOT
ATOM      1  C   UNL     1      -0.438   0.498  -0.380  0.00  0.00    +0.000 A 
ATOM      2  C   UNL     1      -1.437  -0.399  -0.374  0.00  0.00    +0.000 A 
ATOM      3  S   UNL     1      -2.879   0.631  -0.253  0.00  0.00    +0.000 S 
ATOM      4  C   UNL     1      -2.106   2.129  -0.215  0.00  0.00    +0.000 A 
ATOM      5  C   UNL     1      -0.793   1.819  -0.295  0.00  0.00    +0.000 A 
ATOM      6  C   UNL     1       0.030   3.114  -0.274  0.00  0.00    +0.000 C 
ATOM      7  C   UNL     1      -0.209   3.711   1.018  0.00  0.00    +0.000 C 
ATOM      8  C   UNL     1      -1.761   4.130   1.256  0.00  0.00    +0.000 C 
ATOM      9  C   UNL     1      -2.405   3.592  -0.136  0.00  0.00    +0.000 C 
ENDROOT
BRANCH   8  10
ATOM     10  C   UNL     1      -1.537   5.661   0.682  0.00  0.00    +0.000 C 
ATOM     11  C   UNL     1      -2.908   6.240   0.815  0.00  0.00    +0.000 C 
ATOM     12  C   UNL     1      -0.530   6.256   1.616  0.00  0.00    +0.000 C 
ATOM     13  C   UNL     1      -1.143   5.588  -0.731  0.00  0.00    +0.000 C 
ENDBRANCH   8  10
BRANCH   1  15
ATOM     14  N   UNL     1       2.031   1.108  -0.485  0.00  0.00    +0.000 NA
ATOM     15  C   UNL     1       0.998   0.192  -0.603  0.00  0.00    +0.000 C 
ATOM     16  O   UNL     1       1.291  -0.974  -0.914  0.00  0.00    +0.000 OA
BRANCH  14  18
ATOM     17  C   UNL     1       4.048   1.492   0.693  0.00  0.00    +0.000 C 
ATOM     18  C   UNL     1       3.510   0.768  -0.720  0.00  0.00    +0.000 C 
BRANCH  18  19
ATOM     19  C   UNL     1       3.579  -0.704  -0.140  0.00  0.00    +0.000 A 
ATOM     20  C   UNL     1       4.200  -1.588  -0.990  0.00  0.00    +0.000 A 
ATOM     21  C   UNL     1       4.366  -2.933  -0.611  0.00  0.00    +0.000 A 
ATOM     22  C   UNL     1       3.871  -3.277   0.629  0.00  0.00    +0.000 A 
ATOM     23  C   UNL     1       3.252  -2.380   1.465  0.00  0.00    +0.000 A 
ATOM     24  C   UNL     1       3.123  -1.084   1.038  0.00  0.00    +0.000 A 
ENDBRANCH  18  19
ENDBRANCH  14  18
ENDBRANCH   1  15
BRANCH   2  25
ATOM     25  N   UNL     1      -1.622  -1.747  -0.317  0.00  0.00    +0.000 NA
ATOM     26  C   UNL     1      -1.217  -2.976  -0.141  0.00  0.00    +0.000 C 
ATOM     27  O   UNL     1       0.009  -3.129   0.166  0.00  0.00    +0.000 OA
BRANCH  26  28
ATOM     28  C   UNL     1      -1.975  -4.249  -0.244  0.00  0.00    +0.000 A 
ATOM     29  C   UNL     1      -1.619  -5.525  -0.020  0.00  0.00    +0.000 A 
ATOM     30  C   UNL     1      -2.749  -6.317  -0.275  0.00  0.00    +0.000 A 
ATOM     31  C   UNL     1      -3.745  -5.417  -0.649  0.00  0.00    +0.000 A 
ATOM     32  O   UNL     1      -3.235  -4.230  -0.613  0.00  0.00    +0.000 OA
ENDBRANCH  26  28
ENDBRANCH   2  25
TORSDOF 6
