REMARK  Name = 
REMARK  7 active torsions:
REMARK  status: ('A' for Active; 'I' for Inactive)
REMARK    1  A    between atoms: C_2  and  O_3
REMARK    2  A    between atoms: O_3  and  C_4
REMARK    3  A    between atoms: C_4  and  C_6
REMARK    4  A    between atoms: C_17  and  C_18
REMARK    5  A    between atoms: C_23  and  O_24
REMARK    6  A    between atoms: O_24  and  C_25
REMARK    7  A    between atoms: C_25  and  C_26
REMARK                            x       y       z     vdW  Elec       q    Type
REMARK                         _______ _______ _______ _____ _____    ______ ____
ROOT
ATOM      1  C   UNL     1       4.273   1.033   0.007  0.00  0.00    +0.000 A 
ATOM      2  C   UNL     1       4.117   0.291   1.131  0.00  0.00    +0.000 A 
ATOM      3  C   UNL     1       2.982  -0.404   1.483  0.00  0.00    +0.000 A 
ATOM      4  C   UNL     1       1.965  -0.325   0.623  0.00  0.00    +0.000 A 
ATOM      5  C   UNL     1       2.083   0.439  -0.577  0.00  0.00    +0.000 A 
ATOM      6  C   UNL     1       3.162   1.075  -0.868  0.00  0.00    +0.000 A 
ATOM      7  C   UNL     1       0.822   0.609  -1.645  0.00  0.00    +0.000 C 
ATOM      8  C   UNL     1       0.035   1.047  -0.420  0.00  0.00    +0.000 C 
ATOM      9  C   UNL     1       0.406   0.002  -0.134  0.00  0.00    +0.000 C 
ATOM     10  C   UNL     1       1.284  -1.253  -0.746  0.00  0.00    +0.000 C 
ATOM     11  C   UNL     1       0.103  -0.978  -1.537  0.00  0.00    +0.000 C 
ATOM     12  C   UNL     1      -0.683  -0.798   0.048  0.00  0.00    +0.000 C 
ATOM     13  N   UNL     1       0.672  -1.074   1.010  0.00  0.00    +0.000 NA
ENDROOT
BRANCH  12  14
ATOM     14  C   UNL     1      -1.286  -2.149   0.066  0.00  0.00    +0.000 A 
ATOM     15  C   UNL     1      -0.647  -3.330   0.054  0.00  0.00    +0.000 A 
ATOM     16  C   UNL     1      -1.302  -4.535   0.293  0.00  0.00    +0.000 A 
ATOM     17  C   UNL     1      -2.651  -4.559   0.551  0.00  0.00    +0.000 A 
ATOM     18  C   UNL     1      -3.335  -3.331   0.565  0.00  0.00    +0.000 A 
ATOM     19  C   UNL     1      -2.689  -2.137   0.325  0.00  0.00    +0.000 A 
BRANCH  19  20
ATOM     20  O   UNL     1      -3.381  -0.957   0.302  0.00  0.00    +0.000 OA
BRANCH  20  21
ATOM     21  C   UNL     1      -4.732  -0.824   0.514  0.00  0.00    +0.000 C 
BRANCH  21  22
ATOM     22  C   UNL     1      -5.266   0.511   0.220  0.00  0.00    +0.000 A 
ATOM     23  C   UNL     1      -4.469   1.604   0.383  0.00  0.00    +0.000 A 
ATOM     24  C   UNL     1      -4.818   2.869   0.048  0.00  0.00    +0.000 A 
ATOM     25  C   UNL     1      -6.088   3.017  -0.498  0.00  0.00    +0.000 A 
ATOM     26  C   UNL     1      -6.934   1.921  -0.681  0.00  0.00    +0.000 A 
ATOM     27  C   UNL     1      -6.531   0.638  -0.318  0.00  0.00    +0.000 A 
ENDBRANCH  21  22
ENDBRANCH  20  21
ENDBRANCH  19  20
ENDBRANCH  12  14
BRANCH   1  28
ATOM     28  C   UNL     1       5.411   1.858  -0.347  0.00  0.00    +0.000 C 
ATOM     29  O   UNL     1       5.435   2.442  -1.485  0.00  0.00    +0.000 OA
BRANCH  28  30
ATOM     30  O   UNL     1       6.455   2.029   0.524  0.00  0.00    +0.000 OA
BRANCH  30  32
ATOM     31  C   UNL     1       8.090   2.381  -1.185  0.00  0.00    +0.000 C 
ATOM     32  C   UNL     1       7.518   2.890   0.098  0.00  0.00    +0.000 C 
ENDBRANCH  30  32
ENDBRANCH  28  30
ENDBRANCH   1  28
TORSDOF 7
