REMARK  Name = 
REMARK  8 active torsions:
REMARK  status: ('A' for Active; 'I' for Inactive)
REMARK    1  A    between atoms: C_2  and  C_3
REMARK    2  A    between atoms: C_2  and  C_9
REMARK    3  A    between atoms: C_2  and  C_15
REMARK    4  A    between atoms: N_18  and  C_19
REMARK    5  A    between atoms: C_19  and  C_20
REMARK    6  A    between atoms: C_20  and  C_21
REMARK    7  A    between atoms: C_21  and  O_22
REMARK    8  A    between atoms: O_22  and  C_23
REMARK                            x       y       z     vdW  Elec       q    Type
REMARK                         _______ _______ _______ _____ _____    ______ ____
ROOT
ATOM      1  C   UNL     1      -2.593  -0.280   0.595  0.00  0.00    +0.000 C 
ATOM      2  C   UNL     1      -2.254  -0.742  -0.743  0.00  0.00    +0.000 C 
ATOM      3  C   UNL     1      -0.763  -0.653  -0.980  0.00  0.00    +0.000 C 
ATOM      4  N   UNL     1      -0.142  -0.037   0.141  0.00  0.00    +0.000 NA
ATOM      5  C   UNL     1      -0.275  -0.764   1.388  0.00  0.00    +0.000 C 
ATOM      6  C   UNL     1      -1.766  -0.757   1.724  0.00  0.00    +0.000 C 
ENDROOT
BRANCH   1   8
ATOM      7  O   UNL     1      -3.956   0.695   2.232  0.00  0.00    +0.000 OA
ATOM      8  C   UNL     1      -3.874   0.336   0.888  0.00  0.00    +0.000 C 
BRANCH   8   9
ATOM      9  C   UNL     1      -4.081   1.546   0.056  0.00  0.00    +0.000 A 
ATOM     10  C   UNL     1      -4.061   1.485  -1.331  0.00  0.00    +0.000 A 
ATOM     11  C   UNL     1      -4.256   2.595  -2.108  0.00  0.00    +0.000 A 
ATOM     12  C   UNL     1      -4.478   3.804  -1.510  0.00  0.00    +0.000 A 
ATOM     13  C   UNL     1      -4.502   3.887  -0.122  0.00  0.00    +0.000 A 
ATOM     14  C   UNL     1      -4.304   2.766   0.650  0.00  0.00    +0.000 A 
ENDBRANCH   8   9
BRANCH   8  15
ATOM     15  C   UNL     1      -4.995  -0.596   0.526  0.00  0.00    +0.000 A 
ATOM     16  C   UNL     1      -6.049  -0.861   1.342  0.00  0.00    +0.000 A 
ATOM     17  C   UNL     1      -7.038  -1.741   0.901  0.00  0.00    +0.000 A 
ATOM     18  C   UNL     1      -6.988  -2.353  -0.330  0.00  0.00    +0.000 A 
ATOM     19  C   UNL     1      -5.913  -2.071  -1.139  0.00  0.00    +0.000 A 
ATOM     20  C   UNL     1      -4.934  -1.202  -0.707  0.00  0.00    +0.000 A 
ENDBRANCH   8  15
ENDBRANCH   1   8
BRANCH   4  21
ATOM     21  C   UNL     1       1.131   0.553  -0.062  0.00  0.00    +0.000 C 
BRANCH  21  22
ATOM     22  C   UNL     1       2.237  -0.421  -0.343  0.00  0.00    +0.000 C 
BRANCH  22  23
ATOM     23  C   UNL     1       2.454  -1.422   0.765  0.00  0.00    +0.000 C 
BRANCH  23  24
ATOM     24  O   UNL     1       3.533  -2.255   0.344  0.00  0.00    +0.000 OA
BRANCH  24  25
ATOM     25  C   UNL     1       4.781  -1.671   0.096  0.00  0.00    +0.000 A 
ATOM     26  C   UNL     1       5.828  -2.473  -0.313  0.00  0.00    +0.000 A 
ATOM     27  C   UNL     1       7.074  -1.913  -0.564  0.00  0.00    +0.000 A 
ATOM     28  C   UNL     1       7.276  -0.550  -0.407  0.00  0.00    +0.000 A 
ATOM     29  C   UNL     1       6.254   0.260  -0.003  0.00  0.00    +0.000 A 
ATOM     30  C   UNL     1       5.032  -0.331   0.237  0.00  0.00    +0.000 A 
ATOM     31  O   UNL     1       6.501   1.604   0.139  0.00  0.00    +0.000 OA
ATOM     32  C   UNL     1       7.767   2.198   0.088  0.00  0.00    +0.000 C 
ATOM     33  C   UNL     1       8.847   1.353  -0.494  0.00  0.00    +0.000 C 
ATOM     34  O   UNL     1       8.506   0.011  -0.654  0.00  0.00    +0.000 OA
ENDBRANCH  24  25
ENDBRANCH  23  24
ENDBRANCH  22  23
ENDBRANCH  21  22
ENDBRANCH   4  21
TORSDOF 8
