REMARK  Name = 
REMARK  10 active torsions:
REMARK  status: ('A' for Active; 'I' for Inactive)
REMARK    1  A    between atoms: C_2  and  N_3
REMARK    2  A    between atoms: N_3  and  C_4
REMARK    3  A    between atoms: N_3  and  C_25
REMARK    4  A    between atoms: C_4  and  C_5
REMARK    5  A    between atoms: C_5  and  C_6
REMARK    6  A    between atoms: C_6  and  C_7
REMARK    7  A    between atoms: C_7  and  C_8
REMARK    8  A    between atoms: C_8  and  N_9
REMARK    9  A    between atoms: C_15  and  C_16
REMARK   10  A    between atoms: C_25  and  C_26
REMARK                            x       y       z     vdW  Elec       q    Type
REMARK                         _______ _______ _______ _____ _____    ______ ____
ROOT
ATOM      1  N   UNL     1       1.063   0.387  -2.271  0.00  0.00    +0.000 N 
ATOM      2  C   UNL     1       0.701   1.701  -1.894  0.00  0.00    +0.000 C 
ATOM      3  O   UNL     1      -0.266   2.438  -2.287  0.00  0.00    +0.000 OA
ATOM      4  C   UNL     1       1.673   2.164  -0.895  0.00  0.00    +0.000 C 
ATOM      5  C   UNL     1       2.633   1.050  -0.743  0.00  0.00    +0.000 A 
ATOM      6  C   UNL     1       3.776   0.945   0.068  0.00  0.00    +0.000 A 
ATOM      7  C   UNL     1       4.553  -0.188   0.086  0.00  0.00    +0.000 A 
ATOM      8  C   UNL     1       4.148  -1.224  -0.741  0.00  0.00    +0.000 A 
ATOM      9  C   UNL     1       3.028  -1.129  -1.538  0.00  0.00    +0.000 A 
ATOM     10  C   UNL     1       2.248   0.015  -1.553  0.00  0.00    +0.000 A 
ENDROOT
BRANCH   7  11
ATOM     11  C   UNL     1       5.737  -0.309   0.932  0.00  0.00    +0.000 A 
ATOM     12  C   UNL     1       6.848  -1.057   0.584  0.00  0.00    +0.000 A 
ATOM     13  C   UNL     1       7.965  -1.170   1.399  0.00  0.00    +0.000 A 
ATOM     14  C   UNL     1       7.999  -0.520   2.614  0.00  0.00    +0.000 A 
ATOM     15  C   UNL     1       6.900   0.233   2.980  0.00  0.00    +0.000 A 
ATOM     16  C   UNL     1       5.799   0.334   2.158  0.00  0.00    +0.000 A 
ENDBRANCH   7  11
BRANCH   1  17
ATOM     17  C   UNL     1       0.341  -0.435  -3.207  0.00  0.00    +0.000 C 
BRANCH  17  18
ATOM     18  C   UNL     1      -0.698  -1.319  -2.677  0.00  0.00    +0.000 C 
BRANCH  18  19
ATOM     19  C   UNL     1      -1.829  -0.753  -1.921  0.00  0.00    +0.000 C 
BRANCH  19  20
ATOM     20  C   UNL     1      -1.471  -0.029  -0.664  0.00  0.00    +0.000 C 
BRANCH  20  21
ATOM     21  C   UNL     1      -2.778   0.468  -0.021  0.00  0.00    +0.000 C 
BRANCH  21  22
ATOM     22  N   UNL     1      -3.595  -0.637   0.255  0.00  0.00    +0.000 NA
BRANCH  22  24
ATOM     23  C   UNL     1      -5.224  -0.690  -1.585  0.00  0.00    +0.000 C 
ATOM     24  C   UNL     1      -4.171  -1.378  -0.783  0.00  0.00    +0.000 C 
ENDBRANCH  22  24
BRANCH  22  25
ATOM     25  C   UNL     1      -4.106  -0.763   1.542  0.00  0.00    +0.000 C 
BRANCH  25  26
ATOM     26  C   UNL     1      -5.549  -0.374   1.622  0.00  0.00    +0.000 A 
ATOM     27  C   UNL     1      -6.486  -1.297   1.249  0.00  0.00    +0.000 A 
ATOM     28  C   UNL     1      -7.822  -0.988   1.318  0.00  0.00    +0.000 A 
ATOM     29  C   UNL     1      -8.215   0.256   1.765  0.00  0.00    +0.000 A 
ATOM     30  C   UNL     1      -7.258   1.189   2.143  0.00  0.00    +0.000 A 
ATOM     31  C   UNL     1      -5.946   0.862   2.066  0.00  0.00    +0.000 A 
ENDBRANCH  25  26
ENDBRANCH  22  25
ENDBRANCH  21  22
ENDBRANCH  20  21
ENDBRANCH  19  20
ENDBRANCH  18  19
ENDBRANCH  17  18
ENDBRANCH   1  17
TORSDOF 10
