REMARK  Name = 
REMARK  8 active torsions:
REMARK  status: ('A' for Active; 'I' for Inactive)
REMARK    1  A    between atoms: O_2  and  C_3
REMARK    2  A    between atoms: C_6  and  C_7
REMARK    3  A    between atoms: C_7  and  C_8
REMARK    4  A    between atoms: C_7  and  C_25
REMARK    5  A    between atoms: C_8  and  N_9
REMARK    6  A    between atoms: C_10  and  C_12
REMARK    7  A    between atoms: C_25  and  C_26
REMARK    8  A    between atoms: C_33  and  O_34
REMARK                            x       y       z     vdW  Elec       q    Type
REMARK                         _______ _______ _______ _____ _____    ______ ____
ROOT
ATOM      1  C   UNL     1      -2.385   2.748  -0.782  0.00  0.00    +0.000 C 
ENDROOT
BRANCH   1   5
ATOM      2  C   UNL     1      -3.529   0.216   2.551  0.00  0.00    +0.000 A 
ATOM      3  C   UNL     1      -4.358   1.187   2.040  0.00  0.00    +0.000 A 
ATOM      4  C   UNL     1      -3.927   1.976   0.955  0.00  0.00    +0.000 A 
ATOM      5  C   UNL     1      -2.679   1.774   0.411  0.00  0.00    +0.000 A 
ATOM      6  C   UNL     1      -1.900   0.843   0.912  0.00  0.00    +0.000 A 
ATOM      7  C   UNL     1      -2.296   0.051   1.978  0.00  0.00    +0.000 A 
BRANCH   2   9
ATOM      8  C   UNL     1      -5.224  -0.397   4.216  0.00  0.00    +0.000 C 
ATOM      9  O   UNL     1      -3.944  -0.586   3.640  0.00  0.00    +0.000 OA
ENDBRANCH   2   9
BRANCH   7  10
ATOM     10  O   UNL     1      -1.446  -0.913   2.469  0.00  0.00    +0.000 OA
ATOM     11  C   UNL     1      -0.163  -1.140   1.925  0.00  0.00    +0.000 C 
ENDBRANCH   7  10
ENDBRANCH   1   5
BRANCH   1  12
ATOM     12  C   UNL     1      -1.028   3.376  -0.243  0.00  0.00    +0.000 C 
BRANCH  12  13
ATOM     13  N   UNL     1       0.025   2.577  -0.002  0.00  0.00    +0.000 NA
ATOM     14  C   UNL     1       0.913   1.730  -0.648  0.00  0.00    +0.000 C 
ATOM     15  O   UNL     1       0.779   1.599  -1.885  0.00  0.00    +0.000 OA
BRANCH  14  16
ATOM     16  C   UNL     1       1.990   0.981   0.003  0.00  0.00    +0.000 A 
ATOM     17  C   UNL     1       2.317   1.091   1.332  0.00  0.00    +0.000 A 
ATOM     18  C   UNL     1       3.347   0.358   1.901  0.00  0.00    +0.000 A 
ATOM     19  C   UNL     1       4.088  -0.525   1.123  0.00  0.00    +0.000 A 
ATOM     20  O   UNL     1       5.083  -1.332   1.342  0.00  0.00    +0.000 OA
ATOM     21  C   UNL     1       5.446  -1.976   0.256  0.00  0.00    +0.000 A 
ATOM     22  C   UNL     1       6.413  -2.913  -0.043  0.00  0.00    +0.000 A 
ATOM     23  C   UNL     1       6.576  -3.434  -1.308  0.00  0.00    +0.000 A 
ATOM     24  C   UNL     1       5.757  -3.026  -2.344  0.00  0.00    +0.000 A 
ATOM     25  C   UNL     1       4.790  -2.088  -2.045  0.00  0.00    +0.000 A 
ATOM     26  C   UNL     1       4.617  -1.559  -0.783  0.00  0.00    +0.000 A 
ATOM     27  C   UNL     1       3.774  -0.645  -0.199  0.00  0.00    +0.000 A 
ATOM     28  C   UNL     1       2.755   0.089  -0.733  0.00  0.00    +0.000 A 
ENDBRANCH  14  16
ENDBRANCH  12  13
ENDBRANCH   1  12
BRANCH   1  29
ATOM     29  C   UNL     1      -1.776   1.746  -1.893  0.00  0.00    +0.000 C 
BRANCH  29  30
ATOM     30  C   UNL     1      -2.905   0.791  -2.108  0.00  0.00    +0.000 A 
ATOM     31  C   UNL     1      -3.073  -0.372  -1.403  0.00  0.00    +0.000 A 
ATOM     32  C   UNL     1      -4.135  -1.225  -1.638  0.00  0.00    +0.000 A 
ATOM     33  C   UNL     1      -5.088  -0.951  -2.598  0.00  0.00    +0.000 A 
ATOM     34  C   UNL     1      -4.938   0.211  -3.317  0.00  0.00    +0.000 A 
ATOM     35  C   UNL     1      -3.877   1.061  -3.082  0.00  0.00    +0.000 A 
ENDBRANCH  29  30
ENDBRANCH   1  29
TORSDOF 8
