REMARK  Name = 
REMARK  8 active torsions:
REMARK  status: ('A' for Active; 'I' for Inactive)
REMARK    1  A    between atoms: C_5  and  N_6
REMARK    2  A    between atoms: C_7  and  C_9
REMARK    3  A    between atoms: C_9  and  C_10
REMARK    4  A    between atoms: C_9  and  N_17
REMARK    5  A    between atoms: C_10  and  C_11
REMARK    6  A    between atoms: C_18  and  O_20
REMARK    7  A    between atoms: O_20  and  C_21
REMARK    8  A    between atoms: C_21  and  C_22
REMARK                            x       y       z     vdW  Elec       q    Type
REMARK                         _______ _______ _______ _____ _____    ______ ____
ROOT
ATOM      1  C   UNL     1       0.227   0.838  -1.438  0.00  0.00    +0.000 C 
ENDROOT
BRANCH   1   3
ATOM      2  N   UNL     1      -1.935  -0.561  -1.604  0.00  0.00    +0.000 NA
ATOM      3  C   UNL     1      -0.959  -0.038  -0.805  0.00  0.00    +0.000 C 
ATOM      4  O   UNL     1      -0.913  -0.193   0.428  0.00  0.00    +0.000 OA
BRANCH   2   9
ATOM      5  C   UNL     1      -6.117  -3.677   0.726  0.00  0.00    +0.000 C 
ATOM      6  C   UNL     1      -5.025  -2.859   0.092  0.00  0.00    +0.000 A 
ATOM      7  C   UNL     1      -4.032  -2.320   0.884  0.00  0.00    +0.000 A 
ATOM      8  C   UNL     1      -3.014  -1.558   0.296  0.00  0.00    +0.000 A 
ATOM      9  C   UNL     1      -2.979  -1.331  -1.058  0.00  0.00    +0.000 A 
ATOM     10  C   UNL     1      -3.977  -1.875  -1.838  0.00  0.00    +0.000 A 
ATOM     11  C   UNL     1      -3.979  -1.651  -3.327  0.00  0.00    +0.000 C 
ATOM     12  C   UNL     1      -4.976  -2.624  -1.253  0.00  0.00    +0.000 A 
ENDBRANCH   2   9
ENDBRANCH   1   3
BRANCH   1  13
ATOM     13  N   UNL     1       1.018   1.190  -0.115  0.00  0.00    +0.000 NA
ATOM     14  C   UNL     1       2.441   1.131  -0.284  0.00  0.00    +0.000 C 
ATOM     15  O   UNL     1       2.927   0.823  -1.400  0.00  0.00    +0.000 OA
BRANCH  14  16
ATOM     16  O   UNL     1       3.320   1.404   0.751  0.00  0.00    +0.000 OA
BRANCH  16  17
ATOM     17  C   UNL     1       4.717   1.341   0.572  0.00  0.00    +0.000 C 
BRANCH  17  18
ATOM     18  C   UNL     1       5.074  -0.044   0.175  0.00  0.00    +0.000 A 
ATOM     19  C   UNL     1       4.194  -1.093   0.099  0.00  0.00    +0.000 A 
ATOM     20  C   UNL     1       4.579  -2.351  -0.271  0.00  0.00    +0.000 A 
ATOM     21  C   UNL     1       5.880  -2.627  -0.587  0.00  0.00    +0.000 A 
ATOM     22  C   UNL     1       6.794  -1.597  -0.521  0.00  0.00    +0.000 A 
ATOM     23  C   UNL     1       6.399  -0.340  -0.150  0.00  0.00    +0.000 A 
ENDBRANCH  17  18
ENDBRANCH  16  17
ENDBRANCH  14  16
ENDBRANCH   1  13
BRANCH   1  24
ATOM     24  C   UNL     1      -0.632   2.253  -1.500  0.00  0.00    +0.000 C 
BRANCH  24  25
ATOM     25  C   UNL     1      -1.045   2.620  -0.167  0.00  0.00    +0.000 A 
ATOM     26  C   UNL     1      -0.319   3.396   0.715  0.00  0.00    +0.000 A 
ATOM     27  C   UNL     1      -0.735   3.732   1.966  0.00  0.00    +0.000 A 
ATOM     28  C   UNL     1      -1.954   3.299   2.438  0.00  0.00    +0.000 A 
ATOM     29  C   UNL     1      -2.713   2.521   1.590  0.00  0.00    +0.000 A 
ATOM     30  C   UNL     1      -2.268   2.193   0.324  0.00  0.00    +0.000 A 
ENDBRANCH  24  25
ENDBRANCH   1  24
TORSDOF 8
