REMARK  Name = 
REMARK  7 active torsions:
REMARK  status: ('A' for Active; 'I' for Inactive)
REMARK    1  A    between atoms: C_2  and  O_3
REMARK    2  A    between atoms: O_3  and  C_4
REMARK    3  A    between atoms: C_7  and  N_8
REMARK    4  A    between atoms: N_8  and  C_9
REMARK    5  A    between atoms: C_10  and  S_11
REMARK    6  A    between atoms: S_11  and  C_12
REMARK    7  A    between atoms: N_20  and  C_21
REMARK                            x       y       z     vdW  Elec       q    Type
REMARK                         _______ _______ _______ _____ _____    ______ ____
ROOT
ATOM      1  C   UNL     1       0.296   0.347  -0.736  0.00  0.00    +0.000 C 
ATOM      2  C   UNL     1      -0.738   1.143  -0.428  0.00  0.00    +0.000 C 
ATOM      3  C   UNL     1      -1.799   0.309   0.105  0.00  0.00    +0.000 C 
ATOM      4  O   UNL     1      -2.921   0.715   0.499  0.00  0.00    +0.000 OA
ATOM      5  N   UNL     1      -1.344  -1.055   0.101  0.00  0.00    +0.000 N 
ATOM      6  C   UNL     1      -0.032  -1.029  -0.425  0.00  0.00    +0.000 C 
ATOM      7  O   UNL     1       0.701  -2.060  -0.583  0.00  0.00    +0.000 OA
ENDROOT
BRANCH   5   8
ATOM      8  C   UNL     1      -2.123  -2.154   0.556  0.00  0.00    +0.000 A 
ATOM      9  C   UNL     1      -2.607  -2.258   1.831  0.00  0.00    +0.000 A 
ATOM     10  C   UNL     1      -3.361  -3.342   2.233  0.00  0.00    +0.000 A 
ATOM     11  C   UNL     1      -3.616  -4.323   1.313  0.00  0.00    +0.000 A 
ATOM     12  C   UNL     1      -3.143  -4.245   0.029  0.00  0.00    +0.000 A 
ATOM     13  C   UNL     1      -3.439  -5.336  -0.960  0.00  0.00    +0.000 C 
ATOM     14  C   UNL     1      -2.394  -3.151  -0.344  0.00  0.00    +0.000 A 
ATOM     15  C   UNL     1      -1.883  -3.080  -1.758  0.00  0.00    +0.000 C 
ENDBRANCH   5   8
BRANCH   1  16
ATOM     16  N   UNL     1       1.552   0.755  -1.292  0.00  0.00    +0.000 NA
BRANCH  16  20
ATOM     17  C   UNL     1       5.293  -0.611   0.141  0.00  0.00    +0.000 A 
ATOM     18  C   UNL     1       5.201   0.279  -0.921  0.00  0.00    +0.000 A 
ATOM     19  C   UNL     1       3.965   0.702  -1.361  0.00  0.00    +0.000 A 
ATOM     20  C   UNL     1       2.783   0.282  -0.791  0.00  0.00    +0.000 A 
ATOM     21  C   UNL     1       2.883  -0.601   0.263  0.00  0.00    +0.000 A 
ATOM     22  C   UNL     1       4.119  -1.041   0.723  0.00  0.00    +0.000 A 
BRANCH  17  23
ATOM     23  O   UNL     1       6.512  -1.065   0.620  0.00  0.00    +0.000 OA
BRANCH  23  25
ATOM     24  C   UNL     1       7.940   0.820   0.165  0.00  0.00    +0.000 C 
ATOM     25  C   UNL     1       7.736  -0.669   0.076  0.00  0.00    +0.000 C 
ENDBRANCH  23  25
ENDBRANCH  17  23
ENDBRANCH  16  20
ENDBRANCH   1  16
BRANCH   2  26
ATOM     26  S   UNL     1      -0.634   2.877  -0.698  0.00  0.00    +0.000 S 
BRANCH  26  27
ATOM     27  C   UNL     1      -2.067   3.808  -0.269  0.00  0.00    +0.000 A 
ATOM     28  C   UNL     1      -3.214   3.289   0.243  0.00  0.00    +0.000 A 
ATOM     29  C   UNL     1      -4.280   4.072   0.549  0.00  0.00    +0.000 A 
ATOM     30  C   UNL     1      -4.269   5.451   0.361  0.00  0.00    +0.000 A 
ATOM     31  C   UNL     1      -3.091   5.976  -0.163  0.00  0.00    +0.000 A 
ATOM     32  C   UNL     1      -2.024   5.194  -0.470  0.00  0.00    +0.000 A 
ENDBRANCH  26  27
ENDBRANCH   2  26
TORSDOF 7
