REMARK  Name = 
REMARK  9 active torsions:
REMARK  status: ('A' for Active; 'I' for Inactive)
REMARK    1  A    between atoms: C_2  and  C_3
REMARK    2  A    between atoms: C_3  and  C_4
REMARK    3  A    between atoms: C_4  and  S_5
REMARK    4  A    between atoms: S_5  and  C_6
REMARK    5  A    between atoms: C_6  and  C_7
REMARK    6  A    between atoms: C_7  and  C_8
REMARK    7  A    between atoms: C_8  and  N_9
REMARK    8  A    between atoms: C_10  and  C_12
REMARK    9  A    between atoms: N_15  and  C_16
REMARK                            x       y       z     vdW  Elec       q    Type
REMARK                         _______ _______ _______ _____ _____    ______ ____
ROOT
ATOM      1  C   UNL     1       0.051   0.522   0.577  0.00  0.00    +0.000 A 
ATOM      2  C   UNL     1      -1.289   0.271   0.395  0.00  0.00    +0.000 A 
ATOM      3  C   UNL     1      -2.170   0.220   1.451  0.00  0.00    +0.000 A 
ATOM      4  N   UNL     1      -3.562  -0.013   1.286  0.00  0.00    +0.000 NA
ATOM      5  N   UNL     1      -1.652   0.430   2.699  0.00  0.00    +0.000 NA
ATOM      6  C   UNL     1      -0.348   0.679   2.913  0.00  0.00    +0.000 A 
ATOM      7  C   UNL     1       0.164   0.866   4.183  0.00  0.00    +0.000 A 
ATOM      8  C   UNL     1       1.482   1.098   4.439  0.00  0.00    +0.000 A 
ATOM      9  C   UNL     1       2.368   1.156   3.385  0.00  0.00    +0.000 A 
ATOM     10  C   UNL     1       1.873   0.971   2.096  0.00  0.00    +0.000 A 
ATOM     11  C   UNL     1       0.538   0.733   1.861  0.00  0.00    +0.000 A 
ENDROOT
BRANCH   4  12
ATOM     12  C   UNL     1      -4.235  -0.183   0.078  0.00  0.00    +0.000 A 
ATOM     13  C   UNL     1      -5.629  -0.257   0.096  0.00  0.00    +0.000 A 
ATOM     14  C   UNL     1      -6.341  -0.421  -1.053  0.00  0.00    +0.000 A 
ATOM     15  C   UNL     1      -5.710  -0.519  -2.288  0.00  0.00    +0.000 A 
ATOM     16  C   UNL     1      -4.320  -0.442  -2.296  0.00  0.00    +0.000 A 
ATOM     17  C   UNL     1      -3.587  -0.279  -1.156  0.00  0.00    +0.000 A 
ENDBRANCH   4  12
BRANCH   1  19
ATOM     18  N   UNL     1       1.712   1.802  -0.673  0.00  0.00    +0.000 NA
ATOM     19  C   UNL     1       1.004   0.607  -0.510  0.00  0.00    +0.000 C 
ATOM     20  O   UNL     1       1.206  -0.348  -1.301  0.00  0.00    +0.000 OA
BRANCH  18  21
ATOM     21  C   UNL     1       2.692   2.232  -1.540  0.00  0.00    +0.000 C 
BRANCH  21  22
ATOM     22  C   UNL     1       2.486   2.105  -3.021  0.00  0.00    +0.000 C 
BRANCH  22  23
ATOM     23  C   UNL     1       2.513   0.597  -3.343  0.00  0.00    +0.000 C 
BRANCH  23  24
ATOM     24  S   UNL     1       4.199   0.056  -2.870  0.00  0.00    +0.000 S 
BRANCH  24  25
ATOM     25  C   UNL     1       4.403  -1.720  -2.952  0.00  0.00    +0.000 C 
BRANCH  25  26
ATOM     26  C   UNL     1       3.686  -2.393  -1.790  0.00  0.00    +0.000 C 
BRANCH  26  28
ATOM     27  C   UNL     1       4.191  -0.475  -0.222  0.00  0.00    +0.000 C 
ATOM     28  C   UNL     1       4.276  -1.961  -0.443  0.00  0.00    +0.000 C 
ENDBRANCH  26  28
ENDBRANCH  25  26
ENDBRANCH  24  25
ENDBRANCH  23  24
ENDBRANCH  22  23
ENDBRANCH  21  22
ENDBRANCH  18  21
ENDBRANCH   1  19
TORSDOF 9
