REMARK  Name = 
REMARK  5 active torsions:
REMARK  status: ('A' for Active; 'I' for Inactive)
REMARK    1  A    between atoms: C_7  and  N_8
REMARK    2  A    between atoms: N_8  and  C_9
REMARK    3  A    between atoms: C_11  and  C_12
REMARK    4  A    between atoms: C_12  and  C_14
REMARK    5  A    between atoms: C_22  and  C_23
REMARK                            x       y       z     vdW  Elec       q    Type
REMARK                         _______ _______ _______ _____ _____    ______ ____
ROOT
ATOM      1  C   UNL     1       0.346   0.939  -0.646  0.00  0.00    +0.000 A 
ATOM      2  S   UNL     1       1.937   0.329  -0.556  0.00  0.00    +0.000 S 
ATOM      3  C   UNL     1       1.601  -1.295  -0.258  0.00  0.00    +0.000 A 
ATOM      4  C   UNL     1       0.226  -1.333  -0.234  0.00  0.00    +0.000 A 
ATOM      5  N   UNL     1      -0.354  -2.653   0.005  0.00  0.00    +0.000 NA
ATOM      6  C   UNL     1      -0.445  -0.196  -0.431  0.00  0.00    +0.000 A 
ENDROOT
BRANCH   6   7
ATOM      7  C   UNL     1      -1.915  -0.017  -0.453  0.00  0.00    +0.000 C 
ATOM      8  O   UNL     1      -2.340   1.209  -0.695  0.00  0.00    +0.000 OA
ATOM      9  N   UNL     1      -2.912  -0.956  -0.254  0.00  0.00    +0.000 N 
ATOM     10  C   UNL     1      -2.787  -2.333   0.032  0.00  0.00    +0.000 C 
ATOM     11  C   UNL     1      -3.303  -2.621   1.419  0.00  0.00    +0.000 C 
ATOM     12  C   UNL     1      -4.503  -1.787   1.764  0.00  0.00    +0.000 A 
ATOM     13  C   UNL     1      -5.159  -2.036   2.960  0.00  0.00    +0.000 A 
ATOM     14  C   UNL     1      -6.263  -1.321   3.350  0.00  0.00    +0.000 A 
ATOM     15  C   UNL     1      -6.711  -0.330   2.506  0.00  0.00    +0.000 A 
ATOM     16  C   UNL     1      -6.091  -0.058   1.324  0.00  0.00    +0.000 A 
ATOM     17  C   UNL     1      -4.979  -0.796   0.954  0.00  0.00    +0.000 A 
ATOM     18  C   UNL     1      -4.321  -0.472  -0.357  0.00  0.00    +0.000 C 
ENDBRANCH   6   7
BRANCH   3  19
ATOM     19  C   UNL     1       2.589  -2.360  -0.077  0.00  0.00    +0.000 C 
ATOM     20  O   UNL     1       2.244  -3.556   0.144  0.00  0.00    +0.000 OA
BRANCH  19  21
ATOM     21  C   UNL     1       4.016  -2.094  -0.143  0.00  0.00    +0.000 A 
ATOM     22  C   UNL     1       4.918  -2.900   0.500  0.00  0.00    +0.000 A 
ATOM     23  C   UNL     1       6.282  -2.703   0.478  0.00  0.00    +0.000 A 
ATOM     24  C   UNL     1       6.773  -1.636  -0.231  0.00  0.00    +0.000 A 
ATOM     25  C   UNL     1       5.883  -0.814  -0.884  0.00  0.00    +0.000 A 
ATOM     26  C   UNL     1       4.519  -1.025  -0.852  0.00  0.00    +0.000 A 
ENDBRANCH  19  21
ENDBRANCH   3  19
BRANCH   1  27
ATOM     27  N   UNL     1      -0.071   2.303  -0.887  0.00  0.00    +0.000 NA
BRANCH  27  34
ATOM     28  C   UNL     1      -0.800   5.045  -1.371  0.00  0.00    +0.000 C 
ATOM     29  C   UNL     1       0.613   4.605  -1.313  0.00  0.00    +0.000 A 
ATOM     30  C   UNL     1       1.627   5.554  -1.499  0.00  0.00    +0.000 A 
ATOM     31  C   UNL     1       2.953   5.188  -1.453  0.00  0.00    +0.000 A 
ATOM     32  C   UNL     1       3.261   3.873  -1.220  0.00  0.00    +0.000 A 
ATOM     33  C   UNL     1       2.248   2.958  -1.040  0.00  0.00    +0.000 A 
ATOM     34  C   UNL     1       0.918   3.290  -1.080  0.00  0.00    +0.000 A 
ENDBRANCH  27  34
ENDBRANCH   1  27
TORSDOF 5
