REMARK  Name = 
REMARK  8 active torsions:
REMARK  status: ('A' for Active; 'I' for Inactive)
REMARK    1  A    between atoms: C_6  and  C_7
REMARK    2  A    between atoms: C_10  and  S_11
REMARK    3  A    between atoms: S_11  and  C_12
REMARK    4  A    between atoms: C_12  and  C_13
REMARK    5  A    between atoms: N_15  and  C_16
REMARK    6  A    between atoms: C_21  and  C_22
REMARK    7  A    between atoms: N_25  and  C_26
REMARK    8  A    between atoms: C_26  and  C_27
REMARK                            x       y       z     vdW  Elec       q    Type
REMARK                         _______ _______ _______ _____ _____    ______ ____
ROOT
ATOM      1  C   UNL     1      -2.843   0.580   0.965  0.00  0.00    +0.000 A 
ATOM      2  N   UNL     1      -2.038   1.426   1.678  0.00  0.00    +0.000 NA
ATOM      3  N   UNL     1      -1.025   0.737   2.170  0.00  0.00    +0.000 NA
ATOM      4  C   UNL     1      -1.129  -0.551   1.804  0.00  0.00    +0.000 A 
ATOM      5  N   UNL     1      -2.269  -0.615   1.056  0.00  0.00    +0.000 N 
ENDROOT
BRANCH   1  11
ATOM      6  C   UNL     1      -6.062   4.088  -0.329  0.00  0.00    +0.000 C 
ATOM      7  C   UNL     1      -5.635   2.667  -0.347  0.00  0.00    +0.000 A 
ATOM      8  C   UNL     1      -6.400   1.727  -1.005  0.00  0.00    +0.000 A 
ATOM      9  C   UNL     1      -5.990   0.425  -1.009  0.00  0.00    +0.000 A 
ATOM     10  C   UNL     1      -4.829   0.086  -0.359  0.00  0.00    +0.000 A 
ATOM     11  C   UNL     1      -4.072   1.013   0.292  0.00  0.00    +0.000 A 
ATOM     12  C   UNL     1      -4.469   2.335   0.308  0.00  0.00    +0.000 A 
ENDBRANCH   1  11
BRANCH   4  13
ATOM     13  S   UNL     1       0.003  -1.857   2.239  0.00  0.00    +0.000 S 
BRANCH  13  14
ATOM     14  C   UNL     1       1.350  -2.054   1.070  0.00  0.00    +0.000 C 
BRANCH  14  15
ATOM     15  C   UNL     1       2.242  -0.866   1.083  0.00  0.00    +0.000 C 
ATOM     16  O   UNL     1       1.970   0.083   1.853  0.00  0.00    +0.000 OA
ATOM     17  N   UNL     1       3.383  -0.801   0.239  0.00  0.00    +0.000 NA
BRANCH  17  18
ATOM     18  C   UNL     1       4.219   0.347   0.271  0.00  0.00    +0.000 A 
ATOM     19  C   UNL     1       4.017   1.429   1.062  0.00  0.00    +0.000 A 
ATOM     20  C   UNL     1       4.874   2.505   1.035  0.00  0.00    +0.000 A 
ATOM     21  C   UNL     1       5.987   2.544   0.203  0.00  0.00    +0.000 A 
ATOM     22  C   UNL     1       6.173   1.433  -0.592  0.00  0.00    +0.000 A 
ATOM     23  C   UNL     1       5.327   0.343  -0.583  0.00  0.00    +0.000 A 
BRANCH  23  24
ATOM     24  C   UNL     1       5.584  -0.811  -1.456  0.00  0.00    +0.000 C 
ATOM     25  C   UNL     1       6.828  -0.551  -2.260  0.00  0.00    +0.000 C 
ATOM     26  C   UNL     1       5.696  -2.055  -0.603  0.00  0.00    +0.000 C 
ENDBRANCH  23  24
ENDBRANCH  17  18
ENDBRANCH  14  15
ENDBRANCH  13  14
ENDBRANCH   4  13
BRANCH   5  27
ATOM     27  C   UNL     1      -2.740  -1.839   0.479  0.00  0.00    +0.000 C 
BRANCH  27  28
ATOM     28  C   UNL     1      -2.139  -2.084  -0.844  0.00  0.00    +0.000 A 
ATOM     29  C   UNL     1      -2.607  -1.699  -2.078  0.00  0.00    +0.000 A 
ATOM     30  C   UNL     1      -1.708  -2.157  -2.999  0.00  0.00    +0.000 A 
ATOM     31  C   UNL     1      -0.697  -2.821  -2.299  0.00  0.00    +0.000 A 
ATOM     32  O   UNL     1      -1.002  -2.747  -1.042  0.00  0.00    +0.000 OA
ENDBRANCH  27  28
ENDBRANCH   5  27
TORSDOF 8
