REMARK  Name = 
REMARK  6 active torsions:
REMARK  status: ('A' for Active; 'I' for Inactive)
REMARK    1  A    between atoms: O_2  and  C_3
REMARK    2  A    between atoms: C_6  and  N_7
REMARK    3  A    between atoms: C_8  and  C_10
REMARK    4  A    between atoms: C_14  and  C_15
REMARK    5  A    between atoms: C_15  and  C_16
REMARK    6  A    between atoms: C_16  and  C_17
REMARK                            x       y       z     vdW  Elec       q    Type
REMARK                         _______ _______ _______ _____ _____    ______ ____
ROOT
ATOM      1  C   UNL     1      -1.186  -0.179  -0.498  0.00  0.00    +0.000 A 
ATOM      2  S   UNL     1      -0.027   1.019  -0.819  0.00  0.00    +0.000 S 
ATOM      3  C   UNL     1       1.375   0.035  -0.915  0.00  0.00    +0.000 A 
ATOM      4  N   UNL     1       2.699   0.298  -1.148  0.00  0.00    +0.000 NA
ATOM      5  C   UNL     1       3.614  -0.686  -1.170  0.00  0.00    +0.000 A 
ATOM      6  C   UNL     1       3.151  -1.943  -0.948  0.00  0.00    +0.000 A 
ATOM      7  C   UNL     1       1.837  -2.246  -0.711  0.00  0.00    +0.000 A 
ATOM      8  C   UNL     1       0.872  -1.214  -0.688  0.00  0.00    +0.000 A 
ATOM      9  C   UNL     1      -0.447  -1.329  -0.473  0.00  0.00    +0.000 A 
ATOM     10  N   UNL     1      -1.147  -2.583  -0.215  0.00  0.00    +0.000 NA
ATOM     11  C   UNL     1       1.500  -3.662  -0.490  0.00  0.00    +0.000 C 
ATOM     12  C   UNL     1       2.438  -4.367   0.429  0.00  0.00    +0.000 C 
ATOM     13  C   UNL     1       3.878  -4.016   0.215  0.00  0.00    +0.000 C 
ATOM     14  C   UNL     1       4.105  -3.108  -0.954  0.00  0.00    +0.000 C 
ENDROOT
BRANCH   1  16
ATOM     15  N   UNL     1      -3.155   1.344  -0.380  0.00  0.00    +0.000 NA
ATOM     16  C   UNL     1      -2.610   0.058  -0.309  0.00  0.00    +0.000 C 
ATOM     17  O   UNL     1      -3.364  -0.922  -0.078  0.00  0.00    +0.000 OA
BRANCH  15  21
ATOM     18  C   UNL     1      -7.255   2.168   0.144  0.00  0.00    +0.000 A 
ATOM     19  C   UNL     1      -6.383   3.203  -0.110  0.00  0.00    +0.000 A 
ATOM     20  C   UNL     1      -5.030   2.928  -0.282  0.00  0.00    +0.000 A 
ATOM     21  C   UNL     1      -4.535   1.645  -0.206  0.00  0.00    +0.000 A 
ATOM     22  C   UNL     1      -5.432   0.631   0.049  0.00  0.00    +0.000 A 
ATOM     23  C   UNL     1      -6.800   0.871   0.228  0.00  0.00    +0.000 A 
BRANCH  18  25
ATOM     24  C   UNL     1      -9.571   1.470   0.577  0.00  0.00    +0.000 C 
ATOM     25  O   UNL     1      -8.598   2.465   0.312  0.00  0.00    +0.000 OA
ENDBRANCH  18  25
ENDBRANCH  15  21
ENDBRANCH   1  16
BRANCH   5  26
ATOM     26  C   UNL     1       5.046  -0.424  -1.420  0.00  0.00    +0.000 C 
BRANCH  26  27
ATOM     27  C   UNL     1       5.845  -0.498  -0.133  0.00  0.00    +0.000 C 
BRANCH  27  28
ATOM     28  C   UNL     1       5.320   0.526   0.809  0.00  0.00    +0.000 A 
ATOM     29  C   UNL     1       4.305   0.264   1.704  0.00  0.00    +0.000 A 
ATOM     30  C   UNL     1       3.838   1.244   2.571  0.00  0.00    +0.000 A 
ATOM     31  C   UNL     1       4.409   2.483   2.517  0.00  0.00    +0.000 A 
ATOM     32  C   UNL     1       5.428   2.755   1.622  0.00  0.00    +0.000 A 
ATOM     33  C   UNL     1       5.877   1.768   0.771  0.00  0.00    +0.000 A 
ENDBRANCH  27  28
ENDBRANCH  26  27
ENDBRANCH   5  26
TORSDOF 6
