REMARK  Name = 
REMARK  8 active torsions:
REMARK  status: ('A' for Active; 'I' for Inactive)
REMARK    1  A    between atoms: O_2  and  C_3
REMARK    2  A    between atoms: C_6  and  C_7
REMARK    3  A    between atoms: C_7  and  C_8
REMARK    4  A    between atoms: C_7  and  S_18
REMARK    5  A    between atoms: C_8  and  C_9
REMARK    6  A    between atoms: C_9  and  C_11
REMARK    7  A    between atoms: S_18  and  C_19
REMARK    8  A    between atoms: C_24  and  N_25
REMARK                            x       y       z     vdW  Elec       q    Type
REMARK                         _______ _______ _______ _____ _____    ______ ____
ROOT
ATOM      1  C   UNL     1       0.175  -0.048   1.427  0.00  0.00    +0.000 C 
ENDROOT
BRANCH   1   5
ATOM      2  C   UNL     1      -1.695   3.781   0.608  0.00  0.00    +0.000 A 
ATOM      3  C   UNL     1      -0.960   3.132  -0.354  0.00  0.00    +0.000 A 
ATOM      4  C   UNL     1      -0.363   1.895  -0.070  0.00  0.00    +0.000 A 
ATOM      5  C   UNL     1      -0.503   1.315   1.170  0.00  0.00    +0.000 A 
ATOM      6  C   UNL     1      -1.226   1.952   2.119  0.00  0.00    +0.000 A 
ATOM      7  C   UNL     1      -1.825   3.187   1.841  0.00  0.00    +0.000 A 
BRANCH   2   9
ATOM      8  C   UNL     1      -3.056   5.700   1.314  0.00  0.00    +0.000 C 
ATOM      9  O   UNL     1      -2.299   5.014   0.349  0.00  0.00    +0.000 OA
ENDBRANCH   2   9
ENDBRANCH   1   5
BRANCH   1  10
ATOM     10  C   UNL     1       1.599   0.333   0.845  0.00  0.00    +0.000 C 
BRANCH  10  11
ATOM     11  C   UNL     1       2.490  -0.839   0.967  0.00  0.00    +0.000 C 
ATOM     12  O   UNL     1       2.046  -1.886   1.464  0.00  0.00    +0.000 OA
BRANCH  11  13
ATOM     13  C   UNL     1       3.854  -0.717   0.502  0.00  0.00    +0.000 A 
ATOM     14  C   UNL     1       4.702  -1.802   0.605  0.00  0.00    +0.000 A 
ATOM     15  C   UNL     1       6.023  -1.696   0.160  0.00  0.00    +0.000 A 
ATOM     16  C   UNL     1       6.488  -0.514  -0.382  0.00  0.00    +0.000 A 
ATOM     17  C   UNL     1       7.918  -0.488  -0.834  0.00  0.00    +0.000 C 
ATOM     18  C   UNL     1       5.661   0.563  -0.489  0.00  0.00    +0.000 A 
ATOM     19  C   UNL     1       4.351   0.429  -0.038  0.00  0.00    +0.000 A 
ENDBRANCH  11  13
ENDBRANCH  10  11
ENDBRANCH   1  10
BRANCH   1  20
ATOM     20  S   UNL     1      -0.453  -0.930  -0.141  0.00  0.00    +0.000 S 
BRANCH  20  21
ATOM     21  C   UNL     1      -2.238  -1.078   0.043  0.00  0.00    +0.000 A 
ATOM     22  C   UNL     1      -2.880  -0.592   1.177  0.00  0.00    +0.000 A 
ATOM     23  C   UNL     1      -4.249  -0.728   1.272  0.00  0.00    +0.000 A 
ATOM     24  C   UNL     1      -4.938  -1.338   0.247  0.00  0.00    +0.000 A 
ATOM     25  C   UNL     1      -4.295  -1.820  -0.879  0.00  0.00    +0.000 A 
ATOM     26  C   UNL     1      -2.912  -1.689  -0.987  0.00  0.00    +0.000 A 
BRANCH  26  27
ATOM     27  N   UNL     1      -2.201  -2.165  -2.122  0.00  0.00    +0.000 NA
ATOM     28  C   UNL     1      -2.911  -2.791  -3.180  0.00  0.00    +0.000 C 
ATOM     29  C   UNL     1      -2.154  -3.282  -4.356  0.00  0.00    +0.000 C 
ATOM     30  O   UNL     1      -4.151  -2.897  -3.063  0.00  0.00    +0.000 OA
ENDBRANCH  26  27
ENDBRANCH  20  21
ENDBRANCH   1  20
TORSDOF 8
