REMARK  Name = 
REMARK  8 active torsions:
REMARK  status: ('A' for Active; 'I' for Inactive)
REMARK    1  A    between atoms: C_2  and  C_4
REMARK    2  A    between atoms: C_7  and  C_8
REMARK    3  A    between atoms: C_11  and  C_12
REMARK    4  A    between atoms: C_18  and  C_19
REMARK    5  A    between atoms: N_21  and  C_22
REMARK    6  A    between atoms: C_22  and  C_23
REMARK    7  A    between atoms: C_23  and  O_24
REMARK    8  A    between atoms: O_24  and  C_25
REMARK                            x       y       z     vdW  Elec       q    Type
REMARK                         _______ _______ _______ _____ _____    ______ ____
ROOT
ATOM      1  C   UNL     1      -2.595  -1.911   0.530  0.00  0.00    +0.000 C 
ATOM      2  O   UNL     1      -2.262  -1.907   1.982  0.00  0.00    +0.000 OA
ATOM      3  N   UNL     1      -1.411  -3.005   1.929  0.00  0.00    +0.000 NA
ATOM      4  C   UNL     1      -0.437  -2.494   0.968  0.00  0.00    +0.000 C 
ATOM      5  C   UNL     1      -1.065  -1.795   0.063  0.00  0.00    +0.000 C 
ENDROOT
BRANCH   1   9
ATOM      6  C   UNL     1      -3.857   2.240  -0.088  0.00  0.00    +0.000 A 
ATOM      7  C   UNL     1      -2.724   1.962   0.635  0.00  0.00    +0.000 A 
ATOM      8  C   UNL     1      -2.326   0.646   0.830  0.00  0.00    +0.000 A 
ATOM      9  C   UNL     1      -2.985  -0.388   0.352  0.00  0.00    +0.000 A 
ATOM     10  C   UNL     1      -4.129  -0.151  -0.381  0.00  0.00    +0.000 A 
ATOM     11  C   UNL     1      -4.557   1.168  -0.595  0.00  0.00    +0.000 A 
BRANCH   6  13
ATOM     12  C   UNL     1      -4.286   4.414   0.985  0.00  0.00    +0.000 C 
ATOM     13  C   UNL     1      -4.332   3.648  -0.328  0.00  0.00    +0.000 C 
ATOM     14  C   UNL     1      -5.821   3.555  -0.677  0.00  0.00    +0.000 C 
ENDBRANCH   6  13
ENDBRANCH   1   9
BRANCH   4  15
ATOM     15  C   UNL     1       1.001  -2.747   0.955  0.00  0.00    +0.000 A 
ATOM     16  C   UNL     1       1.731  -3.123  -0.150  0.00  0.00    +0.000 A 
ATOM     17  C   UNL     1       3.103  -3.342  -0.109  0.00  0.00    +0.000 A 
ATOM     18  C   UNL     1       3.802  -3.190   1.068  0.00  0.00    +0.000 A 
ATOM     19  C   UNL     1       3.092  -2.816   2.180  0.00  0.00    +0.000 A 
ATOM     20  C   UNL     1       1.736  -2.606   2.109  0.00  0.00    +0.000 A 
ENDBRANCH   4  15
BRANCH   5  21
ATOM     21  C   UNL     1      -0.615  -1.067  -1.062  0.00  0.00    +0.000 C 
ATOM     22  O   UNL     1      -1.452  -0.476  -1.780  0.00  0.00    +0.000 OA
ATOM     23  N   UNL     1       0.723  -0.983  -1.402  0.00  0.00    +0.000 NA
BRANCH  23  24
ATOM     24  C   UNL     1       1.322  -0.302  -2.484  0.00  0.00    +0.000 C 
BRANCH  24  25
ATOM     25  C   UNL     1       1.160   1.157  -2.580  0.00  0.00    +0.000 C 
BRANCH  25  26
ATOM     26  O   UNL     1       1.659   1.900  -1.501  0.00  0.00    +0.000 OA
BRANCH  26  27
ATOM     27  C   UNL     1       2.959   1.913  -1.072  0.00  0.00    +0.000 A 
ATOM     28  C   UNL     1       3.880   1.138  -1.732  0.00  0.00    +0.000 A 
ATOM     29  C   UNL     1       5.186   1.187  -1.256  0.00  0.00    +0.000 A 
ATOM     30  C   UNL     1       5.554   1.954  -0.196  0.00  0.00    +0.000 A 
ATOM     31  C   UNL     1       4.625   2.733   0.467  0.00  0.00    +0.000 A 
ATOM     32  C   UNL     1       3.320   2.688  -0.004  0.00  0.00    +0.000 A 
ENDBRANCH  26  27
ENDBRANCH  25  26
ENDBRANCH  24  25
ENDBRANCH  23  24
ENDBRANCH   5  21
TORSDOF 8
