REMARK  Name = 
REMARK  8 active torsions:
REMARK  status: ('A' for Active; 'I' for Inactive)
REMARK    1  A    between atoms: C_2  and  C_3
REMARK    2  A    between atoms: C_3  and  C_4
REMARK    3  A    between atoms: C_4  and  O_5
REMARK    4  A    between atoms: O_5  and  C_6
REMARK    5  A    between atoms: C_10  and  C_11
REMARK    6  A    between atoms: C_21  and  O_22
REMARK    7  A    between atoms: O_22  and  C_23
REMARK    8  A    between atoms: C_23  and  C_24
REMARK                            x       y       z     vdW  Elec       q    Type
REMARK                         _______ _______ _______ _____ _____    ______ ____
ROOT
ATOM      1  C   UNL     1       2.271  -1.356   0.464  0.00  0.00    +0.000 C 
ATOM      2  N   UNL     1       2.259  -2.581  -0.496  0.00  0.00    +0.000 NA
ATOM      3  C   UNL     1       1.870  -2.296  -1.767  0.00  0.00    +0.000 C 
ATOM      4  C   UNL     1       0.463  -1.859  -2.021  0.00  0.00    +0.000 C 
ATOM      5  C   UNL     1       0.051  -1.117  -0.805  0.00  0.00    +0.000 A 
ATOM      6  C   UNL     1       0.783  -0.884   0.261  0.00  0.00    +0.000 A 
ATOM      7  N   UNL     1       0.059  -0.174   1.162  0.00  0.00    +0.000 NA
ATOM      8  C   UNL     1      -1.172   0.068   0.685  0.00  0.00    +0.000 A 
ATOM      9  C   UNL     1      -2.260   0.724   1.183  0.00  0.00    +0.000 A 
ATOM     10  C   UNL     1      -3.419   0.816   0.452  0.00  0.00    +0.000 A 
ATOM     11  C   UNL     1      -3.484   0.241  -0.794  0.00  0.00    +0.000 A 
ATOM     12  C   UNL     1      -2.368  -0.411  -1.262  0.00  0.00    +0.000 A 
ATOM     13  C   UNL     1      -1.199  -0.520  -0.560  0.00  0.00    +0.000 A 
ENDROOT
BRANCH   1  18
ATOM     14  C   UNL     1       4.741   1.414  -0.551  0.00  0.00    +0.000 A 
ATOM     15  C   UNL     1       4.387   1.573  -1.871  0.00  0.00    +0.000 A 
ATOM     16  C   UNL     1       3.393   0.834  -2.454  0.00  0.00    +0.000 A 
ATOM     17  C   UNL     1       2.719  -0.100  -1.708  0.00  0.00    +0.000 A 
ATOM     18  C   UNL     1       3.021  -0.298  -0.415  0.00  0.00    +0.000 A 
ATOM     19  C   UNL     1       4.009   0.445   0.143  0.00  0.00    +0.000 A 
BRANCH  14  20
ATOM     20  O   UNL     1       5.743   2.165   0.022  0.00  0.00    +0.000 OA
BRANCH  20  21
ATOM     21  C   UNL     1       6.153   2.059   1.347  0.00  0.00    +0.000 C 
BRANCH  21  22
ATOM     22  C   UNL     1       6.665   0.690   1.723  0.00  0.00    +0.000 C 
BRANCH  22  24
ATOM     23  C   UNL     1       9.027   1.213   1.055  0.00  0.00    +0.000 C 
ATOM     24  C   UNL     1       7.854   0.270   0.903  0.00  0.00    +0.000 C 
ENDBRANCH  22  24
ENDBRANCH  21  22
ENDBRANCH  20  21
ENDBRANCH  14  20
ENDBRANCH   1  18
BRANCH  11  25
ATOM     25  O   UNL     1      -4.662   0.318  -1.573  0.00  0.00    +0.000 OA
BRANCH  25  26
ATOM     26  C   UNL     1      -5.816   0.980  -1.108  0.00  0.00    +0.000 C 
BRANCH  26  27
ATOM     27  C   UNL     1      -6.346   0.376   0.149  0.00  0.00    +0.000 A 
ATOM     28  C   UNL     1      -7.406   0.933   0.828  0.00  0.00    +0.000 A 
ATOM     29  C   UNL     1      -7.911   0.390   1.987  0.00  0.00    +0.000 A 
ATOM     30  C   UNL     1      -7.333  -0.760   2.490  0.00  0.00    +0.000 A 
ATOM     31  C   UNL     1      -6.284  -1.331   1.839  0.00  0.00    +0.000 A 
ATOM     32  C   UNL     1      -5.810  -0.765   0.693  0.00  0.00    +0.000 A 
ENDBRANCH  26  27
ENDBRANCH  25  26
ENDBRANCH  11  25
TORSDOF 8
