REMARK  Name = 
REMARK  5 active torsions:
REMARK  status: ('A' for Active; 'I' for Inactive)
REMARK    1  A    between atoms: C_2  and  N_3
REMARK    2  A    between atoms: C_12  and  N_13
REMARK    3  A    between atoms: C_14  and  C_16
REMARK    4  A    between atoms: C_16  and  N_17
REMARK    5  A    between atoms: N_17  and  C_18
REMARK                            x       y       z     vdW  Elec       q    Type
REMARK                         _______ _______ _______ _____ _____    ______ ____
ROOT
ATOM      1  N   UNL     1      -4.639  -1.594  -0.116  0.00  0.00    +0.000 N 
ATOM      2  C   UNL     1      -5.593  -0.643  -0.022  0.00  0.00    +0.000 A 
ATOM      3  C   UNL     1      -6.973  -0.678   0.098  0.00  0.00    +0.000 A 
ATOM      4  C   UNL     1      -7.717   0.498   0.177  0.00  0.00    +0.000 A 
ATOM      5  C   UNL     1      -7.054   1.694   0.134  0.00  0.00    +0.000 A 
ATOM      6  C   UNL     1      -5.671   1.759   0.014  0.00  0.00    +0.000 A 
ATOM      7  C   UNL     1      -4.952   0.576  -0.063  0.00  0.00    +0.000 A 
ATOM      8  C   UNL     1      -3.595   0.322  -0.184  0.00  0.00    +0.000 A 
ATOM      9  C   UNL     1      -2.468   1.103  -0.273  0.00  0.00    +0.000 A 
ATOM     10  C   UNL     1      -1.179   0.614  -0.392  0.00  0.00    +0.000 A 
ATOM     11  C   UNL     1      -1.040  -0.764  -0.420  0.00  0.00    +0.000 A 
ATOM     12  C   UNL     1      -2.145  -1.586  -0.333  0.00  0.00    +0.000 A 
ATOM     13  C   UNL     1      -3.413  -1.045  -0.216  0.00  0.00    +0.000 A 
ENDROOT
BRANCH  10  14
ATOM     14  N   UNL     1      -0.051   1.484  -0.486  0.00  0.00    +0.000 NA
ATOM     15  C   UNL     1       1.236   0.893  -0.562  0.00  0.00    +0.000 C 
ATOM     16  O   UNL     1       1.304  -0.358  -0.539  0.00  0.00    +0.000 OA
BRANCH  15  17
ATOM     17  C   UNL     1       2.478   1.747  -0.667  0.00  0.00    +0.000 C 
BRANCH  17  18
ATOM     18  N   UNL     1       3.655   0.903  -0.723  0.00  0.00    +0.000 NA
BRANCH  18  19
ATOM     19  C   UNL     1       3.722   0.254   0.748  0.00  0.00    +0.000 C 
ATOM     20  C   UNL     1       3.930   1.720   1.464  0.00  0.00    +0.000 C 
ATOM     21  C   UNL     1       4.934   2.487   0.711  0.00  0.00    +0.000 C 
ATOM     22  C   UNL     1       6.272   1.938   1.159  0.00  0.00    +0.000 C 
ATOM     23  C   UNL     1       6.292   0.534   0.770  0.00  0.00    +0.000 A 
ATOM     24  C   UNL     1       7.538  -0.026   0.590  0.00  0.00    +0.000 A 
ATOM     25  C   UNL     1       7.696  -1.355   0.223  0.00  0.00    +0.000 A 
ATOM     26  C   UNL     1       6.571  -2.129   0.036  0.00  0.00    +0.000 A 
ATOM     27  C   UNL     1       5.315  -1.535   0.226  0.00  0.00    +0.000 A 
ATOM     28  C   UNL     1       5.221  -0.212   0.590  0.00  0.00    +0.000 A 
ENDBRANCH  18  19
ENDBRANCH  17  18
ENDBRANCH  15  17
ENDBRANCH  10  14
BRANCH   1  30
ATOM     29  C   UNL     1      -4.817  -3.579   1.288  0.00  0.00    +0.000 C 
ATOM     30  C   UNL     1      -4.857  -3.023  -0.117  0.00  0.00    +0.000 C 
ENDBRANCH   1  30
TORSDOF 5
