REMARK  Name = 
REMARK  9 active torsions:
REMARK  status: ('A' for Active; 'I' for Inactive)
REMARK    1  A    between atoms: O_2  and  C_3
REMARK    2  A    between atoms: C_8  and  C_9
REMARK    3  A    between atoms: C_9  and  C_10
REMARK    4  A    between atoms: C_10  and  N_11
REMARK    5  A    between atoms: C_12  and  C_14
REMARK    6  A    between atoms: C_17  and  C_18
REMARK    7  A    between atoms: C_18  and  O_19
REMARK    8  A    between atoms: O_19  and  C_20
REMARK    9  A    between atoms: C_23  and  C_24
REMARK                            x       y       z     vdW  Elec       q    Type
REMARK                         _______ _______ _______ _____ _____    ______ ____
ROOT
ATOM      1  C   UNL     1      -0.292   0.576  -0.064  0.00  0.00    +0.000 A 
ATOM      2  C   UNL     1       0.640   0.632  -1.059  0.00  0.00    +0.000 A 
ATOM      3  C   UNL     1       1.444  -0.480  -0.919  0.00  0.00    +0.000 A 
ATOM      4  C   UNL     1       0.963  -1.176   0.167  0.00  0.00    +0.000 A 
ATOM      5  O   UNL     1      -0.053  -0.505   0.623  0.00  0.00    +0.000 OA
ENDROOT
BRANCH   1   7
ATOM      6  N   UNL     1      -2.300   1.436   1.213  0.00  0.00    +0.000 NA
ATOM      7  C   UNL     1      -1.360   1.574   0.162  0.00  0.00    +0.000 C 
ATOM      8  O   UNL     1      -1.468   2.582  -0.577  0.00  0.00    +0.000 OA
BRANCH   6   9
ATOM      9  C   UNL     1      -3.358   2.436   1.426  0.00  0.00    +0.000 C 
BRANCH   9  10
ATOM     10  C   UNL     1      -4.239   2.540   0.191  0.00  0.00    +0.000 C 
BRANCH  10  16
ATOM     11  C   UNL     1      -5.966   0.830   0.616  0.00  0.00    +0.000 A 
ATOM     12  C   UNL     1      -6.602  -0.360   0.350  0.00  0.00    +0.000 A 
ATOM     13  C   UNL     1      -6.161  -1.155  -0.686  0.00  0.00    +0.000 A 
ATOM     14  C   UNL     1      -5.076  -0.737  -1.448  0.00  0.00    +0.000 A 
ATOM     15  C   UNL     1      -4.462   0.444  -1.167  0.00  0.00    +0.000 A 
ATOM     16  C   UNL     1      -4.895   1.241  -0.137  0.00  0.00    +0.000 A 
BRANCH  11  18
ATOM     17  C   UNL     1      -7.548   1.187   2.454  0.00  0.00    +0.000 C 
ATOM     18  O   UNL     1      -6.462   1.583   1.675  0.00  0.00    +0.000 OA
ENDBRANCH  11  18
ENDBRANCH  10  16
ENDBRANCH   9  10
ENDBRANCH   6   9
ENDBRANCH   1   7
BRANCH   4  19
ATOM     19  C   UNL     1       1.500  -2.468   0.733  0.00  0.00    +0.000 C 
BRANCH  19  20
ATOM     20  O   UNL     1       2.631  -2.872   0.038  0.00  0.00    +0.000 OA
BRANCH  20  21
ATOM     21  C   UNL     1       3.752  -2.064   0.006  0.00  0.00    +0.000 A 
ATOM     22  C   UNL     1       3.828  -0.848   0.636  0.00  0.00    +0.000 A 
ATOM     23  C   UNL     1       5.007  -0.108   0.542  0.00  0.00    +0.000 A 
ATOM     24  C   UNL     1       6.098  -0.551  -0.160  0.00  0.00    +0.000 A 
ATOM     25  C   UNL     1       6.018  -1.773  -0.791  0.00  0.00    +0.000 A 
ATOM     26  C   UNL     1       4.847  -2.505  -0.696  0.00  0.00    +0.000 A 
BRANCH  24  27
ATOM     27  C   UNL     1       7.305   0.314  -0.199  0.00  0.00    +0.000 C 
ATOM     28  C   UNL     1       8.356  -0.349  -1.072  0.00  0.00    +0.000 C 
ATOM     29  C   UNL     1       7.853   0.576   1.188  0.00  0.00    +0.000 C 
ENDBRANCH  24  27
ENDBRANCH  20  21
ENDBRANCH  19  20
ENDBRANCH   4  19
TORSDOF 9
