REMARK  Name = 
REMARK  8 active torsions:
REMARK  status: ('A' for Active; 'I' for Inactive)
REMARK    1  A    between atoms: C_2  and  O_3
REMARK    2  A    between atoms: O_3  and  C_4
REMARK    3  A    between atoms: C_4  and  C_6
REMARK    4  A    between atoms: C_11  and  O_12
REMARK    5  A    between atoms: C_16  and  N_17
REMARK    6  A    between atoms: C_18  and  C_20
REMARK    7  A    between atoms: C_25  and  C_26
REMARK    8  A    between atoms: C_26  and  C_27
REMARK                            x       y       z     vdW  Elec       q    Type
REMARK                         _______ _______ _______ _____ _____    ______ ____
ROOT
ATOM      1  C   UNL     1      -1.824  -1.302  -1.151  0.00  0.00    +0.000 A 
ATOM      2  N   UNL     1      -2.974  -1.949  -0.870  0.00  0.00    +0.000 NA
ATOM      3  C   UNL     1      -3.802  -1.187  -0.134  0.00  0.00    +0.000 A 
ATOM      4  C   UNL     1      -5.068  -1.422   0.383  0.00  0.00    +0.000 A 
ATOM      5  C   UNL     1      -5.685  -0.436   1.113  0.00  0.00    +0.000 A 
ATOM      6  C   UNL     1      -5.085   0.781   1.349  0.00  0.00    +0.000 A 
ATOM      7  C   UNL     1      -3.828   0.995   0.828  0.00  0.00    +0.000 A 
ATOM      8  C   UNL     1      -3.166   0.022   0.081  0.00  0.00    +0.000 A 
ATOM      9  C   UNL     1      -1.949  -0.071  -0.553  0.00  0.00    +0.000 A 
ENDROOT
BRANCH   9  10
ATOM     10  N   UNL     1      -0.943   0.924  -0.578  0.00  0.00    +0.000 NA
ATOM     11  C   UNL     1       0.001   1.122   0.451  0.00  0.00    +0.000 C 
ATOM     12  O   UNL     1      -0.005   0.436   1.438  0.00  0.00    +0.000 OA
BRANCH  11  13
ATOM     13  C   UNL     1       1.000   2.291   0.146  0.00  0.00    +0.000 C 
ATOM     14  C   UNL     1       1.624   2.483   1.678  0.00  0.00    +0.000 C 
ATOM     15  C   UNL     1       2.370   3.767   1.322  0.00  0.00    +0.000 C 
ATOM     16  C   UNL     1       3.363   3.469   0.496  0.00  0.00    +0.000 C 
ATOM     17  C   UNL     1       3.538   2.118   0.129  0.00  0.00    +0.000 C 
ATOM     18  C   UNL     1       2.280   1.319  -0.422  0.00  0.00    +0.000 C 
BRANCH  18  19
ATOM     19  C   UNL     1       2.266   0.238   0.828  0.00  0.00    +0.000 C 
BRANCH  19  20
ATOM     20  C   UNL     1       3.317  -0.740   0.585  0.00  0.00    +0.000 A 
ATOM     21  C   UNL     1       3.100  -1.910  -0.100  0.00  0.00    +0.000 A 
ATOM     22  C   UNL     1       4.127  -2.835  -0.320  0.00  0.00    +0.000 A 
ATOM     23  C   UNL     1       5.374  -2.571   0.154  0.00  0.00    +0.000 A 
ATOM     24  C   UNL     1       5.630  -1.419   0.840  0.00  0.00    +0.000 A 
ATOM     25  C   UNL     1       4.592  -0.504   1.053  0.00  0.00    +0.000 A 
ENDBRANCH  19  20
ENDBRANCH  18  19
ENDBRANCH  11  13
ENDBRANCH   9  10
BRANCH   1  26
ATOM     26  C   UNL     1      -0.728  -1.833  -1.954  0.00  0.00    +0.000 C 
ATOM     27  O   UNL     1      -0.812  -3.001  -2.407  0.00  0.00    +0.000 OA
BRANCH  26  28
ATOM     28  O   UNL     1       0.410  -1.131  -2.256  0.00  0.00    +0.000 OA
BRANCH  28  30
ATOM     29  C   UNL     1       2.547  -0.636  -3.190  0.00  0.00    +0.000 C 
ATOM     30  C   UNL     1       1.470  -1.681  -3.055  0.00  0.00    +0.000 C 
ENDBRANCH  28  30
ENDBRANCH  26  28
ENDBRANCH   1  26
BRANCH   6  31
ATOM     31  O   UNL     1      -5.808   1.691   2.099  0.00  0.00    +0.000 OA
ATOM     32  C   UNL     1      -5.333   2.973   2.424  0.00  0.00    +0.000 C 
ENDBRANCH   6  31
TORSDOF 8
