REMARK  Name = 
REMARK  8 active torsions:
REMARK  status: ('A' for Active; 'I' for Inactive)
REMARK    1  A    between atoms: C_2  and  O_3
REMARK    2  A    between atoms: O_3  and  C_4
REMARK    3  A    between atoms: C_9  and  N_10
REMARK    4  A    between atoms: N_10  and  C_11
REMARK    5  A    between atoms: C_12  and  S_13
REMARK    6  A    between atoms: S_13  and  C_14
REMARK    7  A    between atoms: N_22  and  C_23
REMARK    8  A    between atoms: C_26  and  O_27
REMARK                            x       y       z     vdW  Elec       q    Type
REMARK                         _______ _______ _______ _____ _____    ______ ____
ROOT
ATOM      1  C   UNL     1      -0.237  -0.862  -0.654  0.00  0.00    +0.000 C 
ATOM      2  C   UNL     1      -0.403   0.400  -0.224  0.00  0.00    +0.000 C 
ATOM      3  C   UNL     1       0.910   0.912   0.110  0.00  0.00    +0.000 C 
ATOM      4  O   UNL     1       1.266   2.037   0.551  0.00  0.00    +0.000 OA
ATOM      5  N   UNL     1       1.885  -0.106  -0.139  0.00  0.00    +0.000 N 
ATOM      6  C   UNL     1       1.155  -1.216  -0.618  0.00  0.00    +0.000 C 
ATOM      7  O   UNL     1       1.704  -2.321  -0.948  0.00  0.00    +0.000 OA
ENDROOT
BRANCH   5   8
ATOM      8  C   UNL     1       3.285  -0.050   0.044  0.00  0.00    +0.000 A 
ATOM      9  C   UNL     1       3.971   1.134  -0.129  0.00  0.00    +0.000 A 
ATOM     10  C   UNL     1       5.337   1.169   0.053  0.00  0.00    +0.000 A 
ATOM     11  C   UNL     1       6.062   0.048   0.408  0.00  0.00    +0.000 A 
ATOM     12  C   UNL     1       5.357  -1.121   0.575  0.00  0.00    +0.000 A 
ATOM     13  C   UNL     1       4.000  -1.173   0.398  0.00  0.00    +0.000 A 
BRANCH  11  14
ATOM     14  O   UNL     1       7.455   0.098   0.591  0.00  0.00    +0.000 OA
ATOM     15  C   UNL     1       8.139   1.311   0.411  0.00  0.00    +0.000 C 
ENDBRANCH  11  14
ENDBRANCH   5   8
BRANCH   1  16
ATOM     16  N   UNL     1      -1.278  -1.713  -1.077  0.00  0.00    +0.000 NA
BRANCH  16  22
ATOM     17  C   UNL     1      -3.406  -2.853  -0.839  0.00  0.00    +0.000 A 
ATOM     18  C   UNL     1      -4.536  -3.115  -0.080  0.00  0.00    +0.000 A 
ATOM     19  C   UNL     1      -4.721  -2.554   1.156  0.00  0.00    +0.000 A 
ATOM     20  C   UNL     1      -3.745  -1.710   1.639  0.00  0.00    +0.000 A 
ATOM     21  C   UNL     1      -2.635  -1.459   0.882  0.00  0.00    +0.000 A 
ATOM     22  C   UNL     1      -2.435  -2.011  -0.356  0.00  0.00    +0.000 A 
BRANCH  17  23
ATOM     23  O   UNL     1      -3.308  -3.468  -2.080  0.00  0.00    +0.000 OA
BRANCH  23  25
ATOM     24  C   UNL     1      -5.639  -3.684  -2.709  0.00  0.00    +0.000 C 
ATOM     25  C   UNL     1      -4.301  -4.325  -2.569  0.00  0.00    +0.000 C 
ENDBRANCH  23  25
ENDBRANCH  17  23
ENDBRANCH  16  22
ENDBRANCH   1  16
BRANCH   2  26
ATOM     26  S   UNL     1      -1.930   1.260  -0.096  0.00  0.00    +0.000 S 
BRANCH  26  27
ATOM     27  C   UNL     1      -1.868   2.901   0.493  0.00  0.00    +0.000 A 
ATOM     28  C   UNL     1      -0.788   3.632   0.876  0.00  0.00    +0.000 A 
ATOM     29  C   UNL     1      -0.873   4.927   1.326  0.00  0.00    +0.000 A 
ATOM     30  C   UNL     1      -2.102   5.533   1.400  0.00  0.00    +0.000 A 
ATOM     31  C   UNL     1      -3.207   4.826   1.023  0.00  0.00    +0.000 A 
ATOM     32  C   UNL     1      -3.117   3.553   0.581  0.00  0.00    +0.000 A 
ENDBRANCH  26  27
ENDBRANCH   2  26
TORSDOF 8
