REMARK  Name = 
REMARK  6 active torsions:
REMARK  status: ('A' for Active; 'I' for Inactive)
REMARK    1  A    between atoms: C_5  and  C_7
REMARK    2  A    between atoms: C_7  and  O_8
REMARK    3  A    between atoms: O_8  and  C_9
REMARK    4  A    between atoms: C_9  and  C_11
REMARK    5  A    between atoms: C_14  and  N_15
REMARK    6  A    between atoms: N_16  and  C_17
REMARK                            x       y       z     vdW  Elec       q    Type
REMARK                         _______ _______ _______ _____ _____    ______ ____
ROOT
ATOM      1  C   UNL     1       1.286  -0.163   0.168  0.00  0.00    +0.000 A 
ATOM      2  C   UNL     1       0.812  -0.220   1.455  0.00  0.00    +0.000 A 
ATOM      3  C   UNL     1      -0.564  -0.358   1.697  0.00  0.00    +0.000 A 
ATOM      4  C   UNL     1      -1.449  -0.438   0.643  0.00  0.00    +0.000 A 
ATOM      5  C   UNL     1      -0.949  -0.379  -0.635  0.00  0.00    +0.000 A 
ATOM      6  C   UNL     1       0.423  -0.241  -0.900  0.00  0.00    +0.000 A 
ENDROOT
BRANCH   1   7
ATOM      7  C   UNL     1       2.706  -0.021  -0.068  0.00  0.00    +0.000 C 
ATOM      8  O   UNL     1       3.161   0.033  -1.244  0.00  0.00    +0.000 OA
BRANCH   7   9
ATOM      9  O   UNL     1       3.688   0.070   0.851  0.00  0.00    +0.000 OA
BRANCH   9  10
ATOM     10  C   UNL     1       4.923   0.194   1.070  0.00  0.00    +0.000 C 
BRANCH  10  15
ATOM     11  C   UNL     1       7.639  -0.705  -1.807  0.00  0.00    +0.000 C 
ATOM     12  C   UNL     1       6.532  -0.601  -0.616  0.00  0.00    +0.000 C 
ATOM     13  C   UNL     1       7.610  -0.800   0.575  0.00  0.00    +0.000 C 
ATOM     14  C   UNL     1       7.223   0.244   1.574  0.00  0.00    +0.000 C 
ATOM     15  C   UNL     1       6.034   1.016   0.907  0.00  0.00    +0.000 C 
ATOM     16  C   UNL     1       6.092   2.370   1.554  0.00  0.00    +0.000 C 
ATOM     17  C   UNL     1       6.616   1.009  -0.489  0.00  0.00    +0.000 C 
ATOM     18  C   UNL     1       5.852   1.659  -1.542  0.00  0.00    +0.000 C 
ATOM     19  C   UNL     1       8.077   1.367  -0.431  0.00  0.00    +0.000 C 
ENDBRANCH  10  15
ENDBRANCH   9  10
ENDBRANCH   7   9
ENDBRANCH   1   7
BRANCH   4  20
ATOM     20  N   UNL     1      -2.856  -0.579   0.888  0.00  0.00    +0.000 NA
ATOM     21  N   UNL     1      -3.605  -0.812  -0.081  0.00  0.00    +0.000 NA
BRANCH  21  22
ATOM     22  C   UNL     1      -4.988  -0.984  -0.069  0.00  0.00    +0.000 A 
ATOM     23  C   UNL     1      -5.511  -2.248   0.001  0.00  0.00    +0.000 A 
ATOM     24  O   UNL     1      -4.675  -3.379   0.060  0.00  0.00    +0.000 OA
ATOM     25  C   UNL     1      -6.886  -2.373   0.010  0.00  0.00    +0.000 A 
ATOM     26  C   UNL     1      -7.713  -1.268  -0.048  0.00  0.00    +0.000 A 
ATOM     27  C   UNL     1      -7.156   0.012  -0.118  0.00  0.00    +0.000 A 
ATOM     28  C   UNL     1      -7.972   1.131  -0.176  0.00  0.00    +0.000 A 
ATOM     29  C   UNL     1      -7.380   2.376  -0.245  0.00  0.00    +0.000 A 
ATOM     30  C   UNL     1      -5.999   2.512  -0.255  0.00  0.00    +0.000 A 
ATOM     31  C   UNL     1      -5.190   1.416  -0.198  0.00  0.00    +0.000 A 
ATOM     32  C   UNL     1      -5.785   0.159  -0.129  0.00  0.00    +0.000 A 
ENDBRANCH  21  22
ENDBRANCH   4  20
TORSDOF 6
