REMARK  Name = 
REMARK  7 active torsions:
REMARK  status: ('A' for Active; 'I' for Inactive)
REMARK    1  A    between atoms: O_2  and  C_3
REMARK    2  A    between atoms: C_6  and  C_7
REMARK    3  A    between atoms: C_7  and  N_8
REMARK    4  A    between atoms: N_8  and  C_10
REMARK    5  A    between atoms: C_14  and  C_15
REMARK    6  A    between atoms: C_19  and  N_20
REMARK    7  A    between atoms: C_21  and  C_23
REMARK                            x       y       z     vdW  Elec       q    Type
REMARK                         _______ _______ _______ _____ _____    ______ ____
ROOT
ATOM      1  C   UNL     1      -2.785  -1.847   0.467  0.00  0.00    +0.000 A 
ATOM      2  C   UNL     1      -3.067  -0.597  -0.026  0.00  0.00    +0.000 A 
ATOM      3  C   UNL     1      -2.026   0.279  -0.208  0.00  0.00    +0.000 A 
ATOM      4  N   UNL     1      -0.779  -0.098   0.095  0.00  0.00    +0.000 NA
ATOM      5  C   UNL     1      -0.472  -1.328   0.583  0.00  0.00    +0.000 A 
ATOM      6  N   UNL     1      -1.514  -2.160   0.749  0.00  0.00    +0.000 NA
ENDROOT
BRANCH   5   7
ATOM      7  C   UNL     1       0.890  -1.708   0.902  0.00  0.00    +0.000 A 
ATOM      8  C   UNL     1       1.115  -2.973   1.393  0.00  0.00    +0.000 A 
ATOM      9  C   UNL     1       2.398  -3.406   1.720  0.00  0.00    +0.000 A 
ATOM     10  C   UNL     1       3.470  -2.568   1.556  0.00  0.00    +0.000 A 
ATOM     11  C   UNL     1       3.248  -1.304   1.067  0.00  0.00    +0.000 A 
ATOM     12  C   UNL     1       1.969  -0.875   0.741  0.00  0.00    +0.000 A 
BRANCH  11  13
ATOM     13  N   UNL     1       4.382  -0.464   0.910  0.00  0.00    +0.000 NA
ATOM     14  C   UNL     1       4.180   0.845   0.406  0.00  0.00    +0.000 C 
ATOM     15  O   UNL     1       3.016   1.207   0.121  0.00  0.00    +0.000 OA
BRANCH  14  16
ATOM     16  C   UNL     1       5.269   1.783   0.208  0.00  0.00    +0.000 A 
ATOM     17  C   UNL     1       6.587   1.457   0.501  0.00  0.00    +0.000 A 
ATOM     18  C   UNL     1       7.598   2.372   0.302  0.00  0.00    +0.000 A 
ATOM     19  C   UNL     1       7.358   3.635  -0.190  0.00  0.00    +0.000 A 
ATOM     20  C   UNL     1       8.456   4.625  -0.406  0.00  0.00    +0.000 C 
ATOM     21  C   UNL     1       6.052   3.966  -0.483  0.00  0.00    +0.000 A 
ATOM     22  C   UNL     1       5.044   3.050  -0.283  0.00  0.00    +0.000 A 
ENDBRANCH  14  16
ENDBRANCH  11  13
ENDBRANCH   5   7
BRANCH   1  23
ATOM     23  N   UNL     1      -3.795  -2.791   0.677  0.00  0.00    +0.000 N 
ATOM     24  C   UNL     1      -3.446  -4.111   1.205  0.00  0.00    +0.000 C 
BRANCH  23  25
ATOM     25  C   UNL     1      -5.201  -2.589   0.418  0.00  0.00    +0.000 C 
BRANCH  25  29
ATOM     26  C   UNL     1      -6.145   1.300  -0.966  0.00  0.00    +0.000 A 
ATOM     27  C   UNL     1      -6.122   1.016   0.403  0.00  0.00    +0.000 A 
ATOM     28  C   UNL     1      -5.810  -0.261   0.802  0.00  0.00    +0.000 A 
ATOM     29  C   UNL     1      -5.524  -1.246  -0.115  0.00  0.00    +0.000 A 
ATOM     30  C   UNL     1      -5.553  -0.946  -1.446  0.00  0.00    +0.000 A 
ATOM     31  C   UNL     1      -5.859   0.312  -1.872  0.00  0.00    +0.000 A 
BRANCH  26  33
ATOM     32  C   UNL     1      -6.475   2.845  -2.776  0.00  0.00    +0.000 C 
ATOM     33  O   UNL     1      -6.457   2.581  -1.393  0.00  0.00    +0.000 OA
ENDBRANCH  26  33
ENDBRANCH  25  29
ENDBRANCH  23  25
ENDBRANCH   1  23
TORSDOF 7
