REMARK  Name = 
REMARK  9 active torsions:
REMARK  status: ('A' for Active; 'I' for Inactive)
REMARK    1  A    between atoms: C_6  and  N_7
REMARK    2  A    between atoms: C_8  and  C_10
REMARK    3  A    between atoms: C_10  and  O_12
REMARK    4  A    between atoms: O_12  and  C_13
REMARK    5  A    between atoms: C_13  and  C_15
REMARK    6  A    between atoms: C_15  and  C_16
REMARK    7  A    between atoms: C_16  and  C_17
REMARK    8  A    between atoms: C_17  and  O_18
REMARK    9  A    between atoms: O_18  and  C_19
REMARK                            x       y       z     vdW  Elec       q    Type
REMARK                         _______ _______ _______ _____ _____    ______ ____
ROOT
ATOM      1  C   UNL     1      -0.069  -0.627   0.744  0.00  0.00    +0.000 C 
ATOM      2  O   UNL     1      -0.522   0.509   0.470  0.00  0.00    +0.000 OA
ENDROOT
BRANCH   1   3
ATOM      3  O   UNL     1       1.280  -0.835   0.519  0.00  0.00    +0.000 OA
BRANCH   3   4
ATOM      4  C   UNL     1       2.075   0.338  -0.037  0.00  0.00    +0.000 C 
ATOM      5  C   UNL     1       2.352   0.999   1.446  0.00  0.00    +0.000 C 
BRANCH   4   7
ATOM      6  N   UNL     1       4.563   0.386  -0.592  0.00  0.00    +0.000 NA
ATOM      7  C   UNL     1       3.474  -0.415  -0.093  0.00  0.00    +0.000 C 
ATOM      8  O   UNL     1       3.634  -1.566   0.249  0.00  0.00    +0.000 OA
BRANCH   6  14
ATOM      9  C   UNL     1       9.362   0.681  -1.728  0.00  0.00    +0.000 C 
ATOM     10  C   UNL     1       8.185  -0.086  -1.222  0.00  0.00    +0.000 A 
ATOM     11  C   UNL     1       8.385  -1.390  -0.838  0.00  0.00    +0.000 A 
ATOM     12  C   UNL     1       7.310  -2.108  -0.370  0.00  0.00    +0.000 A 
ATOM     13  C   UNL     1       6.058  -1.536  -0.286  0.00  0.00    +0.000 A 
ATOM     14  C   UNL     1       5.836  -0.232  -0.665  0.00  0.00    +0.000 A 
ATOM     15  C   UNL     1       6.932   0.460  -1.129  0.00  0.00    +0.000 A 
ATOM     16  C   UNL     1       6.730   1.870  -1.547  0.00  0.00    +0.000 C 
ENDBRANCH   6  14
ENDBRANCH   4   7
ENDBRANCH   3   4
ENDBRANCH   1   3
BRANCH   1  17
ATOM     17  C   UNL     1      -0.857  -1.741   1.279  0.00  0.00    +0.000 C 
BRANCH  17  18
ATOM     18  C   UNL     1      -2.290  -1.471   1.501  0.00  0.00    +0.000 C 
BRANCH  18  19
ATOM     19  C   UNL     1      -2.606  -0.367   2.460  0.00  0.00    +0.000 C 
BRANCH  19  20
ATOM     20  O   UNL     1      -4.018  -0.272   2.529  0.00  0.00    +0.000 OA
BRANCH  20  21
ATOM     21  C   UNL     1      -4.802   0.004   1.419  0.00  0.00    +0.000 A 
ATOM     22  C   UNL     1      -4.184   0.192   0.211  0.00  0.00    +0.000 A 
ATOM     23  C   UNL     1      -4.872   0.471  -0.954  0.00  0.00    +0.000 A 
ATOM     24  C   UNL     1      -6.257   0.560  -0.863  0.00  0.00    +0.000 A 
ATOM     25  C   UNL     1      -6.997   0.841  -2.014  0.00  0.00    +0.000 A 
ATOM     26  C   UNL     1      -8.377   0.935  -1.957  0.00  0.00    +0.000 A 
ATOM     27  C   UNL     1      -9.008   0.749  -0.748  0.00  0.00    +0.000 A 
ATOM     28  C   UNL     1      -8.253   0.469   0.392  0.00  0.00    +0.000 A 
ATOM     29  C   UNL     1      -6.892   0.377   0.329  0.00  0.00    +0.000 A 
ATOM     30  C   UNL     1      -6.173   0.095   1.494  0.00  0.00    +0.000 A 
ENDBRANCH  20  21
ENDBRANCH  19  20
ENDBRANCH  18  19
ENDBRANCH  17  18
ENDBRANCH   1  17
TORSDOF 9
