REMARK  Name = 
REMARK  6 active torsions:
REMARK  status: ('A' for Active; 'I' for Inactive)
REMARK    1  A    between atoms: O_2  and  C_3
REMARK    2  A    between atoms: C_6  and  C_7
REMARK    3  A    between atoms: C_9  and  C_10
REMARK    4  A    between atoms: N_13  and  C_14
REMARK    5  A    between atoms: C_14  and  C_15
REMARK    6  A    between atoms: C_15  and  C_16
REMARK                            x       y       z     vdW  Elec       q    Type
REMARK                         _______ _______ _______ _____ _____    ______ ____
ROOT
ATOM      1  C   UNL     1       0.204   0.624  -2.050  0.00  0.00    +0.000 C 
ATOM      2  C   UNL     1       0.082   1.816  -1.154  0.00  0.00    +0.000 C 
ATOM      3  C   UNL     1      -0.522   1.569   0.168  0.00  0.00    +0.000 C 
ATOM      4  N   UNL     1      -1.169   0.353   0.398  0.00  0.00    +0.000 NA
ATOM      5  C   UNL     1      -0.830  -0.784  -0.360  0.00  0.00    +0.000 C 
ATOM      6  C   UNL     1      -0.814  -0.431  -1.817  0.00  0.00    +0.000 C 
ENDROOT
BRANCH   1   9
ATOM      7  C   UNL     1       3.752  -0.121  -1.516  0.00  0.00    +0.000 A 
ATOM      8  C   UNL     1       2.564   0.479  -1.162  0.00  0.00    +0.000 A 
ATOM      9  C   UNL     1       1.594   0.148  -2.119  0.00  0.00    +0.000 A 
ATOM     10  N   UNL     1       2.223  -0.626  -2.999  0.00  0.00    +0.000 NA
ATOM     11  N   UNL     1       3.494  -0.790  -2.652  0.00  0.00    +0.000 NA
BRANCH   7  15
ATOM     12  C   UNL     1       7.461   0.121   0.588  0.00  0.00    +0.000 A 
ATOM     13  C   UNL     1       7.351  -0.608  -0.575  0.00  0.00    +0.000 A 
ATOM     14  C   UNL     1       6.148  -0.683  -1.253  0.00  0.00    +0.000 A 
ATOM     15  C   UNL     1       5.018  -0.037  -0.797  0.00  0.00    +0.000 A 
ATOM     16  C   UNL     1       5.151   0.686   0.367  0.00  0.00    +0.000 A 
ATOM     17  C   UNL     1       6.341   0.775   1.060  0.00  0.00    +0.000 A 
BRANCH  12  19
ATOM     18  C   UNL     1       9.803  -0.444   0.823  0.00  0.00    +0.000 C 
ATOM     19  O   UNL     1       8.652   0.217   1.292  0.00  0.00    +0.000 OA
ENDBRANCH  12  19
ENDBRANCH   7  15
ENDBRANCH   1   9
BRANCH   4  20
ATOM     20  C   UNL     1      -2.427   0.365   1.060  0.00  0.00    +0.000 C 
BRANCH  20  21
ATOM     21  C   UNL     1      -3.458   1.011   0.151  0.00  0.00    +0.000 C 
BRANCH  21  22
ATOM     22  C   UNL     1      -4.754   1.017   0.859  0.00  0.00    +0.000 A 
ATOM     23  C   UNL     1      -5.290   2.144   1.442  0.00  0.00    +0.000 A 
ATOM     24  C   UNL     1      -6.517   2.044   2.088  0.00  0.00    +0.000 A 
ATOM     25  C   UNL     1      -7.205   0.862   2.160  0.00  0.00    +0.000 A 
ATOM     26  C   UNL     1      -6.672  -0.267   1.577  0.00  0.00    +0.000 A 
ATOM     27  C   UNL     1      -7.359  -1.474   1.642  0.00  0.00    +0.000 A 
ATOM     28  C   UNL     1      -6.825  -2.601   1.060  0.00  0.00    +0.000 A 
ATOM     29  C   UNL     1      -5.615  -2.488   0.427  0.00  0.00    +0.000 A 
ATOM     30  C   UNL     1      -4.918  -1.304   0.350  0.00  0.00    +0.000 A 
ATOM     31  C   UNL     1      -5.462  -0.179   0.938  0.00  0.00    +0.000 A 
ENDBRANCH  21  22
ENDBRANCH  20  21
ENDBRANCH   4  20
TORSDOF 6
