REMARK  Name = 
REMARK  8 active torsions:
REMARK  status: ('A' for Active; 'I' for Inactive)
REMARK    1  A    between atoms: C_2  and  N_3
REMARK    2  A    between atoms: C_2  and  C_25
REMARK    3  A    between atoms: N_3  and  N_4
REMARK    4  A    between atoms: C_5  and  C_7
REMARK    5  A    between atoms: C_10  and  C_11
REMARK    6  A    between atoms: C_11  and  O_12
REMARK    7  A    between atoms: O_12  and  C_13
REMARK    8  A    between atoms: C_16  and  C_17
REMARK                            x       y       z     vdW  Elec       q    Type
REMARK                         _______ _______ _______ _____ _____    ______ ____
ROOT
ATOM      1  C   UNL     1      -0.855  -0.489   0.248  0.00  0.00    +0.000 A 
ATOM      2  C   UNL     1       0.013  -0.136   1.235  0.00  0.00    +0.000 A 
ATOM      3  C   UNL     1       1.188  -0.843   1.528  0.00  0.00    +0.000 A 
ATOM      4  C   UNL     1       1.562  -1.944   0.846  0.00  0.00    +0.000 A 
ATOM      5  C   UNL     1       0.671  -2.347  -0.197  0.00  0.00    +0.000 A 
ATOM      6  C   UNL     1      -0.452  -1.659  -0.467  0.00  0.00    +0.000 A 
ENDROOT
BRANCH   1   8
ATOM      7  N   UNL     1      -2.807   1.162   0.399  0.00  0.00    +0.000 NA
ATOM      8  C   UNL     1      -2.055   0.133  -0.201  0.00  0.00    +0.000 C 
ATOM      9  O   UNL     1      -2.585  -0.266  -1.344  0.00  0.00    +0.000 OA
BRANCH   7  10
ATOM     10  N   UNL     1      -3.970   1.633  -0.294  0.00  0.00    +0.000 NA
BRANCH  10  12
ATOM     11  C   UNL     1      -5.377   2.692   1.247  0.00  0.00    +0.000 C 
ATOM     12  C   UNL     1      -5.240   1.726   0.313  0.00  0.00    +0.000 C 
BRANCH  12  13
ATOM     13  C   UNL     1      -6.366   0.850  -0.019  0.00  0.00    +0.000 A 
ATOM     14  C   UNL     1      -7.423   0.764   0.855  0.00  0.00    +0.000 A 
ATOM     15  C   UNL     1      -8.500  -0.025   0.609  0.00  0.00    +0.000 A 
ATOM     16  C   UNL     1      -8.561  -0.770  -0.540  0.00  0.00    +0.000 A 
ATOM     17  C   UNL     1      -7.505  -0.684  -1.411  0.00  0.00    +0.000 A 
ATOM     18  C   UNL     1      -6.393   0.117  -1.178  0.00  0.00    +0.000 A 
ATOM     19  F   UNL     1      -5.391   0.177  -2.073  0.00  0.00    +0.000 F 
ENDBRANCH  12  13
ENDBRANCH  10  12
ENDBRANCH   7  10
ENDBRANCH   1   8
BRANCH   4  20
ATOM     20  C   UNL     1       2.745  -2.820   1.006  0.00  0.00    +0.000 C 
BRANCH  20  21
ATOM     21  O   UNL     1       3.762  -2.541   0.144  0.00  0.00    +0.000 OA
BRANCH  21  22
ATOM     22  C   UNL     1       4.594  -1.506   0.084  0.00  0.00    +0.000 A 
ATOM     23  C   UNL     1       5.519  -1.459  -0.970  0.00  0.00    +0.000 A 
ATOM     24  C   UNL     1       6.375  -0.418  -1.018  0.00  0.00    +0.000 A 
ATOM     25  C   UNL     1       6.422   0.595  -0.127  0.00  0.00    +0.000 A 
ATOM     26  C   UNL     1       5.503   0.578   0.942  0.00  0.00    +0.000 A 
ATOM     27  C   UNL     1       4.621  -0.485   0.997  0.00  0.00    +0.000 A 
BRANCH  25  28
ATOM     28  C   UNL     1       7.417   1.733  -0.234  0.00  0.00    +0.000 C 
ATOM     29  C   UNL     1       8.132   1.634  -1.545  0.00  0.00    +0.000 C 
ATOM     30  C   UNL     1       8.331   1.576   0.967  0.00  0.00    +0.000 C 
ATOM     31  C   UNL     1       6.621   3.022  -0.081  0.00  0.00    +0.000 C 
ENDBRANCH  25  28
ENDBRANCH  21  22
ENDBRANCH  20  21
ENDBRANCH   4  20
TORSDOF 8
