REMARK  Name = 
REMARK  6 active torsions:
REMARK  status: ('A' for Active; 'I' for Inactive)
REMARK    1  A    between atoms: C_2  and  O_3
REMARK    2  A    between atoms: O_3  and  C_4
REMARK    3  A    between atoms: C_7  and  C_8
REMARK    4  A    between atoms: C_18  and  O_19
REMARK    5  A    between atoms: O_19  and  C_20
REMARK    6  A    between atoms: C_20  and  C_21
REMARK                            x       y       z     vdW  Elec       q    Type
REMARK                         _______ _______ _______ _____ _____    ______ ____
ROOT
ATOM      1  C   UNL     1      -3.322   0.280   1.664  0.00  0.00    +0.000 C 
ATOM      2  N   UNL     1      -4.001   1.067   0.430  0.00  0.00    +0.000 NA
ATOM      3  C   UNL     1      -3.442   0.543  -0.759  0.00  0.00    +0.000 C 
ATOM      4  C   UNL     1      -2.274   1.519  -1.015  0.00  0.00    +0.000 C 
ATOM      5  C   UNL     1      -1.431   1.211   0.187  0.00  0.00    +0.000 A 
ATOM      6  C   UNL     1      -1.835   0.691   1.325  0.00  0.00    +0.000 A 
ATOM      7  N   UNL     1      -0.794   0.572   2.134  0.00  0.00    +0.000 NA
ATOM      8  C   UNL     1       0.342   1.016   1.542  0.00  0.00    +0.000 A 
ATOM      9  C   UNL     1       1.666   1.118   1.923  0.00  0.00    +0.000 A 
ATOM     10  C   UNL     1       2.585   1.638   1.034  0.00  0.00    +0.000 A 
ATOM     11  C   UNL     1       2.237   2.063  -0.224  0.00  0.00    +0.000 A 
ATOM     12  C   UNL     1       0.900   1.946  -0.571  0.00  0.00    +0.000 A 
ATOM     13  C   UNL     1      -0.053   1.437   0.274  0.00  0.00    +0.000 A 
ENDROOT
BRANCH   1  17
ATOM     14  C   UNL     1      -3.420  -3.638  -0.291  0.00  0.00    +0.000 A 
ATOM     15  C   UNL     1      -4.505  -2.798  -0.319  0.00  0.00    +0.000 A 
ATOM     16  C   UNL     1      -4.468  -1.557   0.303  0.00  0.00    +0.000 A 
ATOM     17  C   UNL     1      -3.329  -1.148   0.963  0.00  0.00    +0.000 A 
ATOM     18  C   UNL     1      -2.289  -1.983   0.975  0.00  0.00    +0.000 A 
ATOM     19  C   UNL     1      -2.298  -3.218   0.367  0.00  0.00    +0.000 A 
BRANCH  14  20
ATOM     20  O   UNL     1      -3.465  -4.909  -0.931  0.00  0.00    +0.000 OA
BRANCH  20  22
ATOM     21  C   UNL     1      -4.989  -4.386  -2.748  0.00  0.00    +0.000 C 
ATOM     22  C   UNL     1      -4.624  -5.334  -1.607  0.00  0.00    +0.000 C 
ENDBRANCH  20  22
ENDBRANCH  14  20
ENDBRANCH   1  17
BRANCH  11  23
ATOM     23  O   UNL     1       3.108   2.588  -1.150  0.00  0.00    +0.000 OA
BRANCH  23  24
ATOM     24  C   UNL     1       4.471   2.774  -0.969  0.00  0.00    +0.000 C 
BRANCH  24  25
ATOM     25  C   UNL     1       5.176   1.510  -0.689  0.00  0.00    +0.000 A 
ATOM     26  C   UNL     1       4.527   0.301  -0.634  0.00  0.00    +0.000 A 
ATOM     27  C   UNL     1       5.206  -0.887  -0.369  0.00  0.00    +0.000 A 
ATOM     28  C   UNL     1       6.561  -0.832  -0.159  0.00  0.00    +0.000 A 
ATOM     29  C   UNL     1       7.224   0.362  -0.210  0.00  0.00    +0.000 A 
ATOM     30  C   UNL     1       6.536   1.556  -0.477  0.00  0.00    +0.000 A 
ENDBRANCH  24  25
ENDBRANCH  23  24
ENDBRANCH  11  23
TORSDOF 6
