REMARK  Name = 
REMARK  8 active torsions:
REMARK  status: ('A' for Active; 'I' for Inactive)
REMARK    1  A    between atoms: C_2  and  N_3
REMARK    2  A    between atoms: C_4  and  S_5
REMARK    3  A    between atoms: S_5  and  C_6
REMARK    4  A    between atoms: C_6  and  C_7
REMARK    5  A    between atoms: C_7  and  C_9
REMARK    6  A    between atoms: C_9  and  N_10
REMARK    7  A    between atoms: C_25  and  C_26
REMARK    8  A    between atoms: C_29  and  O_30
REMARK                            x       y       z     vdW  Elec       q    Type
REMARK                         _______ _______ _______ _____ _____    ______ ____
ROOT
ATOM      1  C   UNL     1      -1.778  -2.434  -1.006  0.00  0.00    +0.000 C 
ENDROOT
BRANCH   1   2
ATOM      2  C   UNL     1      -1.859  -1.569  -2.402  0.00  0.00    +0.000 C 
ATOM      3  O   UNL     1      -3.411  -1.595  -2.406  0.00  0.00    +0.000 OA
BRANCH   2   4
ATOM      4  C   UNL     1      -1.753  -0.117  -1.622  0.00  0.00    +0.000 C 
BRANCH   4   5
ATOM      5  N   UNL     1      -2.843   0.033  -0.733  0.00  0.00    +0.000 N 
ATOM      6  C   UNL     1      -2.955  -0.311   0.551  0.00  0.00    +0.000 A 
ATOM      7  C   UNL     1      -2.118  -0.907   1.475  0.00  0.00    +0.000 A 
ATOM      8  C   UNL     1      -2.525  -1.139   2.767  0.00  0.00    +0.000 A 
ATOM      9  C   UNL     1      -3.796  -0.766   3.137  0.00  0.00    +0.000 A 
ATOM     10  C   UNL     1      -4.662  -0.176   2.271  0.00  0.00    +0.000 A 
ATOM     11  C   UNL     1      -4.232   0.048   0.978  0.00  0.00    +0.000 A 
ATOM     12  C   UNL     1      -4.891   0.625  -0.101  0.00  0.00    +0.000 A 
ATOM     13  C   UNL     1      -6.158   1.157  -0.265  0.00  0.00    +0.000 A 
ATOM     14  C   UNL     1      -6.586   1.680  -1.458  0.00  0.00    +0.000 A 
ATOM     15  C   UNL     1      -5.678   1.644  -2.490  0.00  0.00    +0.000 A 
ATOM     16  C   UNL     1      -4.417   1.124  -2.361  0.00  0.00    +0.000 A 
ATOM     17  C   UNL     1      -4.024   0.607  -1.144  0.00  0.00    +0.000 A 
ENDBRANCH   4   5
ENDBRANCH   2   4
ENDBRANCH   1   2
BRANCH   1  18
ATOM     18  S   UNL     1      -0.076  -2.639  -0.729  0.00  0.00    +0.000 S 
BRANCH  18  20
ATOM     19  N   UNL     1       2.200  -1.234  -0.106  0.00  0.00    +0.000 N 
ATOM     20  C   UNL     1       0.873  -1.191  -0.332  0.00  0.00    +0.000 A 
ATOM     21  N   UNL     1       0.532   0.096  -0.180  0.00  0.00    +0.000 NA
ATOM     22  N   UNL     1       1.617   0.808   0.128  0.00  0.00    +0.000 NA
ATOM     23  C   UNL     1       2.678  -0.014   0.178  0.00  0.00    +0.000 A 
BRANCH  23  24
ATOM     24  C   UNL     1       4.076   0.344   0.482  0.00  0.00    +0.000 A 
ATOM     25  C   UNL     1       4.470   1.613   0.759  0.00  0.00    +0.000 A 
ATOM     26  C   UNL     1       5.784   1.922   1.040  0.00  0.00    +0.000 A 
ATOM     27  C   UNL     1       6.769   0.956   1.054  0.00  0.00    +0.000 A 
ATOM     28  C   UNL     1       6.391  -0.340   0.775  0.00  0.00    +0.000 A 
ATOM     29  C   UNL     1       5.069  -0.618   0.498  0.00  0.00    +0.000 A 
BRANCH  27  30
ATOM     30  O   UNL     1       8.091   1.200   1.326  0.00  0.00    +0.000 OA
ATOM     31  C   UNL     1       8.551   2.514   1.622  0.00  0.00    +0.000 C 
ENDBRANCH  27  30
ENDBRANCH  23  24
BRANCH  19  33
ATOM     32  C   UNL     1       3.602  -2.613  -1.557  0.00  0.00    +0.000 C 
ATOM     33  C   UNL     1       3.054  -2.419  -0.151  0.00  0.00    +0.000 C 
ENDBRANCH  19  33
ENDBRANCH  18  20
ENDBRANCH   1  18
TORSDOF 8
