REMARK  Name = 
REMARK  6 active torsions:
REMARK  status: ('A' for Active; 'I' for Inactive)
REMARK    1  A    between atoms: C_2  and  O_4
REMARK    2  A    between atoms: O_4  and  C_5
REMARK    3  A    between atoms: C_8  and  N_9
REMARK    4  A    between atoms: C_10  and  C_12
REMARK    5  A    between atoms: C_13  and  N_14
REMARK    6  A    between atoms: C_15  and  C_17
REMARK                            x       y       z     vdW  Elec       q    Type
REMARK                         _______ _______ _______ _____ _____    ______ ____
ROOT
ATOM      1  C   UNL     1      -1.091  -1.512  -0.472  0.00  0.00    +0.000 A 
ATOM      2  C   UNL     1      -2.295  -0.859  -0.469  0.00  0.00    +0.000 A 
ATOM      3  S   UNL     1      -3.419  -2.070  -0.839  0.00  0.00    +0.000 S 
ATOM      4  C   UNL     1      -2.340  -3.396  -0.992  0.00  0.00    +0.000 A 
ATOM      5  C   UNL     1      -1.124  -2.842  -0.747  0.00  0.00    +0.000 A 
ATOM      6  C   UNL     1       0.117  -3.745  -0.796  0.00  0.00    +0.000 C 
ATOM      7  C   UNL     1      -0.328  -5.127  -0.464  0.00  0.00    +0.000 C 
ATOM      8  C   UNL     1      -1.289  -5.531  -1.592  0.00  0.00    +0.000 C 
ATOM      9  C   UNL     1      -2.574  -4.855  -1.313  0.00  0.00    +0.000 C 
ENDROOT
BRANCH   1  11
ATOM     10  N   UNL     1       1.431  -1.338  -0.162  0.00  0.00    +0.000 NA
ATOM     11  C   UNL     1       0.150  -0.726  -0.176  0.00  0.00    +0.000 C 
ATOM     12  O   UNL     1       0.123   0.487   0.069  0.00  0.00    +0.000 OA
BRANCH  10  16
ATOM     13  C   UNL     1       4.839   1.008   0.687  0.00  0.00    +0.000 A 
ATOM     14  C   UNL     1       4.949  -0.337   0.424  0.00  0.00    +0.000 A 
ATOM     15  C   UNL     1       3.859  -1.131   0.144  0.00  0.00    +0.000 A 
ATOM     16  C   UNL     1       2.609  -0.563   0.124  0.00  0.00    +0.000 A 
ATOM     17  C   UNL     1       2.477   0.781   0.384  0.00  0.00    +0.000 A 
ATOM     18  C   UNL     1       3.577   1.552   0.661  0.00  0.00    +0.000 A 
BRANCH  13  19
ATOM     19  O   UNL     1       5.918   1.806   0.968  0.00  0.00    +0.000 OA
BRANCH  19  21
ATOM     20  C   UNL     1       8.284   2.209   1.307  0.00  0.00    +0.000 C 
ATOM     21  C   UNL     1       7.202   1.203   0.984  0.00  0.00    +0.000 C 
ATOM     22  C   UNL     1       7.464   0.732  -0.445  0.00  0.00    +0.000 C 
ENDBRANCH  19  21
ENDBRANCH  13  19
ENDBRANCH  10  16
ENDBRANCH   1  11
BRANCH   2  23
ATOM     23  N   UNL     1      -2.553   0.548  -0.209  0.00  0.00    +0.000 NA
ATOM     24  C   UNL     1      -3.883   1.014  -0.259  0.00  0.00    +0.000 C 
ATOM     25  O   UNL     1      -4.806   0.206  -0.524  0.00  0.00    +0.000 OA
BRANCH  24  26
ATOM     26  C   UNL     1      -4.231   2.405  -0.013  0.00  0.00    +0.000 A 
ATOM     27  C   UNL     1      -5.526   2.840  -0.064  0.00  0.00    +0.000 A 
ATOM     28  C   UNL     1      -5.848   4.154   0.170  0.00  0.00    +0.000 A 
ATOM     29  C   UNL     1      -4.870   5.087   0.466  0.00  0.00    +0.000 A 
ATOM     30  C   UNL     1      -3.579   4.655   0.518  0.00  0.00    +0.000 A 
ATOM     31  C   UNL     1      -3.244   3.343   0.287  0.00  0.00    +0.000 A 
ENDBRANCH  24  26
ENDBRANCH   2  23
TORSDOF 6
