REMARK  Name = 
REMARK  5 active torsions:
REMARK  status: ('A' for Active; 'I' for Inactive)
REMARK    1  A    between atoms: C_4  and  N_5
REMARK    2  A    between atoms: C_13  and  C_14
REMARK    3  A    between atoms: C_15  and  C_16
REMARK    4  A    between atoms: C_26  and  O_27
REMARK    5  A    between atoms: O_27  and  C_28
REMARK                            x       y       z     vdW  Elec       q    Type
REMARK                         _______ _______ _______ _____ _____    ______ ____
ROOT
ATOM      1  N   UNL     1       0.034  -0.622   0.196  0.00  0.00    +0.000 NA
ATOM      2  C   UNL     1       0.348  -2.000   0.070  0.00  0.00    +0.000 A 
ATOM      3  N   UNL     1      -0.536  -3.005   0.178  0.00  0.00    +0.000 NA
ATOM      4  C   UNL     1      -0.207  -4.302   0.054  0.00  0.00    +0.000 A 
ATOM      5  N   UNL     1       1.069  -4.622  -0.192  0.00  0.00    +0.000 NA
ATOM      6  C   UNL     1       2.026  -3.690  -0.316  0.00  0.00    +0.000 A 
ATOM      7  C   UNL     1       3.348  -4.010  -0.570  0.00  0.00    +0.000 A 
ATOM      8  C   UNL     1       4.242  -2.973  -0.677  0.00  0.00    +0.000 A 
ATOM      9  C   UNL     1       3.903  -1.645  -0.549  0.00  0.00    +0.000 A 
ATOM     10  C   UNL     1       2.587  -1.330  -0.298  0.00  0.00    +0.000 A 
ATOM     11  C   UNL     1       1.662  -2.340  -0.183  0.00  0.00    +0.000 A 
ENDROOT
BRANCH   1  15
ATOM     12  C   UNL     1      -3.558   2.719   1.018  0.00  0.00    +0.000 C 
ATOM     13  C   UNL     1      -3.090   1.325   0.855  0.00  0.00    +0.000 A 
ATOM     14  C   UNL     1      -1.747   1.026   0.599  0.00  0.00    +0.000 A 
ATOM     15  C   UNL     1      -1.336  -0.279   0.460  0.00  0.00    +0.000 A 
ATOM     16  C   UNL     1      -2.320  -1.250   0.587  0.00  0.00    +0.000 A 
ATOM     17  C   UNL     1      -3.625  -0.982   0.835  0.00  0.00    +0.000 A 
ATOM     18  C   UNL     1      -4.018   0.316   0.971  0.00  0.00    +0.000 A 
BRANCH  18  19
ATOM     19  O   UNL     1      -5.353   0.571   1.223  0.00  0.00    +0.000 OA
BRANCH  19  20
ATOM     20  C   UNL     1      -6.054   1.324   0.294  0.00  0.00    +0.000 A 
ATOM     21  C   UNL     1      -5.492   1.791  -0.874  0.00  0.00    +0.000 A 
ATOM     22  C   UNL     1      -6.176   2.541  -1.809  0.00  0.00    +0.000 A 
ATOM     23  C   UNL     1      -7.500   2.862  -1.594  0.00  0.00    +0.000 A 
ATOM     24  C   UNL     1      -8.084   2.406  -0.432  0.00  0.00    +0.000 A 
ATOM     25  C   UNL     1      -7.395   1.656   0.498  0.00  0.00    +0.000 A 
ENDBRANCH  19  20
ENDBRANCH  18  19
ENDBRANCH   1  15
BRANCH   9  26
ATOM     26  C   UNL     1       4.921  -0.603  -0.680  0.00  0.00    +0.000 C 
ATOM     27  C   UNL     1       5.758   0.224  -0.792  0.00  0.00    +0.000 C 
BRANCH  27  28
ATOM     28  C   UNL     1       6.880   1.285  -0.953  0.00  0.00    +0.000 C 
ATOM     29  C   UNL     1       6.908   1.763   0.600  0.00  0.00    +0.000 C 
ATOM     30  C   UNL     1       6.779   3.239   0.658  0.00  0.00    +0.000 C 
ATOM     31  C   UNL     1       5.287   3.516   0.557  0.00  0.00    +0.000 C 
ATOM     32  N   UNL     1       4.839   2.616  -0.515  0.00  0.00    +0.000 NA
ATOM     33  C   UNL     1       5.902   2.471  -1.481  0.00  0.00    +0.000 C 
ENDBRANCH  27  28
ENDBRANCH   9  26
TORSDOF 5
