REMARK  Name = 
REMARK  7 active torsions:
REMARK  status: ('A' for Active; 'I' for Inactive)
REMARK    1  A    between atoms: C_2  and  C_3
REMARK    2  A    between atoms: C_8  and  S_9
REMARK    3  A    between atoms: S_9  and  C_10
REMARK    4  A    between atoms: C_10  and  C_11
REMARK    5  A    between atoms: N_13  and  C_14
REMARK    6  A    between atoms: C_17  and  O_18
REMARK    7  A    between atoms: C_23  and  C_24
REMARK                            x       y       z     vdW  Elec       q    Type
REMARK                         _______ _______ _______ _____ _____    ______ ____
ROOT
ATOM      1  C   UNL     1      -4.794  -1.346   0.326  0.00  0.00    +0.000 A 
ATOM      2  C   UNL     1      -5.117  -2.671   0.485  0.00  0.00    +0.000 A 
ATOM      3  C   UNL     1      -4.162  -3.522   0.973  0.00  0.00    +0.000 A 
ATOM      4  C   UNL     1      -2.915  -3.024   1.288  0.00  0.00    +0.000 A 
ATOM      5  C   UNL     1      -2.585  -1.697   1.131  0.00  0.00    +0.000 A 
ATOM      6  C   UNL     1      -1.320  -1.242   1.461  0.00  0.00    +0.000 A 
ATOM      7  N   UNL     1      -1.043   0.053   1.292  0.00  0.00    +0.000 NA
ATOM      8  C   UNL     1      -1.975   0.903   0.810  0.00  0.00    +0.000 A 
ATOM      9  N   UNL     1      -3.197   0.443   0.496  0.00  0.00    +0.000 NA
ATOM     10  C   UNL     1      -3.556  -0.840   0.636  0.00  0.00    +0.000 A 
ENDROOT
BRANCH   8  11
ATOM     11  C   UNL     1      -1.700   2.313   0.593  0.00  0.00    +0.000 A 
ATOM     12  C   UNL     1      -0.459   2.882   0.833  0.00  0.00    +0.000 A 
ATOM     13  C   UNL     1      -0.253   4.223   0.613  0.00  0.00    +0.000 A 
ATOM     14  C   UNL     1      -1.250   5.061   0.151  0.00  0.00    +0.000 A 
ATOM     15  C   UNL     1      -2.482   4.500  -0.087  0.00  0.00    +0.000 A 
ATOM     16  C   UNL     1      -2.702   3.159   0.130  0.00  0.00    +0.000 A 
ENDBRANCH   8  11
BRANCH   1  18
ATOM     17  C   UNL     1      -5.453  -0.165  -1.659  0.00  0.00    +0.000 C 
ATOM     18  C   UNL     1      -5.820  -0.416  -0.201  0.00  0.00    +0.000 C 
ENDBRANCH   1  18
BRANCH   6  19
ATOM     19  S   UNL     1      -0.168  -2.464   2.066  0.00  0.00    +0.000 S 
BRANCH  19  20
ATOM     20  C   UNL     1       0.791  -3.157   0.689  0.00  0.00    +0.000 C 
BRANCH  20  21
ATOM     21  C   UNL     1       1.737  -2.141   0.131  0.00  0.00    +0.000 C 
ATOM     22  O   UNL     1       1.257  -1.282  -0.649  0.00  0.00    +0.000 OA
ATOM     23  N   UNL     1       3.101  -2.093   0.422  0.00  0.00    +0.000 NA
BRANCH  23  24
ATOM     24  C   UNL     1       4.038  -1.150  -0.079  0.00  0.00    +0.000 A 
ATOM     25  C   UNL     1       3.756  -0.107  -0.909  0.00  0.00    +0.000 A 
ATOM     26  C   UNL     1       4.723   0.791  -1.367  0.00  0.00    +0.000 A 
ATOM     27  C   UNL     1       6.036   0.629  -0.970  0.00  0.00    +0.000 A 
ATOM     28  C   UNL     1       6.330  -0.415  -0.137  0.00  0.00    +0.000 A 
ATOM     29  C   UNL     1       5.368  -1.299   0.313  0.00  0.00    +0.000 A 
BRANCH  27  30
ATOM     30  O   UNL     1       7.043   1.490  -1.393  0.00  0.00    +0.000 OA
ATOM     31  C   UNL     1       6.772   2.584  -2.251  0.00  0.00    +0.000 C 
ENDBRANCH  27  30
ENDBRANCH  23  24
ENDBRANCH  20  21
ENDBRANCH  19  20
ENDBRANCH   6  19
TORSDOF 7
