REMARK  Name = 
REMARK  9 active torsions:
REMARK  status: ('A' for Active; 'I' for Inactive)
REMARK    1  A    between atoms: O_2  and  C_3
REMARK    2  A    between atoms: C_6  and  C_7
REMARK    3  A    between atoms: C_7  and  C_8
REMARK    4  A    between atoms: N_16  and  C_17
REMARK    5  A    between atoms: C_17  and  C_18
REMARK    6  A    between atoms: C_18  and  C_20
REMARK    7  A    between atoms: C_20  and  O_21
REMARK    8  A    between atoms: O_21  and  C_22
REMARK    9  A    between atoms: C_30  and  O_31
REMARK                            x       y       z     vdW  Elec       q    Type
REMARK                         _______ _______ _______ _____ _____    ______ ____
ROOT
ATOM      1  C   UNL     1      -0.631  -1.085  -0.831  0.00  0.00    +0.000 A 
ATOM      2  N   UNL     1      -1.162  -2.135  -1.515  0.00  0.00    +0.000 NA
ATOM      3  C   UNL     1      -1.107  -1.887  -2.836  0.00  0.00    +0.000 A 
ATOM      4  C   UNL     1      -1.495  -2.591  -3.955  0.00  0.00    +0.000 A 
ATOM      5  C   UNL     1      -1.278  -2.010  -5.170  0.00  0.00    +0.000 A 
ATOM      6  C   UNL     1      -0.702  -0.778  -5.348  0.00  0.00    +0.000 A 
ATOM      7  C   UNL     1      -0.315  -0.077  -4.208  0.00  0.00    +0.000 A 
ATOM      8  C   UNL     1      -0.527  -0.649  -2.981  0.00  0.00    +0.000 A 
ATOM      9  N   UNL     1      -0.246  -0.181  -1.741  0.00  0.00    +0.000 N 
ENDROOT
BRANCH   1  10
ATOM     10  C   UNL     1      -0.524  -0.984   0.643  0.00  0.00    +0.000 C 
BRANCH  10  14
ATOM     11  C   UNL     1      -3.942   0.806   2.406  0.00  0.00    +0.000 A 
ATOM     12  C   UNL     1      -2.878   1.579   2.008  0.00  0.00    +0.000 A 
ATOM     13  C   UNL     1      -1.750   0.980   1.426  0.00  0.00    +0.000 A 
ATOM     14  C   UNL     1      -1.694  -0.367   1.247  0.00  0.00    +0.000 A 
ATOM     15  C   UNL     1      -2.748  -1.131   1.641  0.00  0.00    +0.000 A 
ATOM     16  C   UNL     1      -3.891  -0.555   2.228  0.00  0.00    +0.000 A 
BRANCH  11  18
ATOM     17  C   UNL     1      -5.251   2.728   3.221  0.00  0.00    +0.000 C 
ATOM     18  O   UNL     1      -5.068   1.358   2.982  0.00  0.00    +0.000 OA
ENDBRANCH  11  18
BRANCH  16  19
ATOM     19  O   UNL     1      -4.945  -1.332   2.621  0.00  0.00    +0.000 OA
ATOM     20  C   UNL     1      -5.018  -2.724   2.496  0.00  0.00    +0.000 C 
ENDBRANCH  16  19
ENDBRANCH  10  14
ENDBRANCH   1  10
BRANCH   9  21
ATOM     21  C   UNL     1       0.359   1.090  -1.381  0.00  0.00    +0.000 C 
BRANCH  21  22
ATOM     22  C   UNL     1       1.995   0.775  -1.415  0.00  0.00    +0.000 C 
ATOM     23  O   UNL     1       1.913  -0.303  -0.346  0.00  0.00    +0.000 OA
BRANCH  22  24
ATOM     24  C   UNL     1       2.390   2.056  -0.460  0.00  0.00    +0.000 C 
BRANCH  24  25
ATOM     25  O   UNL     1       3.515   1.961   0.184  0.00  0.00    +0.000 OA
BRANCH  25  26
ATOM     26  C   UNL     1       4.162   1.218   1.118  0.00  0.00    +0.000 A 
ATOM     27  C   UNL     1       3.544   0.142   1.700  0.00  0.00    +0.000 A 
ATOM     28  C   UNL     1       4.169  -0.611   2.634  0.00  0.00    +0.000 A 
ATOM     29  C   UNL     1       5.460  -0.304   3.023  0.00  0.00    +0.000 A 
ATOM     30  C   UNL     1       6.101   0.774   2.451  0.00  0.00    +0.000 A 
ATOM     31  C   UNL     1       5.478   1.536   1.510  0.00  0.00    +0.000 A 
ATOM     32  C   UNL     1       6.085   2.704   0.846  0.00  0.00    +0.000 C 
ENDBRANCH  25  26
ENDBRANCH  24  25
ENDBRANCH  22  24
ENDBRANCH  21  22
ENDBRANCH   9  21
TORSDOF 9
