REMARK  Name = 
REMARK  7 active torsions:
REMARK  status: ('A' for Active; 'I' for Inactive)
REMARK    1  A    between atoms: O_2  and  C_3
REMARK    2  A    between atoms: C_6  and  C_7
REMARK    3  A    between atoms: C_9  and  C_10
REMARK    4  A    between atoms: N_12  and  C_13
REMARK    5  A    between atoms: C_13  and  C_15
REMARK    6  A    between atoms: C_15  and  C_16
REMARK    7  A    between atoms: C_16  and  C_17
REMARK                            x       y       z     vdW  Elec       q    Type
REMARK                         _______ _______ _______ _____ _____    ______ ____
ROOT
ATOM      1  C   UNL     1      -2.538  -0.042   0.035  0.00  0.00    +0.000 A 
ATOM      2  C   UNL     1      -1.356  -0.631   0.435  0.00  0.00    +0.000 A 
ATOM      3  C   UNL     1      -0.183  -0.547  -0.282  0.00  0.00    +0.000 A 
ATOM      4  C   UNL     1      -0.193   0.153  -1.443  0.00  0.00    +0.000 A 
ATOM      5  C   UNL     1       0.973   0.236  -2.158  0.00  0.00    +0.000 A 
ATOM      6  C   UNL     1       0.951   0.957  -3.347  0.00  0.00    +0.000 A 
ATOM      7  C   UNL     1      -0.208   1.566  -3.792  0.00  0.00    +0.000 A 
ATOM      8  C   UNL     1      -1.351   1.455  -3.044  0.00  0.00    +0.000 A 
ATOM      9  C   UNL     1      -1.379   0.753  -1.859  0.00  0.00    +0.000 A 
ATOM     10  N   UNL     1      -2.502   0.643  -1.124  0.00  0.00    +0.000 NA
ENDROOT
BRANCH   1  14
ATOM     11  C   UNL     1      -6.155  -0.360   2.315  0.00  0.00    +0.000 A 
ATOM     12  C   UNL     1      -6.108   0.337   1.129  0.00  0.00    +0.000 A 
ATOM     13  C   UNL     1      -4.933   0.436   0.398  0.00  0.00    +0.000 A 
ATOM     14  C   UNL     1      -3.760  -0.158   0.823  0.00  0.00    +0.000 A 
ATOM     15  C   UNL     1      -3.816  -0.853   2.010  0.00  0.00    +0.000 A 
ATOM     16  C   UNL     1      -4.983  -0.958   2.748  0.00  0.00    +0.000 A 
BRANCH  11  18
ATOM     17  C   UNL     1      -8.511   0.167   2.570  0.00  0.00    +0.000 C 
ATOM     18  O   UNL     1      -7.341  -0.448   3.032  0.00  0.00    +0.000 OA
ENDBRANCH  11  18
ENDBRANCH   1  14
BRANCH   3  19
ATOM     19  C   UNL     1       0.989  -1.225   0.262  0.00  0.00    +0.000 C 
ATOM     20  O   UNL     1       0.949  -1.848   1.354  0.00  0.00    +0.000 OA
ATOM     21  N   UNL     1       2.173  -1.187  -0.433  0.00  0.00    +0.000 NA
BRANCH  21  22
ATOM     22  C   UNL     1       3.461  -1.915   0.133  0.00  0.00    +0.000 C 
ATOM     23  C   UNL     1       2.685  -3.183   0.877  0.00  0.00    +0.000 C 
BRANCH  22  24
ATOM     24  C   UNL     1       3.445  -1.008   1.550  0.00  0.00    +0.000 C 
BRANCH  24  25
ATOM     25  C   UNL     1       3.587   0.383   0.969  0.00  0.00    +0.000 C 
BRANCH  25  26
ATOM     26  C   UNL     1       4.860   0.514   0.193  0.00  0.00    +0.000 A 
ATOM     27  C   UNL     1       5.992   0.930   0.827  0.00  0.00    +0.000 A 
ATOM     28  C   UNL     1       7.156   1.046   0.112  0.00  0.00    +0.000 A 
ATOM     29  C   UNL     1       7.188   0.744  -1.251  0.00  0.00    +0.000 A 
ATOM     30  C   UNL     1       6.033   0.323  -1.885  0.00  0.00    +0.000 A 
ATOM     31  C   UNL     1       4.875   0.212  -1.153  0.00  0.00    +0.000 A 
ENDBRANCH  25  26
ENDBRANCH  24  25
ENDBRANCH  22  24
ENDBRANCH  21  22
ENDBRANCH   3  19
TORSDOF 7
