REMARK  Name = 
REMARK  7 active torsions:
REMARK  status: ('A' for Active; 'I' for Inactive)
REMARK    1  A    between atoms: O_2  and  C_3
REMARK    2  A    between atoms: C_5  and  C_6
REMARK    3  A    between atoms: C_16  and  O_17
REMARK    4  A    between atoms: O_17  and  C_18
REMARK    5  A    between atoms: C_18  and  C_19
REMARK    6  A    between atoms: C_28  and  O_29
REMARK    7  A    between atoms: C_31  and  O_32
REMARK                            x       y       z     vdW  Elec       q    Type
REMARK                         _______ _______ _______ _____ _____    ______ ____
ROOT
ATOM      1  C   UNL     1      -1.128  -1.315   0.891  0.00  0.00    +0.000 C 
ATOM      2  N   UNL     1      -1.322  -2.080  -0.473  0.00  0.00    +0.000 NA
ATOM      3  C   UNL     1      -0.120  -2.893  -0.554  0.00  0.00    +0.000 C 
ATOM      4  C   UNL     1       1.124  -2.094  -0.193  0.00  0.00    +0.000 C 
ATOM      5  C   UNL     1       0.828  -0.626  -0.246  0.00  0.00    +0.000 A 
ATOM      6  C   UNL     1      -0.316  -0.098   0.286  0.00  0.00    +0.000 A 
ATOM      7  N   UNL     1      -0.353   1.162   0.126  0.00  0.00    +0.000 NA
ATOM      8  C   UNL     1       0.747   1.581  -0.519  0.00  0.00    +0.000 A 
ATOM      9  C   UNL     1       1.252   2.781  -0.959  0.00  0.00    +0.000 A 
ATOM     10  C   UNL     1       2.472   2.840  -1.615  0.00  0.00    +0.000 A 
ATOM     11  C   UNL     1       3.227   1.703  -1.854  0.00  0.00    +0.000 A 
ATOM     12  C   UNL     1       2.723   0.502  -1.414  0.00  0.00    +0.000 A 
ATOM     13  C   UNL     1       1.519   0.468  -0.770  0.00  0.00    +0.000 A 
ENDROOT
BRANCH   1  16
ATOM     14  C   UNL     1      -4.918  -1.078   0.766  0.00  0.00    +0.000 A 
ATOM     15  C   UNL     1      -3.588  -1.529   0.726  0.00  0.00    +0.000 A 
ATOM     16  C   UNL     1      -2.544  -0.691   0.963  0.00  0.00    +0.000 A 
ATOM     17  C   UNL     1      -2.784   0.612   1.246  0.00  0.00    +0.000 A 
ATOM     18  C   UNL     1      -4.097   1.110   1.297  0.00  0.00    +0.000 A 
ATOM     19  C   UNL     1      -5.130   0.257   1.057  0.00  0.00    +0.000 A 
BRANCH  14  21
ATOM     20  C   UNL     1      -5.738  -3.262   0.236  0.00  0.00    +0.000 C 
ATOM     21  O   UNL     1      -6.010  -1.894   0.532  0.00  0.00    +0.000 OA
ENDBRANCH  14  21
BRANCH  18  22
ATOM     22  O   UNL     1      -4.361   2.433   1.583  0.00  0.00    +0.000 OA
ATOM     23  C   UNL     1      -3.343   3.388   1.845  0.00  0.00    +0.000 C 
ENDBRANCH  18  22
BRANCH  19  24
ATOM     24  O   UNL     1      -6.440   0.781   1.115  0.00  0.00    +0.000 OA
ATOM     25  C   UNL     1      -7.142   0.770   2.340  0.00  0.00    +0.000 C 
ENDBRANCH  19  24
ENDBRANCH   1  16
BRANCH  11  26
ATOM     26  O   UNL     1       4.431   1.715  -2.496  0.00  0.00    +0.000 OA
BRANCH  26  27
ATOM     27  C   UNL     1       5.210   0.574  -2.743  0.00  0.00    +0.000 C 
BRANCH  27  28
ATOM     28  C   UNL     1       5.553  -0.023  -1.431  0.00  0.00    +0.000 A 
ATOM     29  C   UNL     1       6.535   0.642  -0.697  0.00  0.00    +0.000 A 
ATOM     30  C   UNL     1       6.952   0.186   0.533  0.00  0.00    +0.000 A 
ATOM     31  C   UNL     1       6.373  -0.956   1.032  0.00  0.00    +0.000 A 
ATOM     32  C   UNL     1       5.396  -1.623   0.309  0.00  0.00    +0.000 A 
ATOM     33  C   UNL     1       4.992  -1.153  -0.919  0.00  0.00    +0.000 A 
ENDBRANCH  27  28
ENDBRANCH  26  27
ENDBRANCH  11  26
TORSDOF 7
