REMARK  Name = 
REMARK  8 active torsions:
REMARK  status: ('A' for Active; 'I' for Inactive)
REMARK    1  A    between atoms: O_2  and  C_3
REMARK    2  A    between atoms: C_6  and  C_7
REMARK    3  A    between atoms: N_9  and  C_10
REMARK    4  A    between atoms: C_10  and  C_11
REMARK    5  A    between atoms: N_13  and  N_14
REMARK    6  A    between atoms: C_15  and  C_16
REMARK    7  A    between atoms: C_15  and  C_22
REMARK    8  A    between atoms: C_29  and  O_30
REMARK                            x       y       z     vdW  Elec       q    Type
REMARK                         _______ _______ _______ _____ _____    ______ ____
ROOT
ATOM      1  C   UNL     1      -0.265  -0.998  -2.400  0.00  0.00    +0.000 C 
ATOM      2  O   UNL     1      -1.160  -1.592  -3.072  0.00  0.00    +0.000 OA
ATOM      3  N   UNL     1      -0.668   0.090  -1.594  0.00  0.00    +0.000 NA
ENDROOT
BRANCH   3   4
ATOM      4  N   UNL     1      -1.942   0.574  -1.478  0.00  0.00    +0.000 NA
ATOM      5  C   UNL     1      -2.938   0.163  -0.842  0.00  0.00    +0.000 C 
BRANCH   5   6
ATOM      6  C   UNL     1      -4.188   0.932  -0.930  0.00  0.00    +0.000 A 
ATOM      7  C   UNL     1      -4.217   2.056  -1.698  0.00  0.00    +0.000 A 
ATOM      8  C   UNL     1      -5.404   2.786  -1.782  0.00  0.00    +0.000 A 
ATOM      9  C   UNL     1      -6.508   2.360  -1.096  0.00  0.00    +0.000 A 
ATOM     10  C   UNL     1      -6.448   1.226  -0.333  0.00  0.00    +0.000 A 
ATOM     11  C   UNL     1      -5.294   0.519  -0.253  0.00  0.00    +0.000 A 
ENDBRANCH   5   6
BRANCH   5  12
ATOM     12  C   UNL     1      -2.935  -1.044  -0.011  0.00  0.00    +0.000 A 
ATOM     13  C   UNL     1      -1.786  -1.768   0.079  0.00  0.00    +0.000 A 
ATOM     14  C   UNL     1      -1.720  -2.907   0.841  0.00  0.00    +0.000 A 
ATOM     15  C   UNL     1      -2.818  -3.325   1.520  0.00  0.00    +0.000 A 
ATOM     16  C   UNL     1      -3.998  -2.624   1.456  0.00  0.00    +0.000 A 
ATOM     17  C   UNL     1      -4.050  -1.465   0.675  0.00  0.00    +0.000 A 
ENDBRANCH   5  12
ENDBRANCH   3   4
BRANCH   1  18
ATOM     18  C   UNL     1       1.102  -1.524  -2.549  0.00  0.00    +0.000 C 
BRANCH  18  21
ATOM     19  C   UNL     1       2.255  -0.741  -0.448  0.00  0.00    +0.000 C 
ATOM     20  O   UNL     1       1.354  -1.230   0.275  0.00  0.00    +0.000 OA
ATOM     21  N   UNL     1       2.135  -0.886  -1.845  0.00  0.00    +0.000 NA
BRANCH  19  25
ATOM     22  C   UNL     1       5.533   1.268   1.339  0.00  0.00    +0.000 A 
ATOM     23  C   UNL     1       5.470   1.171  -0.053  0.00  0.00    +0.000 A 
ATOM     24  C   UNL     1       4.379   0.505  -0.600  0.00  0.00    +0.000 A 
ATOM     25  C   UNL     1       3.390  -0.045   0.173  0.00  0.00    +0.000 A 
ATOM     26  C   UNL     1       3.487   0.072   1.544  0.00  0.00    +0.000 A 
ATOM     27  C   UNL     1       4.563   0.731   2.140  0.00  0.00    +0.000 A 
BRANCH  22  29
ATOM     28  C   UNL     1       7.631   2.495   1.102  0.00  0.00    +0.000 C 
ATOM     29  O   UNL     1       6.622   1.935   1.906  0.00  0.00    +0.000 OA
ENDBRANCH  22  29
BRANCH  27  30
ATOM     30  O   UNL     1       4.682   0.861   3.514  0.00  0.00    +0.000 OA
ATOM     31  C   UNL     1       3.734   0.341   4.419  0.00  0.00    +0.000 C 
ENDBRANCH  27  30
ENDBRANCH  19  25
ENDBRANCH  18  21
ENDBRANCH   1  18
TORSDOF 8
