REMARK  Name = 
REMARK  7 active torsions:
REMARK  status: ('A' for Active; 'I' for Inactive)
REMARK    1  A    between atoms: C_5  and  C_6
REMARK    2  A    between atoms: C_9  and  S_10
REMARK    3  A    between atoms: S_10  and  C_11
REMARK    4  A    between atoms: C_11  and  C_12
REMARK    5  A    between atoms: C_16  and  C_17
REMARK    6  A    between atoms: N_19  and  C_20
REMARK    7  A    between atoms: C_20  and  C_21
REMARK                            x       y       z     vdW  Elec       q    Type
REMARK                         _______ _______ _______ _____ _____    ______ ____
ROOT
ATOM      1  S   UNL     1      -0.320  -3.517   0.372  0.00  0.00    +0.000 S 
ENDROOT
BRANCH   1   5
ATOM      2  C   UNL     1      -3.628  -0.486   0.140  0.00  0.00    +0.000 A 
ATOM      3  C   UNL     1      -3.772  -1.559   0.976  0.00  0.00    +0.000 A 
ATOM      4  C   UNL     1      -2.758  -2.490   1.048  0.00  0.00    +0.000 A 
ATOM      5  C   UNL     1      -1.633  -2.328   0.290  0.00  0.00    +0.000 A 
ATOM      6  N   UNL     1      -1.529  -1.269  -0.513  0.00  0.00    +0.000 NA
ATOM      7  N   UNL     1      -2.505  -0.349  -0.600  0.00  0.00    +0.000 NA
BRANCH   2  12
ATOM      8  C   UNL     1      -7.801   3.426  -0.215  0.00  0.00    +0.000 C 
ATOM      9  C   UNL     1      -6.721   2.388  -0.105  0.00  0.00    +0.000 A 
ATOM     10  C   UNL     1      -5.590   2.550  -0.865  0.00  0.00    +0.000 A 
ATOM     11  C   UNL     1      -4.574   1.607  -0.785  0.00  0.00    +0.000 A 
ATOM     12  C   UNL     1      -4.692   0.515   0.047  0.00  0.00    +0.000 A 
ATOM     13  C   UNL     1      -5.838   0.366   0.807  0.00  0.00    +0.000 A 
ATOM     14  C   UNL     1      -6.836   1.301   0.722  0.00  0.00    +0.000 A 
ENDBRANCH   2  12
ENDBRANCH   1   5
BRANCH   1  15
ATOM     15  C   UNL     1       0.830  -3.003   1.663  0.00  0.00    +0.000 C 
BRANCH  15  16
ATOM     16  C   UNL     1       1.535  -1.740   1.332  0.00  0.00    +0.000 A 
ATOM     17  C   UNL     1       0.983  -0.534   1.707  0.00  0.00    +0.000 A 
ATOM     18  C   UNL     1       1.620   0.660   1.411  0.00  0.00    +0.000 A 
ATOM     19  C   UNL     1       2.821   0.664   0.734  0.00  0.00    +0.000 A 
ATOM     20  C   UNL     1       3.389  -0.536   0.351  0.00  0.00    +0.000 A 
ATOM     21  C   UNL     1       2.741  -1.711   0.654  0.00  0.00    +0.000 A 
BRANCH  20  22
ATOM     22  C   UNL     1       4.659  -0.500  -0.362  0.00  0.00    +0.000 C 
ATOM     23  O   UNL     1       5.168  -1.610  -0.699  0.00  0.00    +0.000 OA
ATOM     24  N   UNL     1       5.337   0.680  -0.689  0.00  0.00    +0.000 NA
BRANCH  24  25
ATOM     25  C   UNL     1       6.598   0.594  -1.402  0.00  0.00    +0.000 C 
BRANCH  25  26
ATOM     26  C   UNL     1       7.087   2.011  -1.611  0.00  0.00    +0.000 C 
ATOM     27  C   UNL     1       8.387   2.090  -2.338  0.00  0.00    +0.000 C 
ATOM     28  C   UNL     1       7.041   2.777  -0.327  0.00  0.00    +0.000 C 
ENDBRANCH  25  26
ENDBRANCH  24  25
ENDBRANCH  20  22
ENDBRANCH  15  16
ENDBRANCH   1  15
TORSDOF 7
