REMARK  Name = 
REMARK  7 active torsions:
REMARK  status: ('A' for Active; 'I' for Inactive)
REMARK    1  A    between atoms: C_2  and  C_3
REMARK    2  A    between atoms: C_2  and  C_18
REMARK    3  A    between atoms: C_3  and  C_4
REMARK    4  A    between atoms: C_4  and  C_5
REMARK    5  A    between atoms: N_8  and  C_9
REMARK    6  A    between atoms: C_9  and  C_10
REMARK    7  A    between atoms: N_26  and  C_27
REMARK                            x       y       z     vdW  Elec       q    Type
REMARK                         _______ _______ _______ _____ _____    ______ ____
ROOT
ATOM      1  O   UNL     1      -0.374   0.422   1.648  0.00  0.00    +0.000 OA
ATOM      2  C   UNL     1      -0.005   0.838   0.198  0.00  0.00    +0.000 C 
ENDROOT
BRANCH   2   3
ATOM      3  C   UNL     1       1.579   0.542   0.350  0.00  0.00    +0.000 A 
ATOM      4  C   UNL     1       2.186  -0.066  -0.712  0.00  0.00    +0.000 A 
ATOM      5  C   UNL     1       3.549  -0.323  -0.606  0.00  0.00    +0.000 A 
ATOM      6  C   UNL     1       4.221   0.040   0.551  0.00  0.00    +0.000 A 
ATOM      7  C   UNL     1       3.565   0.650   1.593  0.00  0.00    +0.000 A 
ATOM      8  C   UNL     1       2.218   0.888   1.451  0.00  0.00    +0.000 A 
ATOM      9  C   UNL     1       4.522   0.938   2.730  0.00  0.00    +0.000 C 
ATOM     10  C   UNL     1       5.847   0.751   2.083  0.00  0.00    +0.000 C 
ATOM     11  N   UNL     1       5.604  -0.099   0.928  0.00  0.00    +0.000 N 
BRANCH  11  12
ATOM     12  C   UNL     1       6.555  -0.921   0.285  0.00  0.00    +0.000 A 
ATOM     13  C   UNL     1       6.266  -1.707  -0.809  0.00  0.00    +0.000 A 
ATOM     14  C   UNL     1       7.286  -2.484  -1.370  0.00  0.00    +0.000 A 
ATOM     15  N   UNL     1       8.537  -2.501  -0.892  0.00  0.00    +0.000 NA
ATOM     16  C   UNL     1       8.832  -1.740   0.172  0.00  0.00    +0.000 A 
ATOM     17  C   UNL     1       7.852  -0.964   0.748  0.00  0.00    +0.000 A 
ENDBRANCH  11  12
ENDBRANCH   2   3
BRANCH   2  18
ATOM     18  C   UNL     1      -0.356  -0.684  -0.359  0.00  0.00    +0.000 C 
BRANCH  18  19
ATOM     19  C   UNL     1      -1.817  -0.885  -0.008  0.00  0.00    +0.000 C 
BRANCH  19  20
ATOM     20  C   UNL     1      -2.726   0.075  -0.609  0.00  0.00    +0.000 C 
ATOM     21  C   UNL     1      -2.558   1.500  -0.310  0.00  0.00    +0.000 C 
ATOM     22  C   UNL     1      -3.658   2.326  -0.914  0.00  0.00    +0.000 C 
ATOM     23  N   UNL     1      -4.903   1.637  -1.016  0.00  0.00    +0.000 NA
ATOM     24  C   UNL     1      -4.871   0.464  -1.846  0.00  0.00    +0.000 C 
ATOM     25  C   UNL     1      -3.596  -0.326  -1.700  0.00  0.00    +0.000 C 
BRANCH  23  26
ATOM     26  C   UNL     1      -5.543   1.411   0.258  0.00  0.00    +0.000 C 
BRANCH  26  27
ATOM     27  C   UNL     1      -6.820   0.703   0.147  0.00  0.00    +0.000 A 
ATOM     28  C   UNL     1      -7.517   0.435   1.307  0.00  0.00    +0.000 A 
ATOM     29  C   UNL     1      -8.710  -0.220   1.267  0.00  0.00    +0.000 A 
ATOM     30  C   UNL     1      -9.238  -0.624   0.070  0.00  0.00    +0.000 A 
ATOM     31  C   UNL     1      -8.567  -0.370  -1.093  0.00  0.00    +0.000 A 
ATOM     32  C   UNL     1      -7.361   0.293  -1.043  0.00  0.00    +0.000 A 
ENDBRANCH  26  27
ENDBRANCH  23  26
ENDBRANCH  19  20
ENDBRANCH  18  19
ENDBRANCH   2  18
TORSDOF 7
