REMARK  Name = 
REMARK  6 active torsions:
REMARK  status: ('A' for Active; 'I' for Inactive)
REMARK    1  A    between atoms: N_10  and  C_11
REMARK    2  A    between atoms: C_17  and  C_18
REMARK    3  A    between atoms: C_21  and  O_22
REMARK    4  A    between atoms: O_22  and  C_23
REMARK    5  A    between atoms: C_23  and  C_24
REMARK    6  A    between atoms: C_24  and  N_25
REMARK                            x       y       z     vdW  Elec       q    Type
REMARK                         _______ _______ _______ _____ _____    ______ ____
ROOT
ATOM      1  O   UNL     1      -2.599  -1.722   4.806  0.00  0.00    +0.000 OA
ATOM      2  C   UNL     1      -2.434  -1.413   3.459  0.00  0.00    +0.000 A 
ATOM      3  C   UNL     1      -1.675  -2.285   2.712  0.00  0.00    +0.000 A 
ATOM      4  C   UNL     1      -1.494  -1.999   1.359  0.00  0.00    +0.000 A 
ATOM      5  C   UNL     1      -2.048  -0.884   0.771  0.00  0.00    +0.000 A 
ATOM      6  C   UNL     1      -2.779  -0.054   1.514  0.00  0.00    +0.000 A 
ATOM      7  C   UNL     1      -2.988  -0.309   2.897  0.00  0.00    +0.000 A 
ATOM      8  C   UNL     1      -3.425   1.169   1.005  0.00  0.00    +0.000 C 
ATOM      9  C   UNL     1      -2.571   1.669  -0.144  0.00  0.00    +0.000 C 
ATOM     10  N   UNL     1      -2.557   0.616  -1.074  0.00  0.00    +0.000 N 
ATOM     11  C   UNL     1      -1.754  -0.694  -0.764  0.00  0.00    +0.000 C 
ENDROOT
BRANCH  10  12
ATOM     12  C   UNL     1      -3.218   0.612  -2.316  0.00  0.00    +0.000 A 
ATOM     13  C   UNL     1      -3.959   1.706  -2.708  0.00  0.00    +0.000 A 
ATOM     14  C   UNL     1      -4.614   1.718  -3.923  0.00  0.00    +0.000 A 
ATOM     15  C   UNL     1      -4.546   0.640  -4.775  0.00  0.00    +0.000 A 
ATOM     16  C   UNL     1      -3.811  -0.459  -4.399  0.00  0.00    +0.000 A 
ATOM     17  C   UNL     1      -3.161  -0.458  -3.182  0.00  0.00    +0.000 A 
ENDBRANCH  10  12
BRANCH  11  18
ATOM     18  C   UNL     1      -0.314   0.011  -0.609  0.00  0.00    +0.000 A 
ATOM     19  C   UNL     1       0.735  -0.612  -1.238  0.00  0.00    +0.000 A 
ATOM     20  C   UNL     1       2.015  -0.051  -1.143  0.00  0.00    +0.000 A 
ATOM     21  C   UNL     1       2.183   1.108  -0.421  0.00  0.00    +0.000 A 
ATOM     22  C   UNL     1       1.097   1.681   0.183  0.00  0.00    +0.000 A 
ATOM     23  C   UNL     1      -0.157   1.126   0.087  0.00  0.00    +0.000 A 
BRANCH  21  24
ATOM     24  O   UNL     1       3.472   1.673  -0.325  0.00  0.00    +0.000 OA
BRANCH  24  25
ATOM     25  C   UNL     1       4.591   1.107  -0.932  0.00  0.00    +0.000 C 
BRANCH  25  26
ATOM     26  C   UNL     1       4.894  -0.288  -0.464  0.00  0.00    +0.000 C 
BRANCH  26  27
ATOM     27  N   UNL     1       5.146  -0.310   0.965  0.00  0.00    +0.000 NA
ATOM     28  C   UNL     1       5.431  -1.668   1.369  0.00  0.00    +0.000 C 
ATOM     29  C   UNL     1       6.931  -1.767   1.514  0.00  0.00    +0.000 C 
ATOM     30  C   UNL     1       7.348  -0.368   1.857  0.00  0.00    +0.000 C 
ATOM     31  C   UNL     1       6.259   0.505   1.319  0.00  0.00    +0.000 C 
ENDBRANCH  26  27
ENDBRANCH  25  26
ENDBRANCH  24  25
ENDBRANCH  21  24
ENDBRANCH  11  18
TORSDOF 6
