REMARK  Name = 
REMARK  5 active torsions:
REMARK  status: ('A' for Active; 'I' for Inactive)
REMARK    1  A    between atoms: O_2  and  C_3
REMARK    2  A    between atoms: C_7  and  C_8
REMARK    3  A    between atoms: C_10  and  N_11
REMARK    4  A    between atoms: C_14  and  C_15
REMARK    5  A    between atoms: C_15  and  C_16
REMARK                            x       y       z     vdW  Elec       q    Type
REMARK                         _______ _______ _______ _____ _____    ______ ____
ROOT
ATOM      1  C   UNL     1      -2.749  -0.593   0.018  0.00  0.00    +0.000 A 
ATOM      2  N   UNL     1      -1.520  -0.064  -0.006  0.00  0.00    +0.000 NA
ATOM      3  C   UNL     1      -0.388  -0.787   0.061  0.00  0.00    +0.000 A 
ATOM      4  C   UNL     1      -0.530  -2.159   0.161  0.00  0.00    +0.000 A 
ATOM      5  C   UNL     1       0.586  -2.957   0.233  0.00  0.00    +0.000 A 
ATOM      6  C   UNL     1       0.423  -4.306   0.331  0.00  0.00    +0.000 A 
ATOM      7  C   UNL     1      -0.808  -4.929   0.361  0.00  0.00    +0.000 A 
ATOM      8  C   UNL     1      -1.929  -4.130   0.289  0.00  0.00    +0.000 A 
ATOM      9  C   UNL     1      -1.782  -2.753   0.189  0.00  0.00    +0.000 A 
ATOM     10  N   UNL     1      -2.838  -1.931   0.116  0.00  0.00    +0.000 NA
ENDROOT
BRANCH   1  15
ATOM     11  C   UNL     1      -5.042   2.385  -0.229  0.00  0.00    +0.000 A 
ATOM     12  C   UNL     1      -6.289   1.794  -0.201  0.00  0.00    +0.000 A 
ATOM     13  C   UNL     1      -6.372   0.414  -0.100  0.00  0.00    +0.000 A 
ATOM     14  C   UNL     1      -5.207  -0.358  -0.029  0.00  0.00    +0.000 A 
ATOM     15  C   UNL     1      -3.960   0.228  -0.057  0.00  0.00    +0.000 A 
ATOM     16  C   UNL     1      -3.901   1.601  -0.157  0.00  0.00    +0.000 A 
ATOM     17  O   UNL     1      -2.651   2.202  -0.187  0.00  0.00    +0.000 OA
BRANCH  11  19
ATOM     18  C   UNL     1      -5.993   4.641  -0.407  0.00  0.00    +0.000 C 
ATOM     19  O   UNL     1      -4.892   3.772  -0.330  0.00  0.00    +0.000 OA
ENDBRANCH  11  19
ENDBRANCH   1  15
BRANCH   3  20
ATOM     20  N   UNL     1       0.904  -0.216   0.035  0.00  0.00    +0.000 N 
ATOM     21  C   UNL     1       1.795  -0.409   1.129  0.00  0.00    +0.000 C 
ATOM     22  C   UNL     1       3.206  -0.701   0.756  0.00  0.00    +0.000 C 
ATOM     23  C   UNL     1       3.411  -0.683  -0.721  0.00  0.00    +0.000 C 
ATOM     24  C   UNL     1       2.796   0.576  -1.299  0.00  0.00    +0.000 C 
ATOM     25  C   UNL     1       1.301   0.560  -1.111  0.00  0.00    +0.000 C 
BRANCH  23  26
ATOM     26  C   UNL     1       4.873  -0.675  -1.101  0.00  0.00    +0.000 C 
BRANCH  26  27
ATOM     27  C   UNL     1       5.577   0.513  -0.560  0.00  0.00    +0.000 A 
ATOM     28  C   UNL     1       6.152   0.413   0.688  0.00  0.00    +0.000 A 
ATOM     29  C   UNL     1       6.819   1.440   1.276  0.00  0.00    +0.000 A 
ATOM     30  C   UNL     1       6.936   2.633   0.614  0.00  0.00    +0.000 A 
ATOM     31  C   UNL     1       6.372   2.766  -0.636  0.00  0.00    +0.000 A 
ATOM     32  C   UNL     1       5.699   1.714  -1.217  0.00  0.00    +0.000 A 
ENDBRANCH  26  27
ENDBRANCH  23  26
ENDBRANCH   3  20
TORSDOF 5
