REMARK  Name = 
REMARK  10 active torsions:
REMARK  status: ('A' for Active; 'I' for Inactive)
REMARK    1  A    between atoms: C_2  and  O_3
REMARK    2  A    between atoms: O_3  and  C_4
REMARK    3  A    between atoms: C_4  and  C_6
REMARK    4  A    between atoms: C_8  and  C_9
REMARK    5  A    between atoms: N_15  and  C_16
REMARK    6  A    between atoms: C_16  and  C_17
REMARK    7  A    between atoms: C_17  and  C_18
REMARK    8  A    between atoms: C_18  and  C_19
REMARK    9  A    between atoms: N_21  and  C_22
REMARK   10  A    between atoms: C_27  and  O_28
REMARK                            x       y       z     vdW  Elec       q    Type
REMARK                         _______ _______ _______ _____ _____    ______ ____
ROOT
ATOM      1  C   UNL     1      -3.021   2.051   0.212  0.00  0.00    +0.000 A 
ATOM      2  C   UNL     1      -3.146   0.780   0.710  0.00  0.00    +0.000 A 
ATOM      3  C   UNL     1      -2.587  -0.150  -0.173  0.00  0.00    +0.000 A 
ATOM      4  N   UNL     1      -2.126   0.579  -1.201  0.00  0.00    +0.000 N 
ATOM      5  C   UNL     1      -2.377   1.906  -0.990  0.00  0.00    +0.000 A 
ATOM      6  C   UNL     1      -2.019   3.025  -1.906  0.00  0.00    +0.000 C 
ENDROOT
BRANCH   3   7
ATOM      7  C   UNL     1      -2.565  -1.599   0.037  0.00  0.00    +0.000 A 
ATOM      8  C   UNL     1      -2.057  -2.502  -0.855  0.00  0.00    +0.000 A 
ATOM      9  C   UNL     1      -2.067  -3.873  -0.592  0.00  0.00    +0.000 A 
ATOM     10  C   UNL     1      -2.592  -4.347   0.575  0.00  0.00    +0.000 A 
ATOM     11  C   UNL     1      -3.108  -3.459   1.486  0.00  0.00    +0.000 A 
ATOM     12  C   UNL     1      -3.089  -2.105   1.207  0.00  0.00    +0.000 A 
ENDBRANCH   3   7
BRANCH   1  13
ATOM     13  C   UNL     1      -3.472   3.311   0.821  0.00  0.00    +0.000 C 
ATOM     14  O   UNL     1      -3.252   4.366   0.186  0.00  0.00    +0.000 OA
BRANCH  13  15
ATOM     15  O   UNL     1      -4.108   3.343   2.034  0.00  0.00    +0.000 OA
BRANCH  15  17
ATOM     16  C   UNL     1      -5.559   5.257   1.713  0.00  0.00    +0.000 C 
ATOM     17  C   UNL     1      -4.552   4.565   2.637  0.00  0.00    +0.000 C 
ENDBRANCH  15  17
ENDBRANCH  13  15
ENDBRANCH   1  13
BRANCH   4  18
ATOM     18  C   UNL     1      -1.414   0.062  -2.366  0.00  0.00    +0.000 C 
BRANCH  18  19
ATOM     19  C   UNL     1       0.074   0.123  -2.237  0.00  0.00    +0.000 C 
BRANCH  19  20
ATOM     20  C   UNL     1       0.660  -0.631  -1.082  0.00  0.00    +0.000 C 
BRANCH  20  21
ATOM     21  C   UNL     1       2.134  -0.469  -1.098  0.00  0.00    +0.000 C 
ATOM     22  O   UNL     1       2.679   0.215  -1.990  0.00  0.00    +0.000 OA
ATOM     23  N   UNL     1       2.979  -1.070  -0.122  0.00  0.00    +0.000 NA
BRANCH  23  24
ATOM     24  C   UNL     1       4.382  -0.869  -0.205  0.00  0.00    +0.000 A 
ATOM     25  C   UNL     1       5.011  -0.122  -1.175  0.00  0.00    +0.000 A 
ATOM     26  C   UNL     1       6.394   0.036  -1.198  0.00  0.00    +0.000 A 
ATOM     27  C   UNL     1       7.157  -0.573  -0.224  0.00  0.00    +0.000 A 
ATOM     28  C   UNL     1       6.547  -1.317   0.744  0.00  0.00    +0.000 A 
ATOM     29  C   UNL     1       5.165  -1.469   0.760  0.00  0.00    +0.000 A 
BRANCH  29  30
ATOM     30  O   UNL     1       4.582  -2.224   1.747  0.00  0.00    +0.000 OA
ATOM     31  C   UNL     1       5.349  -2.841   2.735  0.00  0.00    +0.000 C 
ENDBRANCH  29  30
ENDBRANCH  23  24
ENDBRANCH  20  21
ENDBRANCH  19  20
ENDBRANCH  18  19
ENDBRANCH   4  18
TORSDOF 10
