REMARK  Name = 
REMARK  6 active torsions:
REMARK  status: ('A' for Active; 'I' for Inactive)
REMARK    1  A    between atoms: C_2  and  C_3
REMARK    2  A    between atoms: C_3  and  C_5
REMARK    3  A    between atoms: C_8  and  C_9
REMARK    4  A    between atoms: C_11  and  C_12
REMARK    5  A    between atoms: N_14  and  N_15
REMARK    6  A    between atoms: C_16  and  C_17
REMARK                            x       y       z     vdW  Elec       q    Type
REMARK                         _______ _______ _______ _____ _____    ______ ____
ROOT
ATOM      1  C   UNL     1      -1.417  -0.517  -0.669  0.00  0.00    +0.000 A 
ATOM      2  C   UNL     1      -0.450   0.466  -0.646  0.00  0.00    +0.000 A 
ATOM      3  C   UNL     1       0.839   0.244  -1.089  0.00  0.00    +0.000 A 
ATOM      4  C   UNL     1       1.143  -1.015  -1.566  0.00  0.00    +0.000 A 
ATOM      5  C   UNL     1       2.421  -1.238  -2.007  0.00  0.00    +0.000 A 
ATOM      6  C   UNL     1       2.730  -2.494  -2.486  0.00  0.00    +0.000 A 
ATOM      7  C   UNL     1       1.787  -3.516  -2.527  0.00  0.00    +0.000 A 
ATOM      8  C   UNL     1       0.505  -3.273  -2.079  0.00  0.00    +0.000 A 
ATOM      9  C   UNL     1       0.175  -2.017  -1.595  0.00  0.00    +0.000 A 
ATOM     10  N   UNL     1      -1.057  -1.720  -1.145  0.00  0.00    +0.000 NA
ENDROOT
BRANCH   1  14
ATOM     11  C   UNL     1      -5.347   0.394   0.754  0.00  0.00    +0.000 A 
ATOM     12  C   UNL     1      -5.059  -0.877   0.277  0.00  0.00    +0.000 A 
ATOM     13  C   UNL     1      -3.785  -1.159  -0.179  0.00  0.00    +0.000 A 
ATOM     14  C   UNL     1      -2.773  -0.228  -0.186  0.00  0.00    +0.000 A 
ATOM     15  C   UNL     1      -3.133   1.009   0.301  0.00  0.00    +0.000 A 
ATOM     16  C   UNL     1      -4.398   1.315   0.763  0.00  0.00    +0.000 A 
BRANCH  11  17
ATOM     17  C   UNL     1      -6.827   0.632   1.257  0.00  0.00    +0.000 C 
ATOM     18  C   UNL     1      -6.471   1.698   2.432  0.00  0.00    +0.000 C 
BRANCH  17  20
ATOM     19  C   UNL     1      -7.189  -1.847   1.445  0.00  0.00    +0.000 C 
ATOM     20  C   UNL     1      -6.862  -0.636   2.299  0.00  0.00    +0.000 C 
ENDBRANCH  17  20
ENDBRANCH  11  17
ENDBRANCH   1  14
BRANCH   3  21
ATOM     21  C   UNL     1       1.839   1.303  -1.050  0.00  0.00    +0.000 C 
ATOM     22  O   UNL     1       1.500   2.437  -0.626  0.00  0.00    +0.000 OA
ATOM     23  N   UNL     1       3.182   1.142  -1.461  0.00  0.00    +0.000 NA
BRANCH  23  24
ATOM     24  N   UNL     1       4.140   2.154  -1.427  0.00  0.00    +0.000 NA
ATOM     25  C   UNL     1       4.887   2.301  -0.395  0.00  0.00    +0.000 C 
BRANCH  25  26
ATOM     26  C   UNL     1       4.735   1.402   0.756  0.00  0.00    +0.000 A 
ATOM     27  S   UNL     1       3.658   0.102   0.972  0.00  0.00    +0.000 S 
ATOM     28  C   UNL     1       4.126  -0.392   2.537  0.00  0.00    +0.000 A 
ATOM     29  C   UNL     1       5.121   0.487   2.841  0.00  0.00    +0.000 A 
ATOM     30  C   UNL     1       5.441   1.413   1.932  0.00  0.00    +0.000 A 
ATOM     31  C   UNL     1       6.539   2.431   2.193  0.00  0.00    +0.000 C 
ENDBRANCH  25  26
ENDBRANCH  23  24
ENDBRANCH   3  21
TORSDOF 6
