REMARK  Name = 
REMARK  4 active torsions:
REMARK  status: ('A' for Active; 'I' for Inactive)
REMARK    1  A    between atoms: C_7  and  N_8
REMARK    2  A    between atoms: N_9  and  C_10
REMARK    3  A    between atoms: C_14  and  N_15
REMARK    4  A    between atoms: N_15  and  N_16
REMARK                            x       y       z     vdW  Elec       q    Type
REMARK                         _______ _______ _______ _____ _____    ______ ____
ROOT
ATOM      1  C   UNL     1       1.908  -0.161   0.068  0.00  0.00    +0.000 A 
ATOM      2  C   UNL     1       1.165  -1.308   0.207  0.00  0.00    +0.000 A 
ATOM      3  C   UNL     1      -0.151  -1.268  -0.213  0.00  0.00    +0.000 A 
ATOM      4  C   UNL     1      -0.972  -2.507  -0.068  0.00  0.00    +0.000 C 
ATOM      5  C   UNL     1      -0.674  -0.111  -0.749  0.00  0.00    +0.000 A 
ATOM      6  C   UNL     1       0.090   1.029  -0.879  0.00  0.00    +0.000 A 
ATOM      7  C   UNL     1       1.397   1.007  -0.467  0.00  0.00    +0.000 A 
ATOM      8  C   UNL     1       2.254   2.239  -0.599  0.00  0.00    +0.000 C 
ENDROOT
BRANCH   1  10
ATOM      9  N   UNL     1       4.217   0.213  -0.295  0.00  0.00    +0.000 NA
ATOM     10  N   UNL     1       3.289  -0.100   0.476  0.00  0.00    +0.000 NA
BRANCH   9  17
ATOM     11  C   UNL     1       8.365   2.742   0.840  0.00  0.00    +0.000 C 
ATOM     12  C   UNL     1       7.616   1.487   0.615  0.00  0.00    +0.000 A 
ATOM     13  C   UNL     1       8.289   0.295   0.759  0.00  0.00    +0.000 A 
ATOM     14  C   UNL     1       7.628  -0.909   0.558  0.00  0.00    +0.000 A 
ATOM     15  C   UNL     1       6.273  -0.901   0.208  0.00  0.00    +0.000 A 
ATOM     16  C   UNL     1       5.645  -2.234   0.013  0.00  0.00    +0.000 C 
ATOM     17  C   UNL     1       5.590   0.287   0.061  0.00  0.00    +0.000 A 
ATOM     18  C   UNL     1       6.281   1.459   0.269  0.00  0.00    +0.000 A 
ENDBRANCH   9  17
ENDBRANCH   1  10
BRANCH   5  19
ATOM     19  N   UNL     1      -2.022  -0.053  -1.185  0.00  0.00    +0.000 NA
BRANCH  19  20
ATOM     20  N   UNL     1      -3.052   0.332  -0.308  0.00  0.00    +0.000 NA
ATOM     21  C   UNL     1      -4.229  -0.141  -0.559  0.00  0.00    +0.000 C 
ATOM     22  C   UNL     1      -4.502  -1.027  -1.683  0.00  0.00    +0.000 C 
ATOM     23  O   UNL     1      -3.563  -1.355  -2.453  0.00  0.00    +0.000 OA
ATOM     24  C   UNL     1      -5.862  -1.500  -1.873  0.00  0.00    +0.000 C 
ATOM     25  C   UNL     1      -6.827  -1.135  -1.044  0.00  0.00    +0.000 C 
ATOM     26  C   UNL     1      -6.569  -0.246   0.088  0.00  0.00    +0.000 A 
ATOM     27  C   UNL     1      -7.603   0.128   0.952  0.00  0.00    +0.000 A 
ATOM     28  C   UNL     1      -7.404   0.954   2.019  0.00  0.00    +0.000 A 
ATOM     29  C   UNL     1      -6.152   1.444   2.268  0.00  0.00    +0.000 A 
ATOM     30  C   UNL     1      -5.103   1.090   1.428  0.00  0.00    +0.000 A 
ATOM     31  C   UNL     1      -5.321   0.253   0.351  0.00  0.00    +0.000 A 
ENDBRANCH  19  20
ENDBRANCH   5  19
TORSDOF 4
