REMARK  Name = 
REMARK  7 active torsions:
REMARK  status: ('A' for Active; 'I' for Inactive)
REMARK    1  A    between atoms: C_2  and  O_3
REMARK    2  A    between atoms: O_3  and  C_4
REMARK    3  A    between atoms: C_9  and  N_10
REMARK    4  A    between atoms: C_11  and  C_13
REMARK    5  A    between atoms: C_14  and  N_15
REMARK    6  A    between atoms: N_15  and  C_16
REMARK    7  A    between atoms: C_16  and  C_17
REMARK                            x       y       z     vdW  Elec       q    Type
REMARK                         _______ _______ _______ _____ _____    ______ ____
ROOT
ATOM      1  C   UNL     1      -0.315  -0.358   0.797  0.00  0.00    +0.000 A 
ATOM      2  C   UNL     1      -1.562   0.005   1.250  0.00  0.00    +0.000 A 
ATOM      3  S   UNL     1      -2.380  -1.489   1.373  0.00  0.00    +0.000 S 
ATOM      4  C   UNL     1      -1.125  -2.528   0.848  0.00  0.00    +0.000 A 
ATOM      5  C   UNL     1      -0.097  -1.657   0.592  0.00  0.00    +0.000 A 
ATOM      6  C   UNL     1       1.095  -2.481   0.104  0.00  0.00    +0.000 C 
ATOM      7  C   UNL     1       0.611  -2.990  -1.198  0.00  0.00    +0.000 C 
ATOM      8  C   UNL     1      -0.517  -4.152  -0.984  0.00  0.00    +0.000 C 
ATOM      9  C   UNL     1      -1.759  -3.184  -1.459  0.00  0.00    +0.000 C 
ATOM     10  C   UNL     1      -0.822  -3.945   0.607  0.00  0.00    +0.000 C 
ENDROOT
BRANCH   1  12
ATOM     11  N   UNL     1       2.038   0.326   0.079  0.00  0.00    +0.000 NA
ATOM     12  C   UNL     1       0.735   0.663   0.549  0.00  0.00    +0.000 C 
ATOM     13  O   UNL     1       0.528   1.886   0.742  0.00  0.00    +0.000 OA
BRANCH  11  19
ATOM     14  C   UNL     1       4.261   0.959  -0.601  0.00  0.00    +0.000 A 
ATOM     15  C   UNL     1       5.244   1.914  -0.833  0.00  0.00    +0.000 A 
ATOM     16  C   UNL     1       5.019   3.259  -0.622  0.00  0.00    +0.000 A 
ATOM     17  C   UNL     1       3.768   3.620  -0.167  0.00  0.00    +0.000 A 
ATOM     18  C   UNL     1       2.772   2.673   0.071  0.00  0.00    +0.000 A 
ATOM     19  C   UNL     1       3.018   1.331  -0.147  0.00  0.00    +0.000 A 
BRANCH  14  20
ATOM     20  O   UNL     1       4.469  -0.396  -0.808  0.00  0.00    +0.000 OA
BRANCH  20  22
ATOM     21  C   UNL     1       6.084  -0.170  -2.610  0.00  0.00    +0.000 C 
ATOM     22  C   UNL     1       5.747  -0.794  -1.276  0.00  0.00    +0.000 C 
ENDBRANCH  20  22
ENDBRANCH  14  20
ENDBRANCH  11  19
ENDBRANCH   1  12
BRANCH   2  23
ATOM     23  N   UNL     1      -2.023   1.343   1.544  0.00  0.00    +0.000 NA
BRANCH  23  24
ATOM     24  C   UNL     1      -3.357   1.563   2.005  0.00  0.00    +0.000 C 
BRANCH  24  25
ATOM     25  C   UNL     1      -4.330   1.123   0.996  0.00  0.00    +0.000 A 
ATOM     26  C   UNL     1      -4.629   2.014  -0.035  0.00  0.00    +0.000 A 
ATOM     27  C   UNL     1      -5.539   1.637  -0.995  0.00  0.00    +0.000 A 
ATOM     28  C   UNL     1      -6.128   0.394  -0.911  0.00  0.00    +0.000 A 
ATOM     29  N   UNL     1      -5.846  -0.471   0.079  0.00  0.00    +0.000 NA
ATOM     30  C   UNL     1      -4.958  -0.096   1.010  0.00  0.00    +0.000 A 
ENDBRANCH  24  25
ENDBRANCH  23  24
ENDBRANCH   2  23
TORSDOF 7
