REMARK  Name = 
REMARK  6 active torsions:
REMARK  status: ('A' for Active; 'I' for Inactive)
REMARK    1  A    between atoms: O_2  and  C_3
REMARK    2  A    between atoms: C_8  and  C_9
REMARK    3  A    between atoms: C_9  and  C_10
REMARK    4  A    between atoms: C_9  and  C_22
REMARK    5  A    between atoms: C_10  and  C_11
REMARK    6  A    between atoms: N_13  and  C_14
REMARK                            x       y       z     vdW  Elec       q    Type
REMARK                         _______ _______ _______ _____ _____    ______ ____
ROOT
ATOM      1  C   UNL     1      -0.873  -1.219   1.076  0.00  0.00    +0.000 C 
ENDROOT
BRANCH   1   2
ATOM      2  C   UNL     1      -1.219   0.259   0.821  0.00  0.00    +0.000 A 
ATOM      3  C   UNL     1      -1.087   1.133   1.943  0.00  0.00    +0.000 A 
ATOM      4  N   UNL     1      -1.419   2.374   1.586  0.00  0.00    +0.000 NA
ATOM      5  C   UNL     1      -1.750   2.292   0.281  0.00  0.00    +0.000 A 
ATOM      6  C   UNL     1      -2.169   3.245  -0.602  0.00  0.00    +0.000 A 
ATOM      7  C   UNL     1      -2.460   2.930  -1.909  0.00  0.00    +0.000 A 
ATOM      8  C   UNL     1      -2.321   1.634  -2.313  0.00  0.00    +0.000 A 
ATOM      9  C   UNL     1      -1.898   0.675  -1.421  0.00  0.00    +0.000 A 
ATOM     10  C   UNL     1      -1.772  -0.706  -1.895  0.00  0.00    +0.000 C 
ATOM     11  N   UNL     1      -1.617   0.990  -0.152  0.00  0.00    +0.000 N 
ENDBRANCH   1   2
BRANCH   1  17
ATOM     12  C   UNL     1      -3.074  -1.745   1.981  0.00  0.00    +0.000 A 
ATOM     13  C   UNL     1      -4.256  -2.452   2.091  0.00  0.00    +0.000 A 
ATOM     14  C   UNL     1      -4.484  -3.505   1.228  0.00  0.00    +0.000 A 
ATOM     15  C   UNL     1      -3.542  -3.836   0.280  0.00  0.00    +0.000 A 
ATOM     16  C   UNL     1      -2.387  -3.103   0.214  0.00  0.00    +0.000 A 
ATOM     17  C   UNL     1      -2.139  -2.071   1.042  0.00  0.00    +0.000 A 
BRANCH  12  19
ATOM     18  C   UNL     1      -3.921  -0.380   3.862  0.00  0.00    +0.000 C 
ATOM     19  O   UNL     1      -2.929  -0.684   2.905  0.00  0.00    +0.000 OA
ENDBRANCH  12  19
ENDBRANCH   1  17
BRANCH   1  20
ATOM     20  C   UNL     1      -0.007  -1.640  -0.155  0.00  0.00    +0.000 C 
BRANCH  20  21
ATOM     21  C   UNL     1       1.209  -0.802  -0.098  0.00  0.00    +0.000 C 
ATOM     22  O   UNL     1       1.358   0.030   0.820  0.00  0.00    +0.000 OA
ATOM     23  N   UNL     1       2.251  -0.894  -1.061  0.00  0.00    +0.000 NA
BRANCH  23  24
ATOM     24  C   UNL     1       3.424  -0.096  -1.018  0.00  0.00    +0.000 A 
ATOM     25  C   UNL     1       3.507   0.796   0.028  0.00  0.00    +0.000 A 
ATOM     26  C   UNL     1       4.583   1.641   0.207  0.00  0.00    +0.000 A 
ATOM     27  C   UNL     1       5.610   1.576  -0.708  0.00  0.00    +0.000 A 
ATOM     28  C   UNL     1       6.823   2.461  -0.591  0.00  0.00    +0.000 C 
ATOM     29  C   UNL     1       5.517   0.677  -1.755  0.00  0.00    +0.000 A 
ATOM     30  C   UNL     1       6.609   0.579  -2.766  0.00  0.00    +0.000 C 
ATOM     31  C   UNL     1       4.433  -0.160  -1.918  0.00  0.00    +0.000 A 
ENDBRANCH  23  24
ENDBRANCH  20  21
ENDBRANCH   1  20
TORSDOF 6
