REMARK  Name = 
REMARK  7 active torsions:
REMARK  status: ('A' for Active; 'I' for Inactive)
REMARK    1  A    between atoms: O_2  and  C_3
REMARK    2  A    between atoms: C_7  and  N_8
REMARK    3  A    between atoms: C_9  and  C_11
REMARK    4  A    between atoms: C_16  and  S_17
REMARK    5  A    between atoms: S_17  and  C_18
REMARK    6  A    between atoms: C_23  and  C_24
REMARK    7  A    between atoms: C_27  and  C_28
REMARK                            x       y       z     vdW  Elec       q    Type
REMARK                         _______ _______ _______ _____ _____    ______ ____
ROOT
ATOM      1  N   UNL     1      -0.816  -1.294   0.990  0.00  0.00    +0.000 NA
ATOM      2  C   UNL     1       0.008  -0.312   1.596  0.00  0.00    +0.000 C 
ATOM      3  O   UNL     1      -0.224   0.894   1.393  0.00  0.00    +0.000 OA
ENDROOT
BRANCH   1   8
ATOM      4  C   UNL     1      -4.061  -0.462  -1.634  0.00  0.00    +0.000 A 
ATOM      5  C   UNL     1      -3.763  -1.754  -1.200  0.00  0.00    +0.000 A 
ATOM      6  C   UNL     1      -2.715  -2.000  -0.351  0.00  0.00    +0.000 A 
ATOM      7  C   UNL     1      -2.402  -3.392   0.105  0.00  0.00    +0.000 C 
ATOM      8  C   UNL     1      -1.893  -0.975   0.126  0.00  0.00    +0.000 A 
ATOM      9  C   UNL     1      -2.180   0.295  -0.295  0.00  0.00    +0.000 A 
ATOM     10  C   UNL     1      -3.224   0.559  -1.146  0.00  0.00    +0.000 A 
BRANCH  10  11
ATOM     11  C   UNL     1      -3.528   1.913  -1.642  0.00  0.00    +0.000 C 
ATOM     12  C   UNL     1      -2.758   3.011  -0.999  0.00  0.00    +0.000 C 
ATOM     13  C   UNL     1      -4.942   2.208  -1.925  0.00  0.00    +0.000 C 
ENDBRANCH  10  11
BRANCH   4  15
ATOM     14  C   UNL     1      -6.005  -1.077  -3.037  0.00  0.00    +0.000 C 
ATOM     15  O   UNL     1      -5.095  -0.180  -2.473  0.00  0.00    +0.000 OA
ENDBRANCH   4  15
ENDBRANCH   1   8
BRANCH   2  16
ATOM     16  C   UNL     1       1.128  -0.782   2.470  0.00  0.00    +0.000 A 
ATOM     17  C   UNL     1       1.005  -0.916   3.828  0.00  0.00    +0.000 A 
ATOM     18  C   UNL     1       2.022  -1.420   4.619  0.00  0.00    +0.000 A 
ATOM     19  C   UNL     1       3.197  -1.800   4.026  0.00  0.00    +0.000 A 
ATOM     20  C   UNL     1       3.351  -1.677   2.661  0.00  0.00    +0.000 A 
ATOM     21  C   UNL     1       2.318  -1.171   1.905  0.00  0.00    +0.000 A 
BRANCH  21  22
ATOM     22  S   UNL     1       2.515  -0.948   0.161  0.00  0.00    +0.000 S 
BRANCH  22  23
ATOM     23  C   UNL     1       3.228   0.680  -0.191  0.00  0.00    +0.000 A 
ATOM     24  C   UNL     1       3.635   1.552   0.758  0.00  0.00    +0.000 A 
ATOM     25  C   UNL     1       4.157   2.786   0.459  0.00  0.00    +0.000 A 
ATOM     26  C   UNL     1       4.290   3.207  -0.878  0.00  0.00    +0.000 A 
ATOM     27  C   UNL     1       3.874   2.314  -1.836  0.00  0.00    +0.000 A 
ATOM     28  C   UNL     1       3.353   1.076  -1.528  0.00  0.00    +0.000 A 
BRANCH  28  29
ATOM     29  C   UNL     1       2.932   0.201  -2.558  0.00  0.00    +0.000 C 
ATOM     30  N   UNL     1       2.594  -0.536  -3.404  0.00  0.00    +0.000 NA
ENDBRANCH  28  29
ENDBRANCH  22  23
ENDBRANCH  21  22
ENDBRANCH   2  16
TORSDOF 7
