REMARK  Name = 
REMARK  7 active torsions:
REMARK  status: ('A' for Active; 'I' for Inactive)
REMARK    1  A    between atoms: O_2  and  C_3
REMARK    2  A    between atoms: C_8  and  O_9
REMARK    3  A    between atoms: N_17  and  C_18
REMARK    4  A    between atoms: C_18  and  C_19
REMARK    5  A    between atoms: C_19  and  C_20
REMARK    6  A    between atoms: C_20  and  C_21
REMARK    7  A    between atoms: C_21  and  C_22
REMARK                            x       y       z     vdW  Elec       q    Type
REMARK                         _______ _______ _______ _____ _____    ______ ____
ROOT
ATOM      1  C   UNL     1      -4.654  -3.954   0.279  0.00  0.00    +0.000 A 
ATOM      2  C   UNL     1      -3.380  -4.369   0.572  0.00  0.00    +0.000 A 
ATOM      3  C   UNL     1      -2.317  -3.442   0.684  0.00  0.00    +0.000 A 
ATOM      4  C   UNL     1      -2.620  -2.118   0.486  0.00  0.00    +0.000 A 
ATOM      5  C   UNL     1      -3.921  -1.732   0.191  0.00  0.00    +0.000 A 
ATOM      6  C   UNL     1      -4.951  -2.630   0.083  0.00  0.00    +0.000 A 
ATOM      7  C   UNL     1      -1.550  -1.147   0.592  0.00  0.00    +0.000 A 
ATOM      8  C   UNL     1      -1.586   0.225   0.452  0.00  0.00    +0.000 A 
ATOM      9  C   UNL     1      -2.599   1.139   0.167  0.00  0.00    +0.000 A 
ATOM     10  N   UNL     1      -2.302   2.450   0.099  0.00  0.00    +0.000 NA
ATOM     11  N   UNL     1      -1.069   2.929   0.293  0.00  0.00    +0.000 NA
ATOM     12  C   UNL     1      -0.049   2.084   0.572  0.00  0.00    +0.000 A 
ATOM     13  N   UNL     1       1.259   2.606   0.775  0.00  0.00    +0.000 NA
ATOM     14  C   UNL     1      -0.324   0.742   0.648  0.00  0.00    +0.000 A 
ATOM     15  C   UNL     1       0.478  -0.347   0.910  0.00  0.00    +0.000 A 
ATOM     16  N   UNL     1      -0.296  -1.487   0.870  0.00  0.00    +0.000 N 
ATOM     17  C   UNL     1       0.069  -2.859   1.073  0.00  0.00    +0.000 C 
ATOM     18  C   UNL     1      -0.973  -3.868   0.998  0.00  0.00    +0.000 C 
ENDROOT
BRANCH   1  20
ATOM     19  C   UNL     1      -5.452  -6.284   0.368  0.00  0.00    +0.000 C 
ATOM     20  O   UNL     1      -5.656  -4.897   0.182  0.00  0.00    +0.000 OA
ENDBRANCH   1  20
BRANCH   6  21
ATOM     21  O   UNL     1      -6.263  -2.207  -0.218  0.00  0.00    +0.000 OA
ATOM     22  C   UNL     1      -6.518  -0.812  -0.417  0.00  0.00    +0.000 C 
ENDBRANCH   6  21
BRANCH  13  23
ATOM     23  C   UNL     1       1.531   4.029   0.686  0.00  0.00    +0.000 C 
BRANCH  23  24
ATOM     24  C   UNL     1       3.014   4.298   0.941  0.00  0.00    +0.000 C 
BRANCH  24  25
ATOM     25  C   UNL     1       3.844   3.573  -0.080  0.00  0.00    +0.000 C 
BRANCH  25  26
ATOM     26  C   UNL     1       5.327   3.797   0.125  0.00  0.00    +0.000 C 
BRANCH  26  27
ATOM     27  C   UNL     1       6.112   3.049  -0.920  0.00  0.00    +0.000 A 
ATOM     28  C   UNL     1       6.435   3.665  -2.110  0.00  0.00    +0.000 A 
ATOM     29  C   UNL     1       7.147   3.009  -3.092  0.00  0.00    +0.000 A 
ATOM     30  C   UNL     1       7.525   1.709  -2.839  0.00  0.00    +0.000 A 
ATOM     31  C   UNL     1       7.227   1.056  -1.670  0.00  0.00    +0.000 A 
ATOM     32  C   UNL     1       6.514   1.730  -0.700  0.00  0.00    +0.000 A 
ENDBRANCH  26  27
ENDBRANCH  25  26
ENDBRANCH  24  25
ENDBRANCH  23  24
ENDBRANCH  13  23
TORSDOF 7
