REMARK  Name = 
REMARK  7 active torsions:
REMARK  status: ('A' for Active; 'I' for Inactive)
REMARK    1  A    between atoms: O_2  and  C_3
REMARK    2  A    between atoms: C_8  and  N_9
REMARK    3  A    between atoms: N_9  and  C_10
REMARK    4  A    between atoms: C_11  and  S_12
REMARK    5  A    between atoms: S_12  and  C_13
REMARK    6  A    between atoms: N_21  and  C_22
REMARK    7  A    between atoms: C_25  and  C_26
REMARK                            x       y       z     vdW  Elec       q    Type
REMARK                         _______ _______ _______ _____ _____    ______ ____
ROOT
ATOM      1  C   UNL     1      -1.128  -0.771  -0.755  0.00  0.00    +0.000 C 
ATOM      2  C   UNL     1      -1.078   0.545  -0.656  0.00  0.00    +0.000 C 
ATOM      3  C   UNL     1       0.304   0.967  -0.408  0.00  0.00    +0.000 C 
ATOM      4  O   UNL     1       0.741   2.159  -0.257  0.00  0.00    +0.000 OA
ATOM      5  N   UNL     1       1.119  -0.191  -0.358  0.00  0.00    +0.000 N 
ATOM      6  C   UNL     1       0.212  -1.292  -0.578  0.00  0.00    +0.000 C 
ATOM      7  O   UNL     1       0.565  -2.484  -0.603  0.00  0.00    +0.000 OA
ENDROOT
BRANCH   5   8
ATOM      8  C   UNL     1       2.517  -0.270  -0.130  0.00  0.00    +0.000 A 
ATOM      9  C   UNL     1       3.190   0.812   0.392  0.00  0.00    +0.000 A 
ATOM     10  C   UNL     1       4.548   0.734   0.626  0.00  0.00    +0.000 A 
ATOM     11  C   UNL     1       5.245  -0.413   0.344  0.00  0.00    +0.000 A 
ATOM     12  C   UNL     1       4.589  -1.487  -0.173  0.00  0.00    +0.000 A 
ATOM     13  C   UNL     1       3.228  -1.422  -0.412  0.00  0.00    +0.000 A 
BRANCH  11  14
ATOM     14  C   UNL     1       6.700  -0.459   0.610  0.00  0.00    +0.000 C 
ATOM     15  C   UNL     1       7.081   0.629   1.590  0.00  0.00    +0.000 C 
ATOM     16  C   UNL     1       7.470  -0.318  -0.667  0.00  0.00    +0.000 C 
ENDBRANCH  11  14
ENDBRANCH   5   8
BRANCH   1  17
ATOM     17  N   UNL     1      -2.332  -1.542  -0.985  0.00  0.00    +0.000 NA
BRANCH  17  23
ATOM     18  C   UNL     1      -4.004  -3.026  -0.022  0.00  0.00    +0.000 A 
ATOM     19  C   UNL     1      -4.510  -3.738   1.066  0.00  0.00    +0.000 A 
ATOM     20  C   UNL     1      -3.885  -3.703   2.290  0.00  0.00    +0.000 A 
ATOM     21  C   UNL     1      -2.744  -2.946   2.411  0.00  0.00    +0.000 A 
ATOM     22  C   UNL     1      -2.228  -2.237   1.352  0.00  0.00    +0.000 A 
ATOM     23  C   UNL     1      -2.859  -2.272   0.117  0.00  0.00    +0.000 A 
BRANCH  18  25
ATOM     24  C   UNL     1      -5.807  -3.841  -1.378  0.00  0.00    +0.000 C 
ATOM     25  O   UNL     1      -4.628  -3.053  -1.267  0.00  0.00    +0.000 OA
ENDBRANCH  18  25
ENDBRANCH  17  23
ENDBRANCH   1  17
BRANCH   2  26
ATOM     26  S   UNL     1      -2.473   1.669  -0.784  0.00  0.00    +0.000 S 
BRANCH  26  27
ATOM     27  C   UNL     1      -1.996   3.354  -0.534  0.00  0.00    +0.000 A 
ATOM     28  C   UNL     1      -1.615   4.223  -1.538  0.00  0.00    +0.000 A 
ATOM     29  C   UNL     1      -1.257   5.526  -1.248  0.00  0.00    +0.000 A 
ATOM     30  C   UNL     1      -1.285   5.951   0.074  0.00  0.00    +0.000 A 
ATOM     31  C   UNL     1      -1.666   5.086   1.095  0.00  0.00    +0.000 A 
ATOM     32  C   UNL     1      -2.014   3.810   0.785  0.00  0.00    +0.000 A 
ENDBRANCH  26  27
ENDBRANCH   2  26
TORSDOF 7
