REMARK  Name = 
REMARK  8 active torsions:
REMARK  status: ('A' for Active; 'I' for Inactive)
REMARK    1  A    between atoms: C_2  and  C_3
REMARK    2  A    between atoms: C_3  and  C_4
REMARK    3  A    between atoms: C_4  and  O_5
REMARK    4  A    between atoms: O_5  and  C_6
REMARK    5  A    between atoms: C_10  and  C_11
REMARK    6  A    between atoms: C_21  and  O_22
REMARK    7  A    between atoms: O_22  and  C_23
REMARK    8  A    between atoms: C_23  and  C_24
REMARK                            x       y       z     vdW  Elec       q    Type
REMARK                         _______ _______ _______ _____ _____    ______ ____
ROOT
ATOM      1  C   UNL     1      -1.900  -0.664  -1.560  0.00  0.00    +0.000 C 
ATOM      2  N   UNL     1      -1.541   0.846  -1.085  0.00  0.00    +0.000 NA
ATOM      3  C   UNL     1      -0.588   1.269  -2.086  0.00  0.00    +0.000 C 
ATOM      4  C   UNL     1       0.576   0.324  -2.208  0.00  0.00    +0.000 C 
ATOM      5  C   UNL     1       0.506  -0.744  -1.176  0.00  0.00    +0.000 A 
ATOM      6  C   UNL     1      -0.667  -1.315  -0.768  0.00  0.00    +0.000 A 
ATOM      7  N   UNL     1      -0.475  -2.210   0.128  0.00  0.00    +0.000 NA
ATOM      8  C   UNL     1       0.823  -2.312   0.392  0.00  0.00    +0.000 A 
ATOM      9  C   UNL     1       1.571  -3.082   1.237  0.00  0.00    +0.000 A 
ATOM     10  C   UNL     1       2.955  -2.973   1.306  0.00  0.00    +0.000 A 
ATOM     11  C   UNL     1       3.589  -2.044   0.481  0.00  0.00    +0.000 A 
ATOM     12  C   UNL     1       2.838  -1.265  -0.373  0.00  0.00    +0.000 A 
ATOM     13  C   UNL     1       1.466  -1.403  -0.412  0.00  0.00    +0.000 A 
ENDROOT
BRANCH   1  18
ATOM     14  C   UNL     1      -4.942  -0.136   0.759  0.00  0.00    +0.000 A 
ATOM     15  C   UNL     1      -4.950  -1.330   1.431  0.00  0.00    +0.000 A 
ATOM     16  C   UNL     1      -4.022  -2.312   1.183  0.00  0.00    +0.000 A 
ATOM     17  C   UNL     1      -3.038  -2.063   0.198  0.00  0.00    +0.000 A 
ATOM     18  C   UNL     1      -3.029  -0.877  -0.471  0.00  0.00    +0.000 A 
ATOM     19  C   UNL     1      -3.948   0.058  -0.203  0.00  0.00    +0.000 A 
BRANCH  14  20
ATOM     20  O   UNL     1      -5.869   0.863   0.998  0.00  0.00    +0.000 OA
BRANCH  20  21
ATOM     21  C   UNL     1      -5.788   2.062   0.260  0.00  0.00    +0.000 C 
BRANCH  21  22
ATOM     22  C   UNL     1      -4.436   2.739   0.505  0.00  0.00    +0.000 C 
BRANCH  22  24
ATOM     23  C   UNL     1      -5.393   4.988   0.148  0.00  0.00    +0.000 C 
ATOM     24  C   UNL     1      -4.311   4.014  -0.258  0.00  0.00    +0.000 C 
ENDBRANCH  22  24
ENDBRANCH  21  22
ENDBRANCH  20  21
ENDBRANCH  14  20
ENDBRANCH   1  18
BRANCH  11  25
ATOM     25  O   UNL     1       4.969  -1.901   0.517  0.00  0.00    +0.000 OA
BRANCH  25  26
ATOM     26  C   UNL     1       5.713  -1.001  -0.264  0.00  0.00    +0.000 C 
BRANCH  26  27
ATOM     27  C   UNL     1       5.347   0.400  -0.029  0.00  0.00    +0.000 A 
ATOM     28  C   UNL     1       4.463   1.049  -0.864  0.00  0.00    +0.000 A 
ATOM     29  C   UNL     1       4.099   2.352  -0.676  0.00  0.00    +0.000 A 
ATOM     30  C   UNL     1       4.616   3.087   0.382  0.00  0.00    +0.000 A 
ATOM     31  C   UNL     1       5.509   2.442   1.230  0.00  0.00    +0.000 A 
ATOM     32  C   UNL     1       5.855   1.138   1.019  0.00  0.00    +0.000 A 
ENDBRANCH  26  27
ENDBRANCH  25  26
ENDBRANCH  11  25
TORSDOF 8
