REMARK  Name = 
REMARK  9 active torsions:
REMARK  status: ('A' for Active; 'I' for Inactive)
REMARK    1  A    between atoms: C_2  and  N_3
REMARK    2  A    between atoms: N_3  and  C_4
REMARK    3  A    between atoms: N_3  and  C_6
REMARK    4  A    between atoms: C_9  and  C_10
REMARK    5  A    between atoms: C_10  and  O_12
REMARK    6  A    between atoms: O_12  and  C_13
REMARK    7  A    between atoms: C_13  and  C_14
REMARK    8  A    between atoms: N_16  and  C_17
REMARK    9  A    between atoms: C_22  and  C_23
REMARK                            x       y       z     vdW  Elec       q    Type
REMARK                         _______ _______ _______ _____ _____    ______ ____
ROOT
ATOM      1  C   UNL     1      -0.601   1.262   0.454  0.00  0.00    +0.000 C 
ENDROOT
BRANCH   1   2
ATOM      2  C   UNL     1      -1.371   0.142  -0.111  0.00  0.00    +0.000 C 
ATOM      3  O   UNL     1      -0.812  -0.854  -0.676  0.00  0.00    +0.000 OA
ATOM      4  N   UNL     1      -2.782   0.123  -0.051  0.00  0.00    +0.000 NA
BRANCH   4   5
ATOM      5  C   UNL     1      -3.593  -0.916  -0.570  0.00  0.00    +0.000 A 
ATOM      6  C   UNL     1      -3.147  -2.043  -1.198  0.00  0.00    +0.000 A 
ATOM      7  C   UNL     1      -3.978  -3.028  -1.685  0.00  0.00    +0.000 A 
ATOM      8  C   UNL     1      -5.334  -2.868  -1.531  0.00  0.00    +0.000 A 
ATOM      9  C   UNL     1      -5.828  -1.738  -0.898  0.00  0.00    +0.000 A 
ATOM     10  C   UNL     1      -4.973  -0.764  -0.418  0.00  0.00    +0.000 A 
BRANCH  10  11
ATOM     11  C   UNL     1      -5.524   0.415   0.240  0.00  0.00    +0.000 A 
ATOM     12  C   UNL     1      -5.032   1.662  -0.096  0.00  0.00    +0.000 A 
ATOM     13  C   UNL     1      -5.491   2.831   0.473  0.00  0.00    +0.000 A 
ATOM     14  C   UNL     1      -6.500   2.741   1.434  0.00  0.00    +0.000 A 
ATOM     15  C   UNL     1      -7.001   1.511   1.780  0.00  0.00    +0.000 A 
ATOM     16  C   UNL     1      -6.510   0.362   1.182  0.00  0.00    +0.000 A 
ENDBRANCH  10  11
ENDBRANCH   4   5
ENDBRANCH   1   2
BRANCH   1  17
ATOM     17  O   UNL     1       0.780   1.143   0.322  0.00  0.00    +0.000 OA
BRANCH  17  18
ATOM     18  C   UNL     1       1.569   0.127   0.831  0.00  0.00    +0.000 C 
ATOM     19  O   UNL     1       0.992  -0.783   1.476  0.00  0.00    +0.000 OA
BRANCH  18  23
ATOM     20  C   UNL     1       5.824   0.179   0.186  0.00  0.00    +0.000 A 
ATOM     21  C   UNL     1       5.198  -0.825   0.885  0.00  0.00    +0.000 A 
ATOM     22  C   UNL     1       3.830  -0.873   1.109  0.00  0.00    +0.000 A 
ATOM     23  C   UNL     1       3.021   0.128   0.617  0.00  0.00    +0.000 A 
ATOM     24  C   UNL     1       3.624   1.145  -0.085  0.00  0.00    +0.000 A 
ATOM     25  C   UNL     1       4.982   1.189  -0.306  0.00  0.00    +0.000 A 
BRANCH  20  26
ATOM     26  N   UNL     1       7.219   0.229  -0.040  0.00  0.00    +0.000 N 
BRANCH  26  28
ATOM     27  C   UNL     1       7.259  -1.856   1.209  0.00  0.00    +0.000 C 
ATOM     28  C   UNL     1       8.062  -0.819   0.472  0.00  0.00    +0.000 C 
ENDBRANCH  26  28
BRANCH  26  29
ATOM     29  C   UNL     1       7.793   1.345  -0.789  0.00  0.00    +0.000 C 
ATOM     30  C   UNL     1       8.323   0.833  -2.128  0.00  0.00    +0.000 C 
ENDBRANCH  26  29
ENDBRANCH  20  26
ENDBRANCH  18  23
ENDBRANCH  17  18
ENDBRANCH   1  17
TORSDOF 9
