REMARK  Name = 
REMARK  9 active torsions:
REMARK  status: ('A' for Active; 'I' for Inactive)
REMARK    1  A    between atoms: C_2  and  O_3
REMARK    2  A    between atoms: O_3  and  C_4
REMARK    3  A    between atoms: C_4  and  C_6
REMARK    4  A    between atoms: C_7  and  N_8
REMARK    5  A    between atoms: N_8  and  C_9
REMARK    6  A    between atoms: C_9  and  N_11
REMARK    7  A    between atoms: C_12  and  C_14
REMARK    8  A    between atoms: C_27  and  C_28
REMARK    9  A    between atoms: C_27  and  C_30
REMARK                            x       y       z     vdW  Elec       q    Type
REMARK                         _______ _______ _______ _____ _____    ______ ____
ROOT
ATOM      1  C   UNL     1      -1.966   0.475   0.281  0.00  0.00    +0.000 C 
ATOM      2  C   UNL     1      -1.103  -0.551   0.353  0.00  0.00    +0.000 C 
ATOM      3  C   UNL     1      -1.571  -1.858   0.754  0.00  0.00    +0.000 A 
ATOM      4  C   UNL     1      -0.700  -2.940   0.701  0.00  0.00    +0.000 A 
ATOM      5  C   UNL     1      -1.227  -4.181   0.987  0.00  0.00    +0.000 A 
ATOM      6  C   UNL     1      -2.564  -4.360   1.314  0.00  0.00    +0.000 A 
ATOM      7  C   UNL     1      -3.416  -3.277   1.364  0.00  0.00    +0.000 A 
ATOM      8  C   UNL     1      -2.885  -2.047   1.081  0.00  0.00    +0.000 A 
ATOM      9  C   UNL     1      -3.802  -0.858   1.266  0.00  0.00    +0.000 C 
ATOM     10  C   UNL     1      -3.397   0.126   0.216  0.00  0.00    +0.000 C 
ENDROOT
BRANCH   1  11
ATOM     11  C   UNL     1      -1.464   1.827   0.109  0.00  0.00    +0.000 C 
ATOM     12  O   UNL     1      -0.188   1.966   0.008  0.00  0.00    +0.000 OA
BRANCH  11  13
ATOM     13  O   UNL     1      -2.179   2.974   0.047  0.00  0.00    +0.000 OA
BRANCH  13  15
ATOM     14  C   UNL     1      -0.912   4.455  -1.386  0.00  0.00    +0.000 C 
ATOM     15  C   UNL     1      -1.683   4.269  -0.114  0.00  0.00    +0.000 C 
ENDBRANCH  13  15
ENDBRANCH  11  13
ENDBRANCH   1  11
BRANCH  10  16
ATOM     16  C   UNL     1      -4.336   1.254   0.022  0.00  0.00    +0.000 C 
ATOM     17  C   UNL     1      -4.066   1.918  -1.307  0.00  0.00    +0.000 C 
ENDBRANCH  10  16
BRANCH  10  18
ATOM     18  C   UNL     1      -3.465  -0.755  -1.125  0.00  0.00    +0.000 C 
ATOM     19  C   UNL     1      -4.941  -1.119  -1.196  0.00  0.00    +0.000 C 
ENDBRANCH  10  18
BRANCH   2  20
ATOM     20  N   UNL     1       0.294  -0.289   0.235  0.00  0.00    +0.000 NA
BRANCH  20  21
ATOM     21  C   UNL     1       1.092  -0.803  -0.803  0.00  0.00    +0.000 C 
ATOM     22  S   UNL     1       0.406  -1.749  -1.942  0.00  0.00    +0.000 S 
BRANCH  21  23
ATOM     23  N   UNL     1       2.483  -0.545  -0.924  0.00  0.00    +0.000 NA
ATOM     24  C   UNL     1       3.192   0.272   0.016  0.00  0.00    +0.000 C 
ATOM     25  O   UNL     1       2.499   0.743   0.954  0.00  0.00    +0.000 OA
BRANCH  24  26
ATOM     26  C   UNL     1       4.612   0.540  -0.101  0.00  0.00    +0.000 A 
ATOM     27  C   UNL     1       5.403   0.045  -1.110  0.00  0.00    +0.000 A 
ATOM     28  C   UNL     1       6.772   0.344  -1.162  0.00  0.00    +0.000 A 
ATOM     29  C   UNL     1       7.342   1.144  -0.197  0.00  0.00    +0.000 A 
ATOM     30  C   UNL     1       6.559   1.643   0.814  0.00  0.00    +0.000 A 
ATOM     31  C   UNL     1       5.212   1.335   0.846  0.00  0.00    +0.000 A 
ENDBRANCH  24  26
ENDBRANCH  21  23
ENDBRANCH  20  21
ENDBRANCH   2  20
TORSDOF 9
