REMARK  Name = 
REMARK  6 active torsions:
REMARK  status: ('A' for Active; 'I' for Inactive)
REMARK    1  A    between atoms: O_2  and  C_3
REMARK    2  A    between atoms: C_6  and  C_7
REMARK    3  A    between atoms: C_9  and  C_10
REMARK    4  A    between atoms: N_12  and  C_13
REMARK    5  A    between atoms: C_16  and  C_17
REMARK    6  A    between atoms: C_29  and  O_30
REMARK                            x       y       z     vdW  Elec       q    Type
REMARK                         _______ _______ _______ _____ _____    ______ ____
ROOT
ATOM      1  C   UNL     1       2.552  -0.174   0.411  0.00  0.00    +0.000 A 
ATOM      2  C   UNL     1       1.295   0.204  -0.036  0.00  0.00    +0.000 A 
ATOM      3  C   UNL     1       0.210  -0.534   0.379  0.00  0.00    +0.000 A 
ATOM      4  C   UNL     1       0.394  -1.615   1.215  0.00  0.00    +0.000 A 
ATOM      5  C   UNL     1      -0.680  -2.368   1.642  0.00  0.00    +0.000 A 
ATOM      6  C   UNL     1      -0.498  -3.442   2.473  0.00  0.00    +0.000 A 
ATOM      7  C   UNL     1       0.758  -3.784   2.892  0.00  0.00    +0.000 A 
ATOM      8  C   UNL     1       1.822  -3.033   2.465  0.00  0.00    +0.000 A 
ATOM      9  C   UNL     1       1.660  -1.965   1.641  0.00  0.00    +0.000 A 
ATOM     10  N   UNL     1       2.712  -1.219   1.217  0.00  0.00    +0.000 NA
ENDROOT
BRANCH   1  14
ATOM     11  C   UNL     1       5.961   2.039  -0.812  0.00  0.00    +0.000 A 
ATOM     12  C   UNL     1       6.095   0.944   0.028  0.00  0.00    +0.000 A 
ATOM     13  C   UNL     1       4.988   0.228   0.424  0.00  0.00    +0.000 A 
ATOM     14  C   UNL     1       3.736   0.585  -0.006  0.00  0.00    +0.000 A 
ATOM     15  C   UNL     1       3.583   1.655  -0.830  0.00  0.00    +0.000 A 
ATOM     16  C   UNL     1       4.688   2.357  -1.215  0.00  0.00    +0.000 A 
BRANCH  11  18
ATOM     17  C   UNL     1       6.840   3.880  -2.082  0.00  0.00    +0.000 C 
ATOM     18  O   UNL     1       7.057   2.776  -1.224  0.00  0.00    +0.000 OA
ENDBRANCH  11  18
BRANCH  15  19
ATOM     19  O   UNL     1       2.339   2.071  -1.304  0.00  0.00    +0.000 OA
ATOM     20  C   UNL     1       2.200   3.176  -2.153  0.00  0.00    +0.000 C 
ENDBRANCH  15  19
ENDBRANCH   1  14
BRANCH   3  21
ATOM     21  C   UNL     1      -1.134  -0.198  -0.048  0.00  0.00    +0.000 C 
ATOM     22  O   UNL     1      -1.377   0.783  -0.816  0.00  0.00    +0.000 OA
ATOM     23  N   UNL     1      -2.216  -0.964   0.389  0.00  0.00    +0.000 NA
BRANCH  23  24
ATOM     24  C   UNL     1      -3.557  -0.696   0.013  0.00  0.00    +0.000 A 
ATOM     25  C   UNL     1      -3.827   0.370  -0.823  0.00  0.00    +0.000 A 
ATOM     26  C   UNL     1      -5.149   0.582  -1.153  0.00  0.00    +0.000 A 
ATOM     27  C   UNL     1      -6.176  -0.222  -0.681  0.00  0.00    +0.000 A 
ATOM     28  C   UNL     1      -5.877  -1.266   0.142  0.00  0.00    +0.000 A 
ATOM     29  C   UNL     1      -4.565  -1.510   0.495  0.00  0.00    +0.000 A 
BRANCH  27  30
ATOM     30  C   UNL     1      -7.556   0.117  -1.115  0.00  0.00    +0.000 C 
ATOM     31  C   UNL     1      -7.684   1.532  -1.578  0.00  0.00    +0.000 C 
ATOM     32  C   UNL     1      -8.594  -0.306  -0.130  0.00  0.00    +0.000 C 
ENDBRANCH  27  30
ENDBRANCH  23  24
ENDBRANCH   3  21
TORSDOF 6
