REMARK  Name = 
REMARK  6 active torsions:
REMARK  status: ('A' for Active; 'I' for Inactive)
REMARK    1  A    between atoms: C_10  and  C_11
REMARK    2  A    between atoms: C_18  and  C_19
REMARK    3  A    between atoms: C_22  and  O_23
REMARK    4  A    between atoms: O_23  and  C_24
REMARK    5  A    between atoms: C_24  and  C_25
REMARK    6  A    between atoms: C_25  and  N_26
REMARK                            x       y       z     vdW  Elec       q    Type
REMARK                         _______ _______ _______ _____ _____    ______ ____
ROOT
ATOM      1  O   UNL     1      -2.623   3.149  -4.678  0.00  0.00    +0.000 OA
ATOM      2  C   UNL     1      -2.566   2.580  -3.406  0.00  0.00    +0.000 A 
ATOM      3  C   UNL     1      -2.504   3.366  -2.276  0.00  0.00    +0.000 A 
ATOM      4  C   UNL     1      -2.447   2.815  -1.015  0.00  0.00    +0.000 A 
ATOM      5  C   UNL     1      -2.450   1.447  -0.838  0.00  0.00    +0.000 A 
ATOM      6  C   UNL     1      -2.510   0.661  -1.928  0.00  0.00    +0.000 A 
ATOM      7  C   UNL     1      -2.569   1.213  -3.231  0.00  0.00    +0.000 A 
ATOM      8  O   UNL     1      -2.519  -0.752  -1.855  0.00  0.00    +0.000 OA
ATOM      9  C   UNL     1      -2.302  -1.345  -0.559  0.00  0.00    +0.000 C 
ATOM     10  C   UNL     1      -3.316  -0.497   0.368  0.00  0.00    +0.000 C 
ATOM     11  C   UNL     1      -2.389   0.850   0.560  0.00  0.00    +0.000 C 
ENDROOT
BRANCH  10  12
ATOM     12  C   UNL     1      -2.952  -1.218   1.737  0.00  0.00    +0.000 A 
ATOM     13  C   UNL     1      -2.984  -0.400   2.867  0.00  0.00    +0.000 A 
ATOM     14  C   UNL     1      -2.684  -0.963   4.091  0.00  0.00    +0.000 A 
ATOM     15  C   UNL     1      -2.363  -2.300   4.174  0.00  0.00    +0.000 A 
ATOM     16  F   UNL     1      -2.059  -2.902   5.355  0.00  0.00    +0.000 F 
ATOM     17  C   UNL     1      -2.344  -3.074   3.022  0.00  0.00    +0.000 A 
ATOM     18  C   UNL     1      -2.644  -2.513   1.796  0.00  0.00    +0.000 A 
ENDBRANCH  10  12
BRANCH  11  19
ATOM     19  C   UNL     1      -0.989   0.264   0.656  0.00  0.00    +0.000 A 
ATOM     20  C   UNL     1      -0.343  -0.081  -0.487  0.00  0.00    +0.000 A 
ATOM     21  C   UNL     1       0.952  -0.626  -0.481  0.00  0.00    +0.000 A 
ATOM     22  C   UNL     1       1.563  -0.807   0.733  0.00  0.00    +0.000 A 
ATOM     23  C   UNL     1       0.944  -0.471   1.915  0.00  0.00    +0.000 A 
ATOM     24  C   UNL     1      -0.337   0.064   1.837  0.00  0.00    +0.000 A 
BRANCH  22  25
ATOM     25  O   UNL     1       2.852  -1.348   0.773  0.00  0.00    +0.000 OA
BRANCH  25  26
ATOM     26  C   UNL     1       3.533  -1.710  -0.410  0.00  0.00    +0.000 C 
BRANCH  26  27
ATOM     27  C   UNL     1       3.712  -0.523  -1.309  0.00  0.00    +0.000 C 
BRANCH  27  28
ATOM     28  N   UNL     1       4.485   0.533  -0.659  0.00  0.00    +0.000 NA
ATOM     29  C   UNL     1       4.668   1.669  -1.499  0.00  0.00    +0.000 C 
ATOM     30  C   UNL     1       5.682   1.438  -2.600  0.00  0.00    +0.000 C 
ATOM     31  C   UNL     1       6.904   0.706  -2.076  0.00  0.00    +0.000 C 
ATOM     32  C   UNL     1       6.924   0.735  -0.542  0.00  0.00    +0.000 C 
ATOM     33  C   UNL     1       5.677   0.041  -0.034  0.00  0.00    +0.000 C 
ENDBRANCH  27  28
ENDBRANCH  26  27
ENDBRANCH  25  26
ENDBRANCH  22  25
ENDBRANCH  11  19
TORSDOF 6
