REMARK  Name = 
REMARK  7 active torsions:
REMARK  status: ('A' for Active; 'I' for Inactive)
REMARK    1  A    between atoms: C_3  and  C_4
REMARK    2  A    between atoms: N_6  and  C_7
REMARK    3  A    between atoms: C_7  and  C_9
REMARK    4  A    between atoms: C_9  and  C_10
REMARK    5  A    between atoms: C_10  and  C_11
REMARK    6  A    between atoms: N_24  and  C_25
REMARK    7  A    between atoms: C_25  and  C_26
REMARK                            x       y       z     vdW  Elec       q    Type
REMARK                         _______ _______ _______ _____ _____    ______ ____
ROOT
ATOM      1  C   UNL     1      -1.335   2.016   0.921  0.00  0.00    +0.000 C 
ATOM      2  C   UNL     1      -1.670   0.623   0.518  0.00  0.00    +0.000 A 
ATOM      3  C   UNL     1      -0.802  -0.276  -0.031  0.00  0.00    +0.000 A 
ATOM      4  C   UNL     1      -1.520  -1.446  -0.254  0.00  0.00    +0.000 A 
ATOM      5  C   UNL     1      -1.162  -2.670  -0.783  0.00  0.00    +0.000 A 
ATOM      6  C   UNL     1      -2.106  -3.669  -0.885  0.00  0.00    +0.000 A 
ATOM      7  O   UNL     1      -1.750  -4.905  -1.417  0.00  0.00    +0.000 OA
ATOM      8  C   UNL     1      -3.393  -3.429  -0.458  0.00  0.00    +0.000 A 
ATOM      9  C   UNL     1      -3.716  -2.197   0.064  0.00  0.00    +0.000 A 
ATOM     10  C   UNL     1      -2.806  -1.174   0.184  0.00  0.00    +0.000 A 
ATOM     11  N   UNL     1      -2.897   0.086   0.654  0.00  0.00    +0.000 N 
ENDROOT
BRANCH   3  12
ATOM     12  C   UNL     1       0.619  -0.124  -0.356  0.00  0.00    +0.000 C 
ATOM     13  O   UNL     1       1.263  -1.066  -0.859  0.00  0.00    +0.000 OA
ATOM     14  N   UNL     1       1.240   1.069  -0.101  0.00  0.00    +0.000 NA
BRANCH  14  15
ATOM     15  C   UNL     1       2.724   1.372  -0.389  0.00  0.00    +0.000 C 
ATOM     16  C   UNL     1       3.223   0.960   1.146  0.00  0.00    +0.000 C 
BRANCH  15  17
ATOM     17  C   UNL     1       3.111  -0.076  -1.010  0.00  0.00    +0.000 C 
BRANCH  17  18
ATOM     18  C   UNL     1       4.570   0.037  -1.371  0.00  0.00    +0.000 C 
BRANCH  18  19
ATOM     19  C   UNL     1       5.457   0.342  -0.254  0.00  0.00    +0.000 A 
ATOM     20  C   UNL     1       6.011  -0.662   0.514  0.00  0.00    +0.000 A 
ATOM     21  C   UNL     1       6.853  -0.362   1.560  0.00  0.00    +0.000 A 
ATOM     22  C   UNL     1       7.142   0.940   1.840  0.00  0.00    +0.000 A 
ATOM     23  C   UNL     1       6.616   1.977   1.106  0.00  0.00    +0.000 A 
ATOM     24  C   UNL     1       5.780   1.653   0.069  0.00  0.00    +0.000 A 
ENDBRANCH  18  19
ENDBRANCH  17  18
ENDBRANCH  15  17
ENDBRANCH  14  15
ENDBRANCH   3  12
BRANCH  11  25
ATOM     25  C   UNL     1      -4.104   0.702   1.192  0.00  0.00    +0.000 C 
BRANCH  25  26
ATOM     26  C   UNL     1      -4.860   1.369   0.094  0.00  0.00    +0.000 A 
ATOM     27  C   UNL     1      -4.678   2.651  -0.279  0.00  0.00    +0.000 A 
ATOM     28  C   UNL     1      -5.410   3.127  -1.267  0.00  0.00    +0.000 A 
ATOM     29  C   UNL     1      -6.316   2.297  -1.862  0.00  0.00    +0.000 A 
ATOM     30  S   UNL     1      -6.085   0.836  -0.971  0.00  0.00    +0.000 S 
ENDBRANCH  25  26
ENDBRANCH  11  25
TORSDOF 7
