REMARK  Name = 
REMARK  9 active torsions:
REMARK  status: ('A' for Active; 'I' for Inactive)
REMARK    1  A    between atoms: O_2  and  C_3
REMARK    2  A    between atoms: C_6  and  C_7
REMARK    3  A    between atoms: N_15  and  C_16
REMARK    4  A    between atoms: C_16  and  C_17
REMARK    5  A    between atoms: C_17  and  C_19
REMARK    6  A    between atoms: C_19  and  N_20
REMARK    7  A    between atoms: N_20  and  C_21
REMARK    8  A    between atoms: C_21  and  C_22
REMARK    9  A    between atoms: C_22  and  C_23
REMARK                            x       y       z     vdW  Elec       q    Type
REMARK                         _______ _______ _______ _____ _____    ______ ____
ROOT
ATOM      1  C   UNL     1      -2.364  -0.843   0.220  0.00  0.00    +0.000 A 
ATOM      2  C   UNL     1      -2.473  -2.104   0.771  0.00  0.00    +0.000 A 
ATOM      3  C   UNL     1      -1.359  -2.800   0.337  0.00  0.00    +0.000 A 
ATOM      4  C   UNL     1      -0.941  -4.106   0.574  0.00  0.00    +0.000 A 
ATOM      5  C   UNL     1       0.235  -4.577   0.014  0.00  0.00    +0.000 A 
ATOM      6  C   UNL     1       0.984  -3.734  -0.779  0.00  0.00    +0.000 A 
ATOM      7  C   UNL     1       0.568  -2.420  -1.019  0.00  0.00    +0.000 A 
ATOM      8  C   UNL     1      -0.609  -1.943  -0.461  0.00  0.00    +0.000 A 
ATOM      9  N   UNL     1      -1.242  -0.762  -0.516  0.00  0.00    +0.000 N 
ENDROOT
BRANCH   1  13
ATOM     10  C   UNL     1      -5.156   2.348   0.771  0.00  0.00    +0.000 A 
ATOM     11  C   UNL     1      -5.339   1.122   1.368  0.00  0.00    +0.000 A 
ATOM     12  C   UNL     1      -4.445   0.063   1.206  0.00  0.00    +0.000 A 
ATOM     13  C   UNL     1      -3.327   0.227   0.423  0.00  0.00    +0.000 A 
ATOM     14  C   UNL     1      -3.138   1.452  -0.177  0.00  0.00    +0.000 A 
ATOM     15  C   UNL     1      -4.022   2.497  -0.018  0.00  0.00    +0.000 A 
BRANCH  10  17
ATOM     16  C   UNL     1      -5.793   4.667   0.274  0.00  0.00    +0.000 C 
ATOM     17  O   UNL     1      -6.018   3.421   0.906  0.00  0.00    +0.000 OA
ENDBRANCH  10  17
ENDBRANCH   1  13
BRANCH   9  18
ATOM     18  C   UNL     1      -0.853   0.434  -1.212  0.00  0.00    +0.000 C 
BRANCH  18  19
ATOM     19  C   UNL     1       0.066   1.276  -0.093  0.00  0.00    +0.000 C 
ATOM     20  O   UNL     1       0.299   2.435  -1.109  0.00  0.00    +0.000 OA
BRANCH  19  21
ATOM     21  C   UNL     1       1.478   0.508  -0.624  0.00  0.00    +0.000 C 
BRANCH  21  22
ATOM     22  N   UNL     1       2.509   1.467  -0.351  0.00  0.00    +0.000 NA
BRANCH  22  23
ATOM     23  C   UNL     1       2.745   1.662   1.076  0.00  0.00    +0.000 C 
BRANCH  23  24
ATOM     24  C   UNL     1       3.354   0.336   1.542  0.00  0.00    +0.000 C 
BRANCH  24  25
ATOM     25  C   UNL     1       4.627   0.095   0.764  0.00  0.00    +0.000 A 
ATOM     26  C   UNL     1       5.806   0.559   1.275  0.00  0.00    +0.000 A 
ATOM     27  C   UNL     1       6.979   0.357   0.589  0.00  0.00    +0.000 A 
ATOM     28  C   UNL     1       7.007  -0.308  -0.615  0.00  0.00    +0.000 A 
ATOM     29  C   UNL     1       5.803  -0.760  -1.097  0.00  0.00    +0.000 A 
ATOM     30  C   UNL     1       4.616  -0.569  -0.426  0.00  0.00    +0.000 A 
ENDBRANCH  24  25
ENDBRANCH  23  24
ENDBRANCH  22  23
ENDBRANCH  21  22
ENDBRANCH  19  21
ENDBRANCH  18  19
ENDBRANCH   9  18
TORSDOF 9
