REMARK  Name = 
REMARK  8 active torsions:
REMARK  status: ('A' for Active; 'I' for Inactive)
REMARK    1  A    between atoms: C_5  and  N_6
REMARK    2  A    between atoms: C_7  and  C_9
REMARK    3  A    between atoms: C_9  and  O_10
REMARK    4  A    between atoms: O_10  and  C_11
REMARK    5  A    between atoms: C_11  and  C_13
REMARK    6  A    between atoms: C_13  and  C_14
REMARK    7  A    between atoms: C_14  and  C_15
REMARK    8  A    between atoms: C_14  and  C_21
REMARK                            x       y       z     vdW  Elec       q    Type
REMARK                         _______ _______ _______ _____ _____    ______ ____
ROOT
ATOM      1  C   UNL     1      -0.240  -0.273   0.430  0.00  0.00    +0.000 C 
ATOM      2  O   UNL     1       0.371  -1.343   0.167  0.00  0.00    +0.000 OA
ENDROOT
BRANCH   1   3
ATOM      3  O   UNL     1      -0.137   0.236   1.704  0.00  0.00    +0.000 OA
BRANCH   3   4
ATOM      4  C   UNL     1       0.664  -0.449   2.649  0.00  0.00    +0.000 C 
BRANCH   4   6
ATOM      5  N   UNL     1       2.448   0.079   0.979  0.00  0.00    +0.000 NA
ATOM      6  C   UNL     1       2.080  -0.498   2.210  0.00  0.00    +0.000 C 
ATOM      7  O   UNL     1       2.925  -1.047   2.934  0.00  0.00    +0.000 OA
BRANCH   5  12
ATOM      8  C   UNL     1       7.906  -0.051  -0.674  0.00  0.00    +0.000 C 
ATOM      9  C   UNL     1       6.462  -0.018  -0.243  0.00  0.00    +0.000 A 
ATOM     10  C   UNL     1       6.093  -0.538   0.974  0.00  0.00    +0.000 A 
ATOM     11  C   UNL     1       4.777  -0.506   1.367  0.00  0.00    +0.000 A 
ATOM     12  C   UNL     1       3.804   0.034   0.575  0.00  0.00    +0.000 A 
ATOM     13  C   UNL     1       4.186   0.560  -0.662  0.00  0.00    +0.000 A 
ATOM     14  C   UNL     1       3.091   1.135  -1.493  0.00  0.00    +0.000 C 
ATOM     15  C   UNL     1       5.497   0.528  -1.052  0.00  0.00    +0.000 A 
ENDBRANCH   5  12
ENDBRANCH   4   6
ENDBRANCH   3   4
ENDBRANCH   1   3
BRANCH   1  16
ATOM     16  C   UNL     1      -1.019   0.363  -0.620  0.00  0.00    +0.000 C 
BRANCH  16  17
ATOM     17  C   UNL     1      -2.457   0.167  -0.667  0.00  0.00    +0.000 C 
BRANCH  17  18
ATOM     18  C   UNL     1      -3.039  -1.139  -0.815  0.00  0.00    +0.000 A 
ATOM     19  C   UNL     1      -3.413  -1.560  -2.080  0.00  0.00    +0.000 A 
ATOM     20  C   UNL     1      -3.982  -2.806  -2.316  0.00  0.00    +0.000 A 
ATOM     21  C   UNL     1      -4.194  -3.675  -1.277  0.00  0.00    +0.000 A 
ATOM     22  C   UNL     1      -3.834  -3.287  -0.015  0.00  0.00    +0.000 A 
ATOM     23  C   UNL     1      -3.262  -2.035   0.226  0.00  0.00    +0.000 A 
ENDBRANCH  17  18
BRANCH  17  24
ATOM     24  C   UNL     1      -3.311   1.322  -0.520  0.00  0.00    +0.000 A 
ATOM     25  C   UNL     1      -3.779   1.734   0.711  0.00  0.00    +0.000 A 
ATOM     26  C   UNL     1      -4.574   2.849   0.858  0.00  0.00    +0.000 A 
ATOM     27  C   UNL     1      -4.931   3.595  -0.243  0.00  0.00    +0.000 A 
ATOM     28  C   UNL     1      -4.463   3.184  -1.487  0.00  0.00    +0.000 A 
ATOM     29  C   UNL     1      -3.668   2.068  -1.620  0.00  0.00    +0.000 A 
ENDBRANCH  17  24
ENDBRANCH  16  17
ENDBRANCH   1  16
TORSDOF 8
