REMARK  Name = 
REMARK  7 active torsions:
REMARK  status: ('A' for Active; 'I' for Inactive)
REMARK    1  A    between atoms: C_2  and  O_3
REMARK    2  A    between atoms: O_3  and  C_4
REMARK    3  A    between atoms: C_7  and  N_8
REMARK    4  A    between atoms: N_8  and  C_9
REMARK    5  A    between atoms: C_10  and  S_11
REMARK    6  A    between atoms: S_11  and  C_12
REMARK    7  A    between atoms: N_20  and  C_21
REMARK                            x       y       z     vdW  Elec       q    Type
REMARK                         _______ _______ _______ _____ _____    ______ ____
ROOT
ATOM      1  C   UNL     1       0.413  -0.059  -1.383  0.00  0.00    +0.000 C 
ATOM      2  C   UNL     1      -0.477  -0.958  -0.892  0.00  0.00    +0.000 C 
ATOM      3  C   UNL     1      -1.509  -0.224  -0.184  0.00  0.00    +0.000 C 
ATOM      4  O   UNL     1      -2.535  -0.628   0.432  0.00  0.00    +0.000 OA
ATOM      5  N   UNL     1      -1.219   1.190  -0.256  0.00  0.00    +0.000 N 
ATOM      6  C   UNL     1      -0.022   1.267  -1.004  0.00  0.00    +0.000 C 
ATOM      7  O   UNL     1       0.581   2.341  -1.300  0.00  0.00    +0.000 OA
ENDROOT
BRANCH   5   8
ATOM      8  C   UNL     1      -1.982   2.247   0.307  0.00  0.00    +0.000 A 
ATOM      9  C   UNL     1      -1.446   3.183   1.164  0.00  0.00    +0.000 A 
ATOM     10  C   UNL     1      -2.198   4.207   1.707  0.00  0.00    +0.000 A 
ATOM     11  C   UNL     1      -1.610   5.211   2.631  0.00  0.00    +0.000 C 
ATOM     12  C   UNL     1      -3.538   4.328   1.403  0.00  0.00    +0.000 A 
ATOM     13  C   UNL     1      -4.088   3.401   0.550  0.00  0.00    +0.000 A 
ATOM     14  C   UNL     1      -5.550   3.542   0.225  0.00  0.00    +0.000 C 
ATOM     15  C   UNL     1      -3.342   2.380   0.007  0.00  0.00    +0.000 A 
ENDBRANCH   5   8
BRANCH   1  16
ATOM     16  N   UNL     1       1.577  -0.333  -2.148  0.00  0.00    +0.000 NA
BRANCH  16  20
ATOM     17  C   UNL     1       5.270  -0.341  -0.030  0.00  0.00    +0.000 A 
ATOM     18  C   UNL     1       4.066  -0.066   0.574  0.00  0.00    +0.000 A 
ATOM     19  C   UNL     1       2.872  -0.060  -0.101  0.00  0.00    +0.000 A 
ATOM     20  C   UNL     1       2.834  -0.336  -1.445  0.00  0.00    +0.000 A 
ATOM     21  C   UNL     1       4.010  -0.616  -2.093  0.00  0.00    +0.000 A 
ATOM     22  C   UNL     1       5.194  -0.617  -1.399  0.00  0.00    +0.000 A 
BRANCH  17  23
ATOM     23  O   UNL     1       6.489  -0.353   0.635  0.00  0.00    +0.000 OA
BRANCH  23  25
ATOM     24  C   UNL     1       6.074   1.274   2.402  0.00  0.00    +0.000 C 
ATOM     25  C   UNL     1       6.568  -0.078   2.002  0.00  0.00    +0.000 C 
ENDBRANCH  23  25
ENDBRANCH  17  23
ENDBRANCH  16  20
ENDBRANCH   1  16
BRANCH   2  26
ATOM     26  S   UNL     1      -0.311  -2.695  -1.145  0.00  0.00    +0.000 S 
BRANCH  26  27
ATOM     27  C   UNL     1      -1.663  -3.655  -0.542  0.00  0.00    +0.000 A 
ATOM     28  C   UNL     1      -1.570  -5.056  -0.691  0.00  0.00    +0.000 A 
ATOM     29  C   UNL     1      -2.567  -5.875  -0.268  0.00  0.00    +0.000 A 
ATOM     30  C   UNL     1      -3.720  -5.404   0.327  0.00  0.00    +0.000 A 
ATOM     31  C   UNL     1      -3.798  -4.029   0.467  0.00  0.00    +0.000 A 
ATOM     32  C   UNL     1      -2.802  -3.190   0.046  0.00  0.00    +0.000 A 
ENDBRANCH  26  27
ENDBRANCH   2  26
TORSDOF 7
