REMARK  Name = 
REMARK  5 active torsions:
REMARK  status: ('A' for Active; 'I' for Inactive)
REMARK    1  A    between atoms: C_2  and  O_4
REMARK    2  A    between atoms: O_4  and  C_5
REMARK    3  A    between atoms: C_10  and  C_11
REMARK    4  A    between atoms: C_13  and  C_14
REMARK    5  A    between atoms: N_16  and  C_17
REMARK                            x       y       z     vdW  Elec       q    Type
REMARK                         _______ _______ _______ _____ _____    ______ ____
ROOT
ATOM      1  C   UNL     1      -2.460  -0.962   0.645  0.00  0.00    +0.000 A 
ATOM      2  C   UNL     1      -1.131  -0.659   0.773  0.00  0.00    +0.000 A 
ATOM      3  C   UNL     1      -0.322  -0.744  -0.340  0.00  0.00    +0.000 A 
ATOM      4  C   UNL     1      -0.908  -1.132  -1.523  0.00  0.00    +0.000 A 
ATOM      5  C   UNL     1      -0.106  -1.215  -2.630  0.00  0.00    +0.000 A 
ATOM      6  C   UNL     1      -0.575  -1.593  -3.882  0.00  0.00    +0.000 A 
ATOM      7  C   UNL     1      -1.910  -1.894  -3.999  0.00  0.00    +0.000 A 
ATOM      8  C   UNL     1      -2.729  -1.815  -2.893  0.00  0.00    +0.000 A 
ATOM      9  C   UNL     1      -2.239  -1.438  -1.667  0.00  0.00    +0.000 A 
ATOM     10  N   UNL     1      -2.998  -1.343  -0.551  0.00  0.00    +0.000 NA
ENDROOT
BRANCH   1  16
ATOM     11  C   UNL     1      -3.051  -0.429   3.011  0.00  0.00    +0.000 A 
ATOM     12  C   UNL     1      -4.043  -0.489   4.021  0.00  0.00    +0.000 A 
ATOM     13  C   UNL     1      -5.282  -1.008   3.865  0.00  0.00    +0.000 A 
ATOM     14  C   UNL     1      -5.584  -1.514   2.610  0.00  0.00    +0.000 A 
ATOM     15  C   UNL     1      -4.668  -1.476   1.622  0.00  0.00    +0.000 A 
ATOM     16  C   UNL     1      -3.416  -0.953   1.780  0.00  0.00    +0.000 A 
BRANCH  11  17
ATOM     17  O   UNL     1      -1.885   0.099   3.274  0.00  0.00    +0.000 OA
BRANCH  17  19
ATOM     18  C   UNL     1      -0.500   1.006   5.012  0.00  0.00    +0.000 C 
ATOM     19  C   UNL     1      -0.738   0.616   3.529  0.00  0.00    +0.000 C 
ATOM     20  C   UNL     1      -0.349   1.876   2.706  0.00  0.00    +0.000 C 
ENDBRANCH  17  19
ENDBRANCH  11  17
ENDBRANCH   1  16
BRANCH   3  21
ATOM     21  C   UNL     1       1.109  -0.470  -0.310  0.00  0.00    +0.000 C 
ATOM     22  O   UNL     1       1.593  -0.115   0.786  0.00  0.00    +0.000 OA
ATOM     23  N   UNL     1       1.986  -0.573  -1.402  0.00  0.00    +0.000 NA
BRANCH  23  24
ATOM     24  C   UNL     1       3.501  -0.236  -1.115  0.00  0.00    +0.000 C 
ATOM     25  C   UNL     1       3.901  -0.249  -2.744  0.00  0.00    +0.000 C 
ATOM     26  C   UNL     1       5.414  -0.203  -2.577  0.00  0.00    +0.000 C 
ATOM     27  C   UNL     1       5.814   0.967  -1.729  0.00  0.00    +0.000 C 
ATOM     28  C   UNL     1       4.649   1.847  -1.371  0.00  0.00    +0.000 A 
ATOM     29  C   UNL     1       4.840   3.233  -1.376  0.00  0.00    +0.000 A 
ATOM     30  C   UNL     1       3.745   4.000  -1.041  0.00  0.00    +0.000 A 
ATOM     31  C   UNL     1       2.524   3.453  -0.716  0.00  0.00    +0.000 A 
ATOM     32  C   UNL     1       2.384   2.068  -0.724  0.00  0.00    +0.000 A 
ATOM     33  C   UNL     1       3.431   1.343  -1.044  0.00  0.00    +0.000 A 
ENDBRANCH  23  24
ENDBRANCH   3  21
TORSDOF 5
