REMARK  Name = 
REMARK  7 active torsions:
REMARK  status: ('A' for Active; 'I' for Inactive)
REMARK    1  A    between atoms: C_2  and  C_3
REMARK    2  A    between atoms: C_3  and  O_4
REMARK    3  A    between atoms: O_4  and  C_5
REMARK    4  A    between atoms: C_8  and  N_9
REMARK    5  A    between atoms: C_10  and  C_12
REMARK    6  A    between atoms: C_13  and  N_14
REMARK    7  A    between atoms: C_15  and  C_17
REMARK                            x       y       z     vdW  Elec       q    Type
REMARK                         _______ _______ _______ _____ _____    ______ ____
ROOT
ATOM      1  C   UNL     1      -0.888  -1.725   0.029  0.00  0.00    +0.000 A 
ATOM      2  C   UNL     1      -2.078  -1.093  -0.248  0.00  0.00    +0.000 A 
ATOM      3  S   UNL     1      -3.185  -2.392  -0.345  0.00  0.00    +0.000 S 
ATOM      4  C   UNL     1      -2.128  -3.679  -0.038  0.00  0.00    +0.000 A 
ATOM      5  C   UNL     1      -0.922  -3.063   0.136  0.00  0.00    +0.000 A 
ATOM      6  C   UNL     1       0.245  -4.001   0.434  0.00  0.00    +0.000 C 
ATOM      7  C   UNL     1      -0.322  -4.969   1.482  0.00  0.00    +0.000 C 
ATOM      8  C   UNL     1      -1.265  -5.883   0.738  0.00  0.00    +0.000 C 
ATOM      9  C   UNL     1      -2.355  -5.145   0.044  0.00  0.00    +0.000 C 
ENDROOT
BRANCH   1  11
ATOM     10  N   UNL     1       1.608  -1.489   0.476  0.00  0.00    +0.000 NA
ATOM     11  C   UNL     1       0.344  -0.899   0.190  0.00  0.00    +0.000 C 
ATOM     12  O   UNL     1       0.333   0.342   0.082  0.00  0.00    +0.000 OA
BRANCH  10  16
ATOM     13  C   UNL     1       4.994   1.000   0.900  0.00  0.00    +0.000 A 
ATOM     14  C   UNL     1       3.742   1.551   0.618  0.00  0.00    +0.000 A 
ATOM     15  C   UNL     1       2.663   0.684   0.490  0.00  0.00    +0.000 A 
ATOM     16  C   UNL     1       2.785  -0.681   0.629  0.00  0.00    +0.000 A 
ATOM     17  C   UNL     1       4.009  -1.209   0.903  0.00  0.00    +0.000 A 
ATOM     18  C   UNL     1       5.091  -0.362   1.034  0.00  0.00    +0.000 A 
BRANCH  13  19
ATOM     19  O   UNL     1       6.118   1.804   1.042  0.00  0.00    +0.000 OA
BRANCH  19  20
ATOM     20  C   UNL     1       6.059   3.196   0.913  0.00  0.00    +0.000 C 
BRANCH  20  22
ATOM     21  C   UNL     1       6.513   2.988  -1.515  0.00  0.00    +0.000 C 
ATOM     22  C   UNL     1       5.562   3.553  -0.476  0.00  0.00    +0.000 C 
ENDBRANCH  20  22
ENDBRANCH  19  20
ENDBRANCH  13  19
ENDBRANCH  10  16
ENDBRANCH   1  11
BRANCH   2  23
ATOM     23  N   UNL     1      -2.328   0.325  -0.415  0.00  0.00    +0.000 NA
ATOM     24  C   UNL     1      -3.679   0.698  -0.700  0.00  0.00    +0.000 C 
ATOM     25  O   UNL     1      -4.559  -0.174  -0.791  0.00  0.00    +0.000 OA
BRANCH  24  26
ATOM     26  C   UNL     1      -4.031   2.125  -0.886  0.00  0.00    +0.000 A 
ATOM     27  C   UNL     1      -3.089   3.105  -0.792  0.00  0.00    +0.000 A 
ATOM     28  C   UNL     1      -3.461   4.413  -0.973  0.00  0.00    +0.000 A 
ATOM     29  C   UNL     1      -4.760   4.780  -1.248  0.00  0.00    +0.000 A 
ATOM     30  C   UNL     1      -5.684   3.757  -1.336  0.00  0.00    +0.000 A 
ATOM     31  C   UNL     1      -5.332   2.443  -1.159  0.00  0.00    +0.000 A 
ENDBRANCH  24  26
ENDBRANCH   2  23
TORSDOF 7
