REMARK  Name = 
REMARK  6 active torsions:
REMARK  status: ('A' for Active; 'I' for Inactive)
REMARK    1  A    between atoms: C_8  and  C_9
REMARK    2  A    between atoms: C_15  and  C_16
REMARK    3  A    between atoms: N_22  and  C_23
REMARK    4  A    between atoms: C_23  and  C_24
REMARK    5  A    between atoms: C_24  and  C_26
REMARK    6  A    between atoms: C_26  and  N_27
REMARK                            x       y       z     vdW  Elec       q    Type
REMARK                         _______ _______ _______ _____ _____    ______ ____
ROOT
ATOM      1  C   UNL     1      -2.325   2.760  -4.377  0.00  0.00    +0.000 C 
ATOM      2  C   UNL     1      -1.747   1.798  -3.403  0.00  0.00    +0.000 A 
ATOM      3  C   UNL     1      -0.659   1.010  -3.700  0.00  0.00    +0.000 A 
ATOM      4  C   UNL     1      -0.113   0.114  -2.803  0.00  0.00    +0.000 A 
ATOM      5  C   UNL     1      -0.645  -0.042  -1.527  0.00  0.00    +0.000 A 
ATOM      6  C   UNL     1      -1.736   0.746  -1.225  0.00  0.00    +0.000 A 
ATOM      7  C   UNL     1      -2.284   1.643  -2.117  0.00  0.00    +0.000 A 
ATOM      8  C   UNL     1      -2.057   0.399   0.073  0.00  0.00    +0.000 A 
ATOM      9  C   UNL     1      -1.200  -0.567   0.558  0.00  0.00    +0.000 A 
ATOM     10  N   UNL     1      -0.349  -0.808  -0.457  0.00  0.00    +0.000 N 
ENDROOT
BRANCH   8  11
ATOM     11  C   UNL     1      -3.147   0.962   0.847  0.00  0.00    +0.000 A 
ATOM     12  C   UNL     1      -3.075   2.343   1.064  0.00  0.00    +0.000 A 
ATOM     13  C   UNL     1      -4.027   2.999   1.771  0.00  0.00    +0.000 A 
ATOM     14  C   UNL     1      -5.121   2.343   2.318  0.00  0.00    +0.000 A 
ATOM     15  C   UNL     1      -5.179   0.972   2.095  0.00  0.00    +0.000 A 
ATOM     16  C   UNL     1      -4.205   0.307   1.373  0.00  0.00    +0.000 A 
ENDBRANCH   8  11
BRANCH   9  17
ATOM     17  C   UNL     1      -1.262  -1.158   1.901  0.00  0.00    +0.000 A 
ATOM     18  C   UNL     1      -2.388  -1.880   2.242  0.00  0.00    +0.000 A 
ATOM     19  C   UNL     1      -2.608  -2.489   3.428  0.00  0.00    +0.000 A 
ATOM     20  C   UNL     1      -1.612  -2.371   4.369  0.00  0.00    +0.000 A 
ATOM     21  C   UNL     1      -0.451  -1.651   4.076  0.00  0.00    +0.000 A 
ATOM     22  C   UNL     1      -0.288  -1.051   2.840  0.00  0.00    +0.000 A 
ENDBRANCH   9  17
BRANCH  10  23
ATOM     23  C   UNL     1       0.726  -1.739  -0.436  0.00  0.00    +0.000 C 
BRANCH  23  24
ATOM     24  C   UNL     1       2.052  -0.953   0.108  0.00  0.00    +0.000 C 
ATOM     25  O   UNL     1       2.924  -2.205  -0.007  0.00  0.00    +0.000 OA
BRANCH  24  26
ATOM     26  C   UNL     1       2.518  -0.426  -1.385  0.00  0.00    +0.000 C 
BRANCH  26  27
ATOM     27  N   UNL     1       3.933  -0.273  -1.314  0.00  0.00    +0.000 NA
ATOM     28  C   UNL     1       4.711  -1.439  -1.184  0.00  0.00    +0.000 C 
ATOM     29  C   UNL     1       6.061  -1.401  -1.815  0.00  0.00    +0.000 C 
ATOM     30  C   UNL     1       6.610  -0.032  -2.049  0.00  0.00    +0.000 C 
ATOM     31  C   UNL     1       6.885   0.677  -0.742  0.00  0.00    +0.000 C 
ATOM     32  C   UNL     1       5.655   0.512   0.139  0.00  0.00    +0.000 C 
ATOM     33  C   UNL     1       4.404   0.898  -0.662  0.00  0.00    +0.000 C 
ENDBRANCH  26  27
ENDBRANCH  24  26
ENDBRANCH  23  24
ENDBRANCH  10  23
TORSDOF 6
