REMARK  Name = 
REMARK  9 active torsions:
REMARK  status: ('A' for Active; 'I' for Inactive)
REMARK    1  A    between atoms: C_9  and  C_10
REMARK    2  A    between atoms: C_13  and  O_14
REMARK    3  A    between atoms: O_14  and  C_15
REMARK    4  A    between atoms: C_15  and  C_16
REMARK    5  A    between atoms: C_16  and  C_17
REMARK    6  A    between atoms: C_17  and  C_18
REMARK    7  A    between atoms: C_18  and  C_19
REMARK    8  A    between atoms: C_23  and  C_24
REMARK    9  A    between atoms: N_26  and  C_27
REMARK                            x       y       z     vdW  Elec       q    Type
REMARK                         _______ _______ _______ _____ _____    ______ ____
ROOT
ATOM      1  C   UNL     1      -0.132   2.553   0.933  0.00  0.00    +0.000 C 
ATOM      2  C   UNL     1      -0.857   1.477   0.637  0.00  0.00    +0.000 C 
ATOM      3  N   UNL     1      -1.571   0.807   1.578  0.00  0.00    +0.000 NA
ATOM      4  C   UNL     1      -1.884  -0.541   1.318  0.00  0.00    +0.000 A 
ATOM      5  N   UNL     1      -2.579  -1.467   2.006  0.00  0.00    +0.000 NA
ATOM      6  C   UNL     1      -2.577  -2.601   1.250  0.00  0.00    +0.000 A 
ATOM      7  N   UNL     1      -1.898  -2.325   0.160  0.00  0.00    +0.000 NA
ATOM      8  N   UNL     1      -1.486  -1.040   0.242  0.00  0.00    +0.000 N 
ATOM      9  C   UNL     1      -0.660  -0.536  -0.924  0.00  0.00    +0.000 C 
ATOM     10  C   UNL     1      -0.799   1.117  -0.879  0.00  0.00    +0.000 C 
ENDROOT
BRANCH   9  11
ATOM     11  C   UNL     1       0.795  -0.726  -0.324  0.00  0.00    +0.000 A 
ATOM     12  C   UNL     1       1.397   0.252   0.364  0.00  0.00    +0.000 A 
ATOM     13  C   UNL     1       2.661   0.046   0.869  0.00  0.00    +0.000 A 
ATOM     14  C   UNL     1       3.341  -1.142   0.692  0.00  0.00    +0.000 A 
ATOM     15  C   UNL     1       2.670  -2.112  -0.025  0.00  0.00    +0.000 A 
ATOM     16  C   UNL     1       1.407  -1.907  -0.529  0.00  0.00    +0.000 A 
BRANCH  14  17
ATOM     17  O   UNL     1       4.617  -1.364   1.196  0.00  0.00    +0.000 OA
BRANCH  17  18
ATOM     18  C   UNL     1       5.215  -0.302   1.917  0.00  0.00    +0.000 C 
BRANCH  18  19
ATOM     19  C   UNL     1       5.276   0.851   0.904  0.00  0.00    +0.000 C 
BRANCH  19  20
ATOM     20  C   UNL     1       6.093   0.480  -0.292  0.00  0.00    +0.000 C 
BRANCH  20  21
ATOM     21  C   UNL     1       7.483   0.156   0.185  0.00  0.00    +0.000 C 
BRANCH  21  22
ATOM     22  C   UNL     1       8.080   1.347   0.866  0.00  0.00    +0.000 C 
ATOM     23  C   UNL     1       9.487   1.025   1.350  0.00  0.00    +0.000 C 
ENDBRANCH  21  22
ENDBRANCH  20  21
ENDBRANCH  19  20
ENDBRANCH  18  19
ENDBRANCH  17  18
ENDBRANCH  14  17
ENDBRANCH   9  11
BRANCH  10  24
ATOM     24  C   UNL     1      -2.315   1.319  -1.215  0.00  0.00    +0.000 C 
ATOM     25  O   UNL     1      -2.481   2.203  -2.079  0.00  0.00    +0.000 OA
ATOM     26  N   UNL     1      -3.378   0.668  -0.690  0.00  0.00    +0.000 NA
BRANCH  26  27
ATOM     27  C   UNL     1      -4.687   0.997  -1.128  0.00  0.00    +0.000 A 
ATOM     28  C   UNL     1      -5.824   0.381  -0.643  0.00  0.00    +0.000 A 
ATOM     29  C   UNL     1      -7.094   0.718  -1.086  0.00  0.00    +0.000 A 
ATOM     30  C   UNL     1      -7.266   1.696  -2.041  0.00  0.00    +0.000 A 
ATOM     31  C   UNL     1      -6.143   2.318  -2.533  0.00  0.00    +0.000 A 
ATOM     32  C   UNL     1      -4.890   1.969  -2.080  0.00  0.00    +0.000 A 
ENDBRANCH  26  27
ENDBRANCH  10  24
TORSDOF 9
