REMARK  Name = 
REMARK  9 active torsions:
REMARK  status: ('A' for Active; 'I' for Inactive)
REMARK    1  A    between atoms: C_2  and  O_3
REMARK    2  A    between atoms: O_3  and  C_4
REMARK    3  A    between atoms: C_7  and  O_8
REMARK    4  A    between atoms: O_8  and  C_9
REMARK    5  A    between atoms: C_9  and  C_10
REMARK    6  A    between atoms: C_14  and  C_15
REMARK    7  A    between atoms: N_17  and  N_18
REMARK    8  A    between atoms: C_19  and  C_20
REMARK    9  A    between atoms: C_23  and  O_24
REMARK                            x       y       z     vdW  Elec       q    Type
REMARK                         _______ _______ _______ _____ _____    ______ ____
ROOT
ATOM      1  C   UNL     1      -2.650  -0.615  -1.506  0.00  0.00    +0.000 A 
ATOM      2  C   UNL     1      -3.201  -1.706  -0.866  0.00  0.00    +0.000 A 
ATOM      3  C   UNL     1      -2.464  -2.688  -0.264  0.00  0.00    +0.000 A 
ATOM      4  C   UNL     1      -1.090  -2.588  -0.295  0.00  0.00    +0.000 A 
ATOM      5  C   UNL     1      -0.509  -1.515  -0.924  0.00  0.00    +0.000 A 
ATOM      6  C   UNL     1      -1.265  -0.537  -1.524  0.00  0.00    +0.000 A 
ENDROOT
BRANCH   5   7
ATOM      7  C   UNL     1       0.932  -1.375  -0.977  0.00  0.00    +0.000 C 
ATOM      8  O   UNL     1       1.653  -2.255  -0.439  0.00  0.00    +0.000 OA
ATOM      9  N   UNL     1       1.595  -0.298  -1.605  0.00  0.00    +0.000 NA
BRANCH   9  10
ATOM     10  N   UNL     1       2.992  -0.236  -1.614  0.00  0.00    +0.000 NA
ATOM     11  C   UNL     1       3.695   0.238  -0.669  0.00  0.00    +0.000 C 
BRANCH  11  12
ATOM     12  C   UNL     1       5.142   0.310  -0.664  0.00  0.00    +0.000 A 
ATOM     13  C   UNL     1       5.902  -0.145  -1.715  0.00  0.00    +0.000 A 
ATOM     14  C   UNL     1       7.281  -0.080  -1.716  0.00  0.00    +0.000 A 
ATOM     15  C   UNL     1       7.944   0.457  -0.633  0.00  0.00    +0.000 A 
ATOM     16  C   UNL     1       7.182   0.913   0.421  0.00  0.00    +0.000 A 
ATOM     17  C   UNL     1       5.791   0.847   0.422  0.00  0.00    +0.000 A 
BRANCH  15  18
ATOM     18  O   UNL     1       9.350   0.534  -0.610  0.00  0.00    +0.000 OA
ATOM     19  C   UNL     1       9.947   1.099   0.541  0.00  0.00    +0.000 C 
ENDBRANCH  15  18
ENDBRANCH  11  12
ENDBRANCH   9  10
ENDBRANCH   5   7
BRANCH   1  20
ATOM     20  C   UNL     1      -3.481   0.426  -2.145  0.00  0.00    +0.000 C 
BRANCH  20  21
ATOM     21  O   UNL     1      -3.808   1.492  -1.297  0.00  0.00    +0.000 OA
BRANCH  21  25
ATOM     22  C   UNL     1      -5.912   1.291   2.265  0.00  0.00    +0.000 A 
ATOM     23  C   UNL     1      -5.679   0.150   1.557  0.00  0.00    +0.000 A 
ATOM     24  C   UNL     1      -4.989   0.187   0.381  0.00  0.00    +0.000 A 
ATOM     25  C   UNL     1      -4.514   1.387  -0.112  0.00  0.00    +0.000 A 
ATOM     26  C   UNL     1      -4.744   2.557   0.598  0.00  0.00    +0.000 A 
ATOM     27  C   UNL     1      -5.444   2.475   1.778  0.00  0.00    +0.000 A 
BRANCH  22  28
ATOM     28  O   UNL     1      -6.621   1.248   3.470  0.00  0.00    +0.000 OA
BRANCH  28  30
ATOM     29  C   UNL     1      -5.939  -0.955   4.187  0.00  0.00    +0.000 C 
ATOM     30  C   UNL     1      -7.098   0.009   3.956  0.00  0.00    +0.000 C 
ENDBRANCH  28  30
ENDBRANCH  22  28
ENDBRANCH  21  25
ENDBRANCH  20  21
ENDBRANCH   1  20
TORSDOF 9
