REMARK  Name = 
REMARK  8 active torsions:
REMARK  status: ('A' for Active; 'I' for Inactive)
REMARK    1  A    between atoms: O_2  and  C_3
REMARK    2  A    between atoms: C_6  and  O_7
REMARK    3  A    between atoms: C_9  and  N_10
REMARK    4  A    between atoms: C_11  and  C_13
REMARK    5  A    between atoms: C_21  and  C_22
REMARK    6  A    between atoms: C_22  and  S_23
REMARK    7  A    between atoms: S_23  and  C_24
REMARK    8  A    between atoms: C_24  and  C_25
REMARK                            x       y       z     vdW  Elec       q    Type
REMARK                         _______ _______ _______ _____ _____    ______ ____
ROOT
ATOM      1  C   UNL     1      -0.764  -1.810  -0.270  0.00  0.00    +0.000 A 
ATOM      2  O   UNL     1      -0.936  -2.934  -0.916  0.00  0.00    +0.000 OA
ATOM      3  C   UNL     1       0.093  -3.737  -0.778  0.00  0.00    +0.000 A 
ATOM      4  C   UNL     1       0.355  -5.019  -1.276  0.00  0.00    +0.000 A 
ATOM      5  C   UNL     1       1.547  -5.622  -0.952  0.00  0.00    +0.000 A 
ATOM      6  C   UNL     1       2.459  -4.973  -0.154  0.00  0.00    +0.000 A 
ATOM      7  C   UNL     1       2.197  -3.720   0.329  0.00  0.00    +0.000 A 
ATOM      8  C   UNL     1       1.001  -3.093   0.014  0.00  0.00    +0.000 A 
ATOM      9  C   UNL     1       0.468  -1.853   0.350  0.00  0.00    +0.000 A 
ENDROOT
BRANCH   1  11
ATOM     10  N   UNL     1      -1.369   0.506   0.534  0.00  0.00    +0.000 NA
ATOM     11  C   UNL     1      -1.678  -0.678  -0.185  0.00  0.00    +0.000 C 
ATOM     12  O   UNL     1      -2.813  -0.695  -0.760  0.00  0.00    +0.000 OA
BRANCH  10  17
ATOM     13  C   UNL     1      -4.415   2.578   0.020  0.00  0.00    +0.000 A 
ATOM     14  C   UNL     1      -4.125   3.734   0.709  0.00  0.00    +0.000 A 
ATOM     15  C   UNL     1      -2.901   3.817   1.348  0.00  0.00    +0.000 A 
ATOM     16  C   UNL     1      -2.006   2.756   1.284  0.00  0.00    +0.000 A 
ATOM     17  C   UNL     1      -2.305   1.604   0.593  0.00  0.00    +0.000 A 
ATOM     18  C   UNL     1      -3.531   1.543  -0.037  0.00  0.00    +0.000 A 
BRANCH  13  20
ATOM     19  C   UNL     1      -6.587   3.578  -0.571  0.00  0.00    +0.000 C 
ATOM     20  O   UNL     1      -5.660   2.518  -0.619  0.00  0.00    +0.000 OA
ENDBRANCH  13  20
BRANCH  16  21
ATOM     21  O   UNL     1      -0.760   2.787   1.909  0.00  0.00    +0.000 OA
ATOM     22  C   UNL     1      -0.437   3.970   2.627  0.00  0.00    +0.000 C 
ENDBRANCH  16  21
ENDBRANCH  10  17
ENDBRANCH   1  11
BRANCH   9  23
ATOM     23  C   UNL     1       1.086  -0.823   1.200  0.00  0.00    +0.000 C 
BRANCH  23  24
ATOM     24  S   UNL     1       2.714  -1.327   1.766  0.00  0.00    +0.000 S 
BRANCH  24  25
ATOM     25  C   UNL     1       3.817  -1.370   0.321  0.00  0.00    +0.000 C 
BRANCH  25  26
ATOM     26  C   UNL     1       3.955   0.047  -0.142  0.00  0.00    +0.000 A 
ATOM     27  C   UNL     1       3.075   0.600  -1.073  0.00  0.00    +0.000 A 
ATOM     28  C   UNL     1       3.224   1.907  -1.483  0.00  0.00    +0.000 A 
ATOM     29  C   UNL     1       4.234   2.698  -0.992  0.00  0.00    +0.000 A 
ATOM     30  C   UNL     1       5.107   2.162  -0.073  0.00  0.00    +0.000 A 
ATOM     31  C   UNL     1       4.959   0.851   0.339  0.00  0.00    +0.000 A 
ENDBRANCH  25  26
ENDBRANCH  24  25
ENDBRANCH  23  24
ENDBRANCH   9  23
TORSDOF 8
