REMARK  Name = 
REMARK  8 active torsions:
REMARK  status: ('A' for Active; 'I' for Inactive)
REMARK    1  A    between atoms: C_5  and  N_6
REMARK    2  A    between atoms: C_7  and  C_9
REMARK    3  A    between atoms: C_9  and  C_10
REMARK    4  A    between atoms: C_9  and  N_17
REMARK    5  A    between atoms: C_10  and  C_11
REMARK    6  A    between atoms: C_18  and  O_20
REMARK    7  A    between atoms: O_20  and  C_21
REMARK    8  A    between atoms: C_21  and  C_22
REMARK                            x       y       z     vdW  Elec       q    Type
REMARK                         _______ _______ _______ _____ _____    ______ ____
ROOT
ATOM      1  C   UNL     1      -0.951   1.621   1.244  0.00  0.00    +0.000 C 
ENDROOT
BRANCH   1   3
ATOM      2  N   UNL     1      -2.833  -0.163   1.505  0.00  0.00    +0.000 NA
ATOM      3  C   UNL     1      -1.507   0.169   1.393  0.00  0.00    +0.000 C 
ATOM      4  O   UNL     1      -0.708  -0.742   1.413  0.00  0.00    +0.000 OA
BRANCH   2   9
ATOM      5  C   UNL     1      -4.163  -5.628   2.010  0.00  0.00    +0.000 C 
ATOM      6  C   UNL     1      -3.883  -4.153   1.879  0.00  0.00    +0.000 A 
ATOM      7  C   UNL     1      -2.560  -3.804   1.769  0.00  0.00    +0.000 A 
ATOM      8  C   UNL     1      -2.294  -2.443   1.647  0.00  0.00    +0.000 A 
ATOM      9  C   UNL     1      -3.261  -1.479   1.634  0.00  0.00    +0.000 A 
ATOM     10  C   UNL     1      -4.577  -1.876   1.748  0.00  0.00    +0.000 A 
ATOM     11  C   UNL     1      -4.898  -3.222   1.871  0.00  0.00    +0.000 A 
ATOM     12  C   UNL     1      -6.295  -3.695   1.995  0.00  0.00    +0.000 C 
ENDBRANCH   2   9
ENDBRANCH   1   3
BRANCH   1  13
ATOM     13  N   UNL     1       0.562   1.336   1.103  0.00  0.00    +0.000 NA
ATOM     14  C   UNL     1       1.049   0.606   0.013  0.00  0.00    +0.000 C 
ATOM     15  O   UNL     1       0.166   0.238  -0.792  0.00  0.00    +0.000 OA
BRANCH  14  16
ATOM     16  O   UNL     1       2.413   0.326  -0.139  0.00  0.00    +0.000 OA
BRANCH  16  17
ATOM     17  C   UNL     1       2.747  -0.426  -1.294  0.00  0.00    +0.000 C 
BRANCH  17  18
ATOM     18  C   UNL     1       4.227  -0.653  -1.331  0.00  0.00    +0.000 A 
ATOM     19  C   UNL     1       4.737  -1.751  -0.671  0.00  0.00    +0.000 A 
ATOM     20  C   UNL     1       6.082  -2.049  -0.647  0.00  0.00    +0.000 A 
ATOM     21  C   UNL     1       6.933  -1.198  -1.319  0.00  0.00    +0.000 A 
ATOM     22  C   UNL     1       6.430  -0.097  -1.982  0.00  0.00    +0.000 A 
ATOM     23  C   UNL     1       5.079   0.194  -2.000  0.00  0.00    +0.000 A 
ENDBRANCH  17  18
ENDBRANCH  16  17
ENDBRANCH  14  16
ENDBRANCH   1  13
BRANCH   1  24
ATOM     24  C   UNL     1      -1.199   1.861  -0.362  0.00  0.00    +0.000 C 
BRANCH  24  25
ATOM     25  C   UNL     1      -0.714   3.232  -0.630  0.00  0.00    +0.000 A 
ATOM     26  C   UNL     1      -1.531   4.334  -0.536  0.00  0.00    +0.000 A 
ATOM     27  C   UNL     1      -1.052   5.615  -0.794  0.00  0.00    +0.000 A 
ATOM     28  C   UNL     1       0.274   5.747  -1.149  0.00  0.00    +0.000 A 
ATOM     29  C   UNL     1       1.131   4.680  -1.257  0.00  0.00    +0.000 A 
ATOM     30  C   UNL     1       0.597   3.420  -0.987  0.00  0.00    +0.000 A 
ENDBRANCH  24  25
ENDBRANCH   1  24
TORSDOF 8
