REMARK  Name = 
REMARK  8 active torsions:
REMARK  status: ('A' for Active; 'I' for Inactive)
REMARK    1  A    between atoms: C_2  and  N_3
REMARK    2  A    between atoms: N_3  and  C_4
REMARK    3  A    between atoms: N_3  and  C_6
REMARK    4  A    between atoms: C_6  and  C_7
REMARK    5  A    between atoms: C_7  and  C_9
REMARK    6  A    between atoms: C_9  and  N_10
REMARK    7  A    between atoms: C_11  and  C_12
REMARK    8  A    between atoms: C_18  and  C_19
REMARK                            x       y       z     vdW  Elec       q    Type
REMARK                         _______ _______ _______ _____ _____    ______ ____
ROOT
ATOM      1  N   UNL     1       0.337   0.625   0.844  0.00  0.00    +0.000 N 
ATOM      2  C   UNL     1      -0.563  -0.317   0.540  0.00  0.00    +0.000 A 
ATOM      3  C   UNL     1      -1.768   0.302   0.230  0.00  0.00    +0.000 A 
ATOM      4  C   UNL     1      -1.580   1.671   0.354  0.00  0.00    +0.000 A 
ATOM      5  C   UNL     1      -2.419   2.760   0.172  0.00  0.00    +0.000 A 
ATOM      6  C   UNL     1      -1.936   4.042   0.375  0.00  0.00    +0.000 A 
ATOM      7  C   UNL     1      -2.799   5.236   0.191  0.00  0.00    +0.000 C 
ATOM      8  C   UNL     1      -0.613   4.189   0.758  0.00  0.00    +0.000 A 
ATOM      9  C   UNL     1       0.203   3.101   0.934  0.00  0.00    +0.000 A 
ATOM     10  C   UNL     1       1.612   3.302   1.344  0.00  0.00    +0.000 C 
ATOM     11  C   UNL     1      -0.257   1.819   0.737  0.00  0.00    +0.000 A 
ENDROOT
BRANCH   2  12
ATOM     12  C   UNL     1      -0.380  -1.758   0.523  0.00  0.00    +0.000 A 
ATOM     13  C   UNL     1       0.015  -2.396   1.677  0.00  0.00    +0.000 A 
ATOM     14  C   UNL     1       0.201  -3.769   1.724  0.00  0.00    +0.000 A 
ATOM     15  C   UNL     1      -0.026  -4.468   0.565  0.00  0.00    +0.000 A 
ATOM     16  C   UNL     1      -0.415  -3.851  -0.576  0.00  0.00    +0.000 A 
ATOM     17  C   UNL     1      -0.598  -2.492  -0.617  0.00  0.00    +0.000 A 
ENDBRANCH   2  12
BRANCH   3  18
ATOM     18  C   UNL     1      -3.015  -0.367  -0.159  0.00  0.00    +0.000 A 
ATOM     19  C   UNL     1      -4.124  -0.238   0.616  0.00  0.00    +0.000 A 
ATOM     20  C   UNL     1      -5.282  -0.861   0.250  0.00  0.00    +0.000 A 
ATOM     21  C   UNL     1      -5.337  -1.618  -0.895  0.00  0.00    +0.000 A 
ATOM     22  C   UNL     1      -4.218  -1.736  -1.657  0.00  0.00    +0.000 A 
ATOM     23  C   UNL     1      -3.039  -1.117  -1.308  0.00  0.00    +0.000 A 
ENDBRANCH   3  18
BRANCH   1  24
ATOM     24  C   UNL     1       1.709   0.388   1.221  0.00  0.00    +0.000 C 
BRANCH  24  25
ATOM     25  C   UNL     1       2.543   0.416  -0.224  0.00  0.00    +0.000 C 
ATOM     26  O   UNL     1       2.308  -1.081  -0.478  0.00  0.00    +0.000 OA
BRANCH  25  27
ATOM     27  C   UNL     1       4.006   0.131   0.531  0.00  0.00    +0.000 C 
BRANCH  27  28
ATOM     28  N   UNL     1       4.765  -0.528  -0.529  0.00  0.00    +0.000 NA
BRANCH  28  30
ATOM     29  C   UNL     1       5.840  -1.863   1.164  0.00  0.00    +0.000 C 
ATOM     30  C   UNL     1       6.072  -0.815   0.083  0.00  0.00    +0.000 C 
ENDBRANCH  28  30
BRANCH  28  31
ATOM     31  C   UNL     1       5.018   0.472  -1.552  0.00  0.00    +0.000 C 
ATOM     32  C   UNL     1       3.737   0.820  -2.233  0.00  0.00    +0.000 C 
ENDBRANCH  28  31
ENDBRANCH  27  28
ENDBRANCH  25  27
ENDBRANCH  24  25
ENDBRANCH   1  24
TORSDOF 8
