REMARK  Name = 
REMARK  8 active torsions:
REMARK  status: ('A' for Active; 'I' for Inactive)
REMARK    1  A    between atoms: C_2  and  C_3
REMARK    2  A    between atoms: C_3  and  C_5
REMARK    3  A    between atoms: C_8  and  N_9
REMARK    4  A    between atoms: C_10  and  C_12
REMARK    5  A    between atoms: C_12  and  O_13
REMARK    6  A    between atoms: O_13  and  C_14
REMARK    7  A    between atoms: C_14  and  C_16
REMARK    8  A    between atoms: C_21  and  C_22
REMARK                            x       y       z     vdW  Elec       q    Type
REMARK                         _______ _______ _______ _____ _____    ______ ____
ROOT
ATOM      1  O   UNL     1       0.765  -0.214   0.227  0.00  0.00    +0.000 OA
ENDROOT
BRANCH   1   2
ATOM      2  C   UNL     1       2.174  -0.311   0.225  0.00  0.00    +0.000 C 
ATOM      3  O   UNL     1       2.757   0.722  -0.153  0.00  0.00    +0.000 OA
BRANCH   2   4
ATOM      4  C   UNL     1       2.825  -1.544   0.643  0.00  0.00    +0.000 A 
ATOM      5  C   UNL     1       2.021  -2.608   1.112  0.00  0.00    +0.000 A 
ATOM      6  C   UNL     1       2.607  -3.771   1.553  0.00  0.00    +0.000 A 
ATOM      7  C   UNL     1       3.974  -3.887   1.534  0.00  0.00    +0.000 A 
ATOM      8  C   UNL     1       4.739  -2.860   1.081  0.00  0.00    +0.000 A 
ATOM      9  C   UNL     1       4.176  -1.651   0.619  0.00  0.00    +0.000 A 
BRANCH   9  10
ATOM     10  C   UNL     1       5.064  -0.619   0.110  0.00  0.00    +0.000 A 
ATOM     11  C   UNL     1       6.086  -0.131   0.938  0.00  0.00    +0.000 A 
ATOM     12  C   UNL     1       6.986   0.819   0.509  0.00  0.00    +0.000 A 
ATOM     13  C   UNL     1       6.925   1.339  -0.767  0.00  0.00    +0.000 A 
ATOM     14  C   UNL     1       7.904   2.368  -1.222  0.00  0.00    +0.000 C 
ATOM     15  C   UNL     1       5.924   0.871  -1.597  0.00  0.00    +0.000 A 
ATOM     16  C   UNL     1       5.029  -0.080  -1.156  0.00  0.00    +0.000 A 
ENDBRANCH   9  10
ENDBRANCH   2   4
ENDBRANCH   1   2
BRANCH   1  17
ATOM     17  C   UNL     1       0.118   0.976  -0.176  0.00  0.00    +0.000 C 
BRANCH  17  19
ATOM     18  N   UNL     1      -2.308   1.767  -0.393  0.00  0.00    +0.000 NA
ATOM     19  C   UNL     1      -1.317   0.781  -0.070  0.00  0.00    +0.000 C 
ATOM     20  O   UNL     1      -1.798  -0.321   0.330  0.00  0.00    +0.000 OA
BRANCH  18  24
ATOM     21  C   UNL     1      -6.449   0.949   0.001  0.00  0.00    +0.000 A 
ATOM     22  C   UNL     1      -5.522  -0.021   0.319  0.00  0.00    +0.000 A 
ATOM     23  C   UNL     1      -4.149   0.251   0.188  0.00  0.00    +0.000 A 
ATOM     24  C   UNL     1      -3.709   1.477  -0.255  0.00  0.00    +0.000 A 
ATOM     25  C   UNL     1      -4.677   2.402  -0.556  0.00  0.00    +0.000 A 
ATOM     26  C   UNL     1      -6.050   2.132  -0.426  0.00  0.00    +0.000 A 
BRANCH  21  27
ATOM     27  C   UNL     1      -7.957   0.497   0.199  0.00  0.00    +0.000 C 
ATOM     28  C   UNL     1      -7.888  -0.989  -0.530  0.00  0.00    +0.000 C 
BRANCH  27  30
ATOM     29  C   UNL     1      -9.774   0.438  -1.440  0.00  0.00    +0.000 C 
ATOM     30  C   UNL     1      -8.475   1.223  -1.216  0.00  0.00    +0.000 C 
ENDBRANCH  27  30
ENDBRANCH  21  27
ENDBRANCH  18  24
ENDBRANCH  17  19
ENDBRANCH   1  17
TORSDOF 8
