REMARK  Name = 
REMARK  8 active torsions:
REMARK  status: ('A' for Active; 'I' for Inactive)
REMARK    1  A    between atoms: C_2  and  O_3
REMARK    2  A    between atoms: O_3  and  C_4
REMARK    3  A    between atoms: C_7  and  O_8
REMARK    4  A    between atoms: O_8  and  C_9
REMARK    5  A    between atoms: C_9  and  C_10
REMARK    6  A    between atoms: C_13  and  C_14
REMARK    7  A    between atoms: N_16  and  N_17
REMARK    8  A    between atoms: N_17  and  C_18
REMARK                            x       y       z     vdW  Elec       q    Type
REMARK                         _______ _______ _______ _____ _____    ______ ____
ROOT
ATOM      1  C   UNL     1       1.704   1.059  -2.166  0.00  0.00    +0.000 A 
ATOM      2  C   UNL     1       1.861  -0.311  -2.146  0.00  0.00    +0.000 A 
ATOM      3  C   UNL     1       0.981  -1.119  -1.446  0.00  0.00    +0.000 A 
ATOM      4  C   UNL     1      -0.081  -0.593  -0.745  0.00  0.00    +0.000 A 
ATOM      5  C   UNL     1      -0.213   0.777  -0.782  0.00  0.00    +0.000 A 
ATOM      6  C   UNL     1       0.642   1.592  -1.464  0.00  0.00    +0.000 A 
ENDROOT
BRANCH   4   7
ATOM      7  C   UNL     1      -1.043  -1.417  -0.003  0.00  0.00    +0.000 C 
ATOM      8  O   UNL     1      -1.001  -2.653  -0.112  0.00  0.00    +0.000 OA
ATOM      9  N   UNL     1      -1.974  -0.751   0.802  0.00  0.00    +0.000 NA
BRANCH   9  10
ATOM     10  N   UNL     1      -2.928  -1.431   1.544  0.00  0.00    +0.000 NA
BRANCH  10  11
ATOM     11  C   UNL     1      -4.027  -0.745   2.158  0.00  0.00    +0.000 C 
ATOM     12  C   UNL     1      -4.073  -0.352   3.394  0.00  0.00    +0.000 C 
ATOM     13  C   UNL     1      -5.174   0.343   4.035  0.00  0.00    +0.000 C 
ATOM     14  C   UNL     1      -6.340   0.687   3.213  0.00  0.00    +0.000 C 
ATOM     15  C   UNL     1      -6.273   0.224   1.828  0.00  0.00    +0.000 A 
ATOM     16  C   UNL     1      -7.380   0.492   0.995  0.00  0.00    +0.000 A 
ATOM     17  C   UNL     1      -7.386   0.091  -0.320  0.00  0.00    +0.000 A 
ATOM     18  C   UNL     1      -6.291  -0.570  -0.789  0.00  0.00    +0.000 A 
ATOM     19  C   UNL     1      -5.197  -0.852  -0.021  0.00  0.00    +0.000 A 
ATOM     20  C   UNL     1      -5.192  -0.443   1.320  0.00  0.00    +0.000 A 
ENDBRANCH  10  11
ENDBRANCH   9  10
ENDBRANCH   4   7
BRANCH   1  21
ATOM     21  C   UNL     1       2.640   1.951  -2.914  0.00  0.00    +0.000 C 
BRANCH  21  22
ATOM     22  O   UNL     1       3.825   1.292  -3.293  0.00  0.00    +0.000 OA
BRANCH  22  26
ATOM     23  C   UNL     1       6.377  -0.326  -0.343  0.00  0.00    +0.000 A 
ATOM     24  C   UNL     1       5.211   0.318  -0.013  0.00  0.00    +0.000 A 
ATOM     25  C   UNL     1       4.353   0.859  -0.949  0.00  0.00    +0.000 A 
ATOM     26  C   UNL     1       4.643   0.770  -2.305  0.00  0.00    +0.000 A 
ATOM     27  C   UNL     1       5.825   0.115  -2.627  0.00  0.00    +0.000 A 
ATOM     28  C   UNL     1       6.682  -0.424  -1.696  0.00  0.00    +0.000 A 
BRANCH  23  29
ATOM     29  O   UNL     1       7.239  -0.870   0.615  0.00  0.00    +0.000 OA
BRANCH  29  31
ATOM     30  C   UNL     1       5.633  -1.489   2.228  0.00  0.00    +0.000 C 
ATOM     31  C   UNL     1       6.955  -0.786   1.997  0.00  0.00    +0.000 C 
ENDBRANCH  29  31
ENDBRANCH  23  29
ENDBRANCH  22  26
ENDBRANCH  21  22
ENDBRANCH   1  21
TORSDOF 8
