REMARK  Name = 
REMARK  9 active torsions:
REMARK  status: ('A' for Active; 'I' for Inactive)
REMARK    1  A    between atoms: N_2  and  C_3
REMARK    2  A    between atoms: N_2  and  C_21
REMARK    3  A    between atoms: C_3  and  C_4
REMARK    4  A    between atoms: N_6  and  C_7
REMARK    5  A    between atoms: C_10  and  O_11
REMARK    6  A    between atoms: O_11  and  C_12
REMARK    7  A    between atoms: C_12  and  C_13
REMARK    8  A    between atoms: C_21  and  C_22
REMARK    9  A    between atoms: C_25  and  C_26
REMARK                            x       y       z     vdW  Elec       q    Type
REMARK                         _______ _______ _______ _____ _____    ______ ____
ROOT
ATOM      1  C   UNL     1      -0.375  -2.688  -0.225  0.00  0.00    +0.000 C 
ATOM      2  O   UNL     1       0.329  -3.687   0.025  0.00  0.00    +0.000 OA
ATOM      3  N   UNL     1       0.129  -1.389  -0.117  0.00  0.00    +0.000 NA
ENDROOT
BRANCH   3   4
ATOM      4  C   UNL     1       1.427  -1.023   0.321  0.00  0.00    +0.000 A 
ATOM      5  C   UNL     1       2.053   0.046  -0.326  0.00  0.00    +0.000 A 
ATOM      6  C   UNL     1       3.300   0.446   0.222  0.00  0.00    +0.000 A 
ATOM      7  C   UNL     1       3.896  -0.074   1.256  0.00  0.00    +0.000 A 
ATOM      8  C   UNL     1       3.239  -1.203   1.942  0.00  0.00    +0.000 A 
ATOM      9  C   UNL     1       2.039  -1.567   1.383  0.00  0.00    +0.000 A 
BRANCH   7  10
ATOM     10  O   UNL     1       5.079   0.252   1.844  0.00  0.00    +0.000 OA
BRANCH  10  11
ATOM     11  C   UNL     1       6.081   1.125   1.658  0.00  0.00    +0.000 C 
BRANCH  11  12
ATOM     12  C   UNL     1       6.847   0.966   0.405  0.00  0.00    +0.000 A 
ATOM     13  C   UNL     1       6.367   0.364  -0.701  0.00  0.00    +0.000 A 
ATOM     14  C   UNL     1       7.119   0.186  -1.859  0.00  0.00    +0.000 A 
ATOM     15  C   UNL     1       8.430   0.657  -1.875  0.00  0.00    +0.000 A 
ATOM     16  C   UNL     1       8.922   1.267  -0.747  0.00  0.00    +0.000 A 
ATOM     17  C   UNL     1       8.159   1.425   0.371  0.00  0.00    +0.000 A 
ENDBRANCH  11  12
ENDBRANCH  10  11
ENDBRANCH   7  10
ENDBRANCH   3   4
BRANCH   1  18
ATOM     18  C   UNL     1      -1.787  -2.938  -0.637  0.00  0.00    +0.000 C 
BRANCH  18  20
ATOM     19  C   UNL     1      -2.112  -0.876  -1.916  0.00  0.00    +0.000 C 
ATOM     20  N   UNL     1      -2.450  -1.694  -0.837  0.00  0.00    +0.000 NA
BRANCH  20  21
ATOM     21  C   UNL     1      -2.761  -0.944   0.346  0.00  0.00    +0.000 C 
BRANCH  21  22
ATOM     22  C   UNL     1      -3.994  -0.159   0.126  0.00  0.00    +0.000 A 
ATOM     23  C   UNL     1      -5.232  -0.766   0.310  0.00  0.00    +0.000 A 
ATOM     24  C   UNL     1      -6.423  -0.125   0.158  0.00  0.00    +0.000 A 
ATOM     25  C   UNL     1      -6.456   1.233  -0.210  0.00  0.00    +0.000 A 
ATOM     26  C   UNL     1      -5.249   1.846  -0.400  0.00  0.00    +0.000 A 
ATOM     27  C   UNL     1      -4.056   1.169  -0.236  0.00  0.00    +0.000 A 
BRANCH  25  28
ATOM     28  C   UNL     1      -7.795   1.893  -0.374  0.00  0.00    +0.000 C 
ATOM     29  C   UNL     1      -8.633   1.478   0.838  0.00  0.00    +0.000 C 
ATOM     30  C   UNL     1      -8.434   1.379  -1.662  0.00  0.00    +0.000 C 
ATOM     31  C   UNL     1      -7.658   3.402  -0.440  0.00  0.00    +0.000 C 
ENDBRANCH  25  28
ENDBRANCH  21  22
ENDBRANCH  20  21
ENDBRANCH  18  20
ENDBRANCH   1  18
TORSDOF 9
