REMARK  Name = 
REMARK  9 active torsions:
REMARK  status: ('A' for Active; 'I' for Inactive)
REMARK    1  A    between atoms: C_2  and  C_3
REMARK    2  A    between atoms: C_3  and  C_4
REMARK    3  A    between atoms: C_4  and  C_5
REMARK    4  A    between atoms: C_5  and  C_6
REMARK    5  A    between atoms: C_6  and  N_7
REMARK    6  A    between atoms: C_10  and  C_11
REMARK    7  A    between atoms: C_11  and  O_13
REMARK    8  A    between atoms: O_13  and  C_14
REMARK    9  A    between atoms: C_14  and  C_15
REMARK                            x       y       z     vdW  Elec       q    Type
REMARK                         _______ _______ _______ _____ _____    ______ ____
ROOT
ATOM      1  N   UNL     1      -1.815   0.487  -0.975  0.00  0.00    +0.000 N 
ATOM      2  C   UNL     1      -0.583   0.993  -1.137  0.00  0.00    +0.000 A 
ATOM      3  N   UNL     1      -0.356   2.349  -1.522  0.00  0.00    +0.000 NA
ATOM      4  C   UNL     1       0.365   0.032  -0.882  0.00  0.00    +0.000 A 
ATOM      5  C   UNL     1      -0.322  -1.105  -0.551  0.00  0.00    +0.000 A 
ATOM      6  N   UNL     1       0.065  -2.361  -0.204  0.00  0.00    +0.000 NA
ATOM      7  C   UNL     1      -0.834  -3.318   0.080  0.00  0.00    +0.000 A 
ATOM      8  C   UNL     1      -0.458  -4.595   0.433  0.00  0.00    +0.000 A 
ATOM      9  C   UNL     1      -1.366  -5.586   0.727  0.00  0.00    +0.000 A 
ATOM     10  C   UNL     1      -2.704  -5.261   0.656  0.00  0.00    +0.000 A 
ATOM     11  C   UNL     1      -3.098  -4.002   0.309  0.00  0.00    +0.000 A 
ATOM     12  C   UNL     1      -2.167  -3.004   0.013  0.00  0.00    +0.000 A 
ATOM     13  N   UNL     1      -2.577  -1.771  -0.327  0.00  0.00    +0.000 NA
ATOM     14  C   UNL     1      -1.662  -0.798  -0.616  0.00  0.00    +0.000 A 
ENDROOT
BRANCH   4  15
ATOM     15  C   UNL     1       1.804   0.193  -0.951  0.00  0.00    +0.000 C 
ATOM     16  O   UNL     1       2.567  -0.774  -0.691  0.00  0.00    +0.000 OA
BRANCH  15  17
ATOM     17  O   UNL     1       2.403   1.393  -1.298  0.00  0.00    +0.000 OA
BRANCH  17  18
ATOM     18  C   UNL     1       3.783   1.607  -1.380  0.00  0.00    +0.000 C 
BRANCH  18  19
ATOM     19  C   UNL     1       4.483   1.364  -0.069  0.00  0.00    +0.000 A 
ATOM     20  C   UNL     1       4.594   2.391   0.842  0.00  0.00    +0.000 A 
ATOM     21  C   UNL     1       5.229   2.199   2.046  0.00  0.00    +0.000 A 
ATOM     22  C   UNL     1       5.763   0.971   2.356  0.00  0.00    +0.000 A 
ATOM     23  C   UNL     1       5.639  -0.040   1.430  0.00  0.00    +0.000 A 
ATOM     24  C   UNL     1       5.008   0.125   0.215  0.00  0.00    +0.000 A 
ENDBRANCH  18  19
ENDBRANCH  17  18
ENDBRANCH  15  17
ENDBRANCH   4  15
BRANCH   1  25
ATOM     25  C   UNL     1      -3.094   1.135  -1.137  0.00  0.00    +0.000 C 
BRANCH  25  26
ATOM     26  C   UNL     1      -3.488   1.734   0.190  0.00  0.00    +0.000 C 
BRANCH  26  27
ATOM     27  C   UNL     1      -4.805   2.438   0.151  0.00  0.00    +0.000 C 
BRANCH  27  28
ATOM     28  C   UNL     1      -4.755   3.556  -0.847  0.00  0.00    +0.000 C 
BRANCH  28  30
ATOM     29  C   UNL     1      -3.965   5.102   0.940  0.00  0.00    +0.000 C 
ATOM     30  C   UNL     1      -3.657   4.544  -0.436  0.00  0.00    +0.000 C 
ENDBRANCH  28  30
ENDBRANCH  27  28
ENDBRANCH  26  27
ENDBRANCH  25  26
ENDBRANCH   1  25
TORSDOF 9
