REMARK  Name = 
REMARK  7 active torsions:
REMARK  status: ('A' for Active; 'I' for Inactive)
REMARK    1  A    between atoms: C_8  and  C_9
REMARK    2  A    between atoms: C_15  and  C_16
REMARK    3  A    between atoms: N_22  and  C_23
REMARK    4  A    between atoms: C_23  and  C_24
REMARK    5  A    between atoms: C_24  and  C_26
REMARK    6  A    between atoms: C_26  and  N_27
REMARK    7  A    between atoms: N_27  and  C_28
REMARK                            x       y       z     vdW  Elec       q    Type
REMARK                         _______ _______ _______ _____ _____    ______ ____
ROOT
ATOM      1  C   UNL     1       1.439  -2.294   4.959  0.00  0.00    +0.000 C 
ATOM      2  C   UNL     1       1.132  -1.330   3.837  0.00  0.00    +0.000 A 
ATOM      3  C   UNL     1       1.699  -0.082   3.827  0.00  0.00    +0.000 A 
ATOM      4  C   UNL     1       1.436   0.851   2.811  0.00  0.00    +0.000 A 
ATOM      5  C   UNL     1       0.577   0.474   1.794  0.00  0.00    +0.000 A 
ATOM      6  C   UNL     1       0.002  -0.763   1.781  0.00  0.00    +0.000 A 
ATOM      7  C   UNL     1       0.282  -1.682   2.814  0.00  0.00    +0.000 A 
ATOM      8  C   UNL     1      -0.773  -0.749   0.650  0.00  0.00    +0.000 A 
ATOM      9  C   UNL     1      -0.696   0.450  -0.032  0.00  0.00    +0.000 A 
ATOM     10  N   UNL     1       0.166   1.215   0.708  0.00  0.00    +0.000 N 
ENDROOT
BRANCH   8  11
ATOM     11  C   UNL     1      -1.631  -1.844   0.231  0.00  0.00    +0.000 A 
ATOM     12  C   UNL     1      -1.503  -2.412  -1.003  0.00  0.00    +0.000 A 
ATOM     13  C   UNL     1      -2.295  -3.452  -1.448  0.00  0.00    +0.000 A 
ATOM     14  C   UNL     1      -3.281  -3.968  -0.620  0.00  0.00    +0.000 A 
ATOM     15  C   UNL     1      -3.422  -3.413   0.619  0.00  0.00    +0.000 A 
ATOM     16  C   UNL     1      -2.633  -2.379   1.058  0.00  0.00    +0.000 A 
ENDBRANCH   8  11
BRANCH   9  17
ATOM     17  C   UNL     1      -1.466   0.854  -1.210  0.00  0.00    +0.000 A 
ATOM     18  C   UNL     1      -2.842   1.138  -0.998  0.00  0.00    +0.000 A 
ATOM     19  C   UNL     1      -3.680   1.556  -1.974  0.00  0.00    +0.000 A 
ATOM     20  C   UNL     1      -3.236   1.734  -3.255  0.00  0.00    +0.000 A 
ATOM     21  C   UNL     1      -1.878   1.464  -3.510  0.00  0.00    +0.000 A 
ATOM     22  C   UNL     1      -1.072   1.038  -2.476  0.00  0.00    +0.000 A 
ENDBRANCH   9  17
BRANCH  10  23
ATOM     23  C   UNL     1       0.558   2.526   0.362  0.00  0.00    +0.000 C 
BRANCH  23  24
ATOM     24  C   UNL     1       2.054   2.579  -0.149  0.00  0.00    +0.000 C 
ATOM     25  O   UNL     1       1.951   4.099  -0.409  0.00  0.00    +0.000 OA
BRANCH  24  26
ATOM     26  C   UNL     1       1.867   2.183  -1.669  0.00  0.00    +0.000 C 
BRANCH  26  27
ATOM     27  N   UNL     1       2.061   0.717  -1.738  0.00  0.00    +0.000 NA
BRANCH  27  28
ATOM     28  C   UNL     1       3.452   0.425  -1.367  0.00  0.00    +0.000 C 
ATOM     29  C   UNL     1       3.382  -0.500  -0.175  0.00  0.00    +0.000 C 
ATOM     30  C   UNL     1       4.215  -0.193  -2.476  0.00  0.00    +0.000 C 
ATOM     31  C   UNL     1       4.134   1.759  -0.942  0.00  0.00    +0.000 C 
ENDBRANCH  27  28
ENDBRANCH  26  27
ENDBRANCH  24  26
ENDBRANCH  23  24
ENDBRANCH  10  23
TORSDOF 7
