REMARK  Name = 
REMARK  8 active torsions:
REMARK  status: ('A' for Active; 'I' for Inactive)
REMARK    1  A    between atoms: C_2  and  C_3
REMARK    2  A    between atoms: C_3  and  N_4
REMARK    3  A    between atoms: C_5  and  C_6
REMARK    4  A    between atoms: C_6  and  C_8
REMARK    5  A    between atoms: C_11  and  O_12
REMARK    6  A    between atoms: O_12  and  C_13
REMARK    7  A    between atoms: C_13  and  C_14
REMARK    8  A    between atoms: C_20  and  O_21
REMARK                            x       y       z     vdW  Elec       q    Type
REMARK                         _______ _______ _______ _____ _____    ______ ____
ROOT
ATOM      1  C   UNL     1      -0.685  -1.541  -0.549  0.00  0.00    +0.000 A 
ATOM      2  C   UNL     1       0.089  -2.384   0.184  0.00  0.00    +0.000 A 
ATOM      3  C   UNL     1       1.422  -2.037   0.329  0.00  0.00    +0.000 A 
ATOM      4  C   UNL     1       1.940  -0.885  -0.246  0.00  0.00    +0.000 A 
ATOM      5  C   UNL     1       1.114  -0.057  -0.983  0.00  0.00    +0.000 A 
ATOM      6  C   UNL     1      -0.214  -0.400  -1.129  0.00  0.00    +0.000 A 
ENDROOT
BRANCH   1   7
ATOM      7  C   UNL     1      -2.231  -1.896  -0.759  0.00  0.00    +0.000 C 
ATOM      8  O   UNL     1      -2.479  -2.278   0.678  0.00  0.00    +0.000 OA
BRANCH   7  10
ATOM      9  N   UNL     1      -3.980  -0.173  -0.084  0.00  0.00    +0.000 N 
ATOM     10  C   UNL     1      -2.809  -0.445  -0.648  0.00  0.00    +0.000 A 
ATOM     11  N   UNL     1      -2.287   0.679  -1.065  0.00  0.00    +0.000 NA
ATOM     12  C   UNL     1      -3.125   1.720  -0.773  0.00  0.00    +0.000 A 
ATOM     13  C   UNL     1      -3.081   3.080  -0.976  0.00  0.00    +0.000 A 
ATOM     14  C   UNL     1      -4.137   3.861  -0.538  0.00  0.00    +0.000 A 
ATOM     15  C   UNL     1      -5.238   3.329   0.096  0.00  0.00    +0.000 A 
ATOM     16  C   UNL     1      -5.265   1.966   0.291  0.00  0.00    +0.000 A 
ATOM     17  C   UNL     1      -4.224   1.167  -0.137  0.00  0.00    +0.000 A 
BRANCH   9  18
ATOM     18  C   UNL     1      -4.926  -1.095   0.524  0.00  0.00    +0.000 C 
BRANCH  18  20
ATOM     19  C   UNL     1      -5.735  -2.273   2.488  0.00  0.00    +0.000 C 
ATOM     20  C   UNL     1      -4.692  -1.302   1.989  0.00  0.00    +0.000 C 
ENDBRANCH  18  20
ENDBRANCH   9  18
ENDBRANCH   7  10
ENDBRANCH   1   7
BRANCH   5  21
ATOM     21  O   UNL     1       1.617   1.107  -1.570  0.00  0.00    +0.000 OA
ATOM     22  C   UNL     1       0.772   1.936  -2.313  0.00  0.00    +0.000 C 
ENDBRANCH   5  21
BRANCH   4  23
ATOM     23  O   UNL     1       3.256  -0.510  -0.124  0.00  0.00    +0.000 OA
BRANCH  23  24
ATOM     24  C   UNL     1       4.177  -1.318   0.627  0.00  0.00    +0.000 C 
BRANCH  24  25
ATOM     25  C   UNL     1       5.540  -0.657   0.584  0.00  0.00    +0.000 A 
ATOM     26  C   UNL     1       6.437  -0.955  -0.411  0.00  0.00    +0.000 A 
ATOM     27  C   UNL     1       7.660  -0.337  -0.417  0.00  0.00    +0.000 A 
ATOM     28  C   UNL     1       8.056   0.582   0.530  0.00  0.00    +0.000 A 
ATOM     29  C   UNL     1       7.131   0.859   1.516  0.00  0.00    +0.000 A 
ATOM     30  C   UNL     1       5.899   0.256   1.546  0.00  0.00    +0.000 A 
ENDBRANCH  24  25
ENDBRANCH  23  24
ENDBRANCH   4  23
TORSDOF 8
