REMARK  Name = 
REMARK  6 active torsions:
REMARK  status: ('A' for Active; 'I' for Inactive)
REMARK    1  A    between atoms: C_2  and  C_18
REMARK    2  A    between atoms: N_3  and  N_4
REMARK    3  A    between atoms: C_5  and  C_7
REMARK    4  A    between atoms: C_7  and  C_8
REMARK    5  A    between atoms: C_21  and  N_22
REMARK    6  A    between atoms: C_23  and  C_25
REMARK                            x       y       z     vdW  Elec       q    Type
REMARK                         _______ _______ _______ _____ _____    ______ ____
ROOT
ATOM      1  C   UNL     1       0.220   1.335   4.526  0.00  0.00    +0.000 C 
ATOM      2  C   UNL     1       0.065   1.086   3.063  0.00  0.00    +0.000 C 
ATOM      3  N   UNL     1      -1.087   1.250   2.513  0.00  0.00    +0.000 NA
ENDROOT
BRANCH   2   4
ATOM      4  C   UNL     1       1.172   0.667   2.242  0.00  0.00    +0.000 A 
ATOM      5  C   UNL     1       2.409   0.500   2.873  0.00  0.00    +0.000 A 
ATOM      6  C   UNL     1       3.538   0.102   2.182  0.00  0.00    +0.000 A 
ATOM      7  C   UNL     1       3.459  -0.142   0.830  0.00  0.00    +0.000 A 
ATOM      8  C   UNL     1       2.251   0.023   0.224  0.00  0.00    +0.000 A 
ATOM      9  C   UNL     1       1.108   0.423   0.906  0.00  0.00    +0.000 A 
BRANCH   7  10
ATOM     10  N   UNL     1       4.580  -0.551   0.070  0.00  0.00    +0.000 NA
ATOM     11  C   UNL     1       4.527  -0.805  -1.324  0.00  0.00    +0.000 C 
ATOM     12  O   UNL     1       3.409  -0.652  -1.900  0.00  0.00    +0.000 OA
BRANCH  11  13
ATOM     13  C   UNL     1       5.712  -1.234  -2.109  0.00  0.00    +0.000 C 
ATOM     14  C   UNL     1       6.287  -2.548  -1.592  0.00  0.00    +0.000 C 
ATOM     15  C   UNL     1       6.514  -2.408  -0.103  0.00  0.00    +0.000 C 
ATOM     16  C   UNL     1       7.449  -1.274   0.191  0.00  0.00    +0.000 C 
ATOM     17  C   UNL     1       6.994   0.013  -0.423  0.00  0.00    +0.000 C 
ATOM     18  C   UNL     1       6.803  -0.192  -1.911  0.00  0.00    +0.000 C 
ENDBRANCH  11  13
ENDBRANCH   7  10
ENDBRANCH   2   4
BRANCH   3  19
ATOM     19  N   UNL     1      -1.203   1.008   1.137  0.00  0.00    +0.000 NA
ATOM     20  C   UNL     1      -2.340   0.397   0.562  0.00  0.00    +0.000 C 
ATOM     21  O   UNL     1      -3.270   0.072   1.373  0.00  0.00    +0.000 OA
BRANCH  20  22
ATOM     22  C   UNL     1      -2.501   0.122  -0.896  0.00  0.00    +0.000 C 
BRANCH  22  23
ATOM     23  C   UNL     1      -3.826  -0.537  -1.140  0.00  0.00    +0.000 A 
ATOM     24  C   UNL     1      -3.887  -1.894  -1.381  0.00  0.00    +0.000 A 
ATOM     25  C   UNL     1      -5.071  -2.560  -1.608  0.00  0.00    +0.000 A 
ATOM     26  C   UNL     1      -6.238  -1.829  -1.592  0.00  0.00    +0.000 A 
ATOM     27  C   UNL     1      -6.237  -0.481  -1.359  0.00  0.00    +0.000 A 
ATOM     28  C   UNL     1      -7.414   0.260  -1.343  0.00  0.00    +0.000 A 
ATOM     29  C   UNL     1      -7.330   1.607  -1.103  0.00  0.00    +0.000 A 
ATOM     30  C   UNL     1      -6.118   2.226  -0.881  0.00  0.00    +0.000 A 
ATOM     31  C   UNL     1      -4.953   1.506  -0.894  0.00  0.00    +0.000 A 
ATOM     32  C   UNL     1      -5.020   0.157  -1.133  0.00  0.00    +0.000 A 
ENDBRANCH  22  23
ENDBRANCH  20  22
ENDBRANCH   3  19
TORSDOF 6
