REMARK  Name = 
REMARK  5 active torsions:
REMARK  status: ('A' for Active; 'I' for Inactive)
REMARK    1  A    between atoms: C_16  and  C_17
REMARK    2  A    between atoms: C_20  and  O_21
REMARK    3  A    between atoms: O_21  and  C_22
REMARK    4  A    between atoms: C_22  and  C_23
REMARK    5  A    between atoms: C_23  and  N_24
REMARK                            x       y       z     vdW  Elec       q    Type
REMARK                         _______ _______ _______ _____ _____    ______ ____
ROOT
ATOM      1  O   UNL     1      -7.528  -0.302  -0.966  0.00  0.00    +0.000 OA
ATOM      2  C   UNL     1      -6.162  -0.554  -0.805  0.00  0.00    +0.000 A 
ATOM      3  C   UNL     1      -5.738  -1.340   0.227  0.00  0.00    +0.000 A 
ATOM      4  C   UNL     1      -4.401  -1.597   0.400  0.00  0.00    +0.000 A 
ATOM      5  C   UNL     1      -3.450  -1.061  -0.476  0.00  0.00    +0.000 A 
ATOM      6  C   UNL     1      -3.874  -0.298  -1.473  0.00  0.00    +0.000 A 
ATOM      7  C   UNL     1      -5.203  -0.019  -1.679  0.00  0.00    +0.000 A 
ATOM      8  S   UNL     1      -2.427   0.261  -2.362  0.00  0.00    +0.000 S 
ATOM      9  C   UNL     1      -1.297   0.113  -0.834  0.00  0.00    +0.000 C 
ATOM     10  C   UNL     1      -2.095   0.976   0.130  0.00  0.00    +0.000 A 
ATOM     11  C   UNL     1      -2.579   2.275  -0.039  0.00  0.00    +0.000 A 
ATOM     12  C   UNL     1      -3.287   2.885   1.006  0.00  0.00    +0.000 A 
ATOM     13  C   UNL     1      -3.496   2.198   2.183  0.00  0.00    +0.000 A 
ATOM     14  C   UNL     1      -3.004   0.907   2.325  0.00  0.00    +0.000 A 
ATOM     15  C   UNL     1      -2.321   0.374   1.261  0.00  0.00    +0.000 A 
ATOM     16  C   UNL     1      -1.703  -1.098   1.261  0.00  0.00    +0.000 C 
ATOM     17  C   UNL     1      -1.938  -1.320  -0.423  0.00  0.00    +0.000 C 
ENDROOT
BRANCH  16  18
ATOM     18  C   UNL     1      -0.193  -0.680   1.238  0.00  0.00    +0.000 A 
ATOM     19  C   UNL     1       0.581  -0.863   0.154  0.00  0.00    +0.000 A 
ATOM     20  C   UNL     1       1.929  -0.469   0.214  0.00  0.00    +0.000 A 
ATOM     21  C   UNL     1       2.470   0.094   1.347  0.00  0.00    +0.000 A 
ATOM     22  C   UNL     1       1.653   0.269   2.442  0.00  0.00    +0.000 A 
ATOM     23  C   UNL     1       0.307  -0.128   2.370  0.00  0.00    +0.000 A 
BRANCH  21  24
ATOM     24  O   UNL     1       3.798   0.497   1.445  0.00  0.00    +0.000 OA
BRANCH  24  25
ATOM     25  C   UNL     1       4.752   0.384   0.433  0.00  0.00    +0.000 C 
BRANCH  25  26
ATOM     26  C   UNL     1       4.370   1.124  -0.831  0.00  0.00    +0.000 C 
BRANCH  26  27
ATOM     27  N   UNL     1       5.482   0.902  -1.763  0.00  0.00    +0.000 NA
ATOM     28  C   UNL     1       6.594   1.666  -1.169  0.00  0.00    +0.000 C 
ATOM     29  C   UNL     1       7.531   0.779  -0.416  0.00  0.00    +0.000 C 
ATOM     30  C   UNL     1       8.235  -0.099  -1.410  0.00  0.00    +0.000 C 
ATOM     31  C   UNL     1       7.174  -0.846  -2.196  0.00  0.00    +0.000 C 
ATOM     32  C   UNL     1       5.820  -0.524  -1.597  0.00  0.00    +0.000 C 
ENDBRANCH  26  27
ENDBRANCH  25  26
ENDBRANCH  24  25
ENDBRANCH  21  24
ENDBRANCH  16  18
TORSDOF 5
