REMARK  Name = 
REMARK  8 active torsions:
REMARK  status: ('A' for Active; 'I' for Inactive)
REMARK    1  A    between atoms: C_2  and  O_3
REMARK    2  A    between atoms: O_3  and  C_4
REMARK    3  A    between atoms: C_7  and  N_8
REMARK    4  A    between atoms: C_11  and  N_12
REMARK    5  A    between atoms: N_12  and  C_13
REMARK    6  A    between atoms: C_16  and  C_17
REMARK    7  A    between atoms: C_22  and  S_23
REMARK    8  A    between atoms: S_23  and  C_24
REMARK                            x       y       z     vdW  Elec       q    Type
REMARK                         _______ _______ _______ _____ _____    ______ ____
ROOT
ATOM      1  N   UNL     1       1.344   0.226   0.500  0.00  0.00    +0.000 N 
ATOM      2  C   UNL     1       0.280  -0.630   0.853  0.00  0.00    +0.000 C 
ATOM      3  O   UNL     1       0.405  -1.877   1.107  0.00  0.00    +0.000 OA
ATOM      4  C   UNL     1      -0.941   0.119   0.879  0.00  0.00    +0.000 C 
ATOM      5  C   UNL     1      -0.692   1.402   0.559  0.00  0.00    +0.000 C 
ATOM      6  C   UNL     1       0.722   1.522   0.312  0.00  0.00    +0.000 C 
ATOM      7  O   UNL     1       1.380   2.546  -0.017  0.00  0.00    +0.000 OA
ENDROOT
BRANCH   1  11
ATOM      8  C   UNL     1       5.491  -0.577   0.179  0.00  0.00    +0.000 A 
ATOM      9  C   UNL     1       4.920   0.559  -0.384  0.00  0.00    +0.000 A 
ATOM     10  C   UNL     1       3.576   0.827  -0.296  0.00  0.00    +0.000 A 
ATOM     11  C   UNL     1       2.751  -0.039   0.362  0.00  0.00    +0.000 A 
ATOM     12  C   UNL     1       3.260  -1.171   0.934  0.00  0.00    +0.000 A 
ATOM     13  C   UNL     1       4.613  -1.412   0.829  0.00  0.00    +0.000 A 
BRANCH   8  14
ATOM     14  O   UNL     1       6.858  -0.816   0.072  0.00  0.00    +0.000 OA
BRANCH  14  16
ATOM     15  C   UNL     1       6.654  -3.204   0.067  0.00  0.00    +0.000 C 
ATOM     16  C   UNL     1       7.342  -2.015   0.692  0.00  0.00    +0.000 C 
ENDBRANCH  14  16
ENDBRANCH   8  14
ENDBRANCH   1  11
BRANCH   4  17
ATOM     17  N   UNL     1      -2.216  -0.346   1.190  0.00  0.00    +0.000 NA
BRANCH  17  18
ATOM     18  C   UNL     1      -2.883  -1.482   0.678  0.00  0.00    +0.000 A 
ATOM     19  C   UNL     1      -2.330  -2.410  -0.172  0.00  0.00    +0.000 A 
ATOM     20  C   UNL     1      -3.043  -3.498  -0.653  0.00  0.00    +0.000 A 
ATOM     21  C   UNL     1      -4.364  -3.705  -0.294  0.00  0.00    +0.000 A 
ATOM     22  C   UNL     1      -4.927  -2.780   0.558  0.00  0.00    +0.000 A 
ATOM     23  C   UNL     1      -4.221  -1.702   1.033  0.00  0.00    +0.000 A 
BRANCH  21  24
ATOM     24  C   UNL     1      -5.165  -4.862  -0.796  0.00  0.00    +0.000 C 
ATOM     25  C   UNL     1      -5.498  -4.727  -2.260  0.00  0.00    +0.000 C 
ATOM     26  C   UNL     1      -4.493  -6.172  -0.547  0.00  0.00    +0.000 C 
ENDBRANCH  21  24
ENDBRANCH  17  18
ENDBRANCH   4  17
BRANCH   5  27
ATOM     27  S   UNL     1      -1.965   2.619   0.493  0.00  0.00    +0.000 S 
BRANCH  27  28
ATOM     28  C   UNL     1      -1.433   4.237   0.131  0.00  0.00    +0.000 A 
ATOM     29  C   UNL     1      -2.416   5.240   0.109  0.00  0.00    +0.000 A 
ATOM     30  C   UNL     1      -2.124   6.536  -0.156  0.00  0.00    +0.000 A 
ATOM     31  C   UNL     1      -0.856   6.955  -0.421  0.00  0.00    +0.000 A 
ATOM     32  C   UNL     1       0.138   5.979  -0.407  0.00  0.00    +0.000 A 
ATOM     33  C   UNL     1      -0.167   4.660  -0.135  0.00  0.00    +0.000 A 
ENDBRANCH  27  28
ENDBRANCH   5  27
TORSDOF 8
