REMARK  Name = 
REMARK  7 active torsions:
REMARK  status: ('A' for Active; 'I' for Inactive)
REMARK    1  A    between atoms: O_2  and  C_3
REMARK    2  A    between atoms: C_6  and  N_7
REMARK    3  A    between atoms: C_8  and  C_10
REMARK    4  A    between atoms: C_10  and  N_17
REMARK    5  A    between atoms: C_11  and  C_12
REMARK    6  A    between atoms: C_18  and  C_20
REMARK    7  A    between atoms: C_23  and  C_24
REMARK                            x       y       z     vdW  Elec       q    Type
REMARK                         _______ _______ _______ _____ _____    ______ ____
ROOT
ATOM      1  C   UNL     1      -0.786  -1.409   0.072  0.00  0.00    +0.000 C 
ATOM      2  C   UNL     1      -1.357  -2.521   0.140  0.00  0.00    +0.000 C 
ENDROOT
BRANCH   2   3
ATOM      3  C   UNL     1      -2.766  -2.863   0.237  0.00  0.00    +0.000 A 
ATOM      4  C   UNL     1      -3.380  -3.885  -0.510  0.00  0.00    +0.000 A 
ATOM      5  C   UNL     1      -4.658  -4.099  -0.297  0.00  0.00    +0.000 A 
ATOM      6  C   UNL     1      -5.323  -3.313   0.625  0.00  0.00    +0.000 A 
ATOM      7  S   UNL     1      -4.063  -2.289   1.170  0.00  0.00    +0.000 S 
ENDBRANCH   2   3
BRANCH   1   9
ATOM      8  N   UNL     1      -2.918   0.086   0.172  0.00  0.00    +0.000 NA
ATOM      9  C   UNL     1      -1.547  -0.169   0.076  0.00  0.00    +0.000 C 
ATOM     10  O   UNL     1      -0.839   0.909  -0.050  0.00  0.00    +0.000 OA
BRANCH   8  14
ATOM     11  C   UNL     1      -4.015   4.165  -0.021  0.00  0.00    +0.000 A 
ATOM     12  C   UNL     1      -2.897   3.689  -0.686  0.00  0.00    +0.000 A 
ATOM     13  C   UNL     1      -2.556   2.356  -0.638  0.00  0.00    +0.000 A 
ATOM     14  C   UNL     1      -3.364   1.485   0.094  0.00  0.00    +0.000 A 
ATOM     15  C   UNL     1      -4.448   1.926   0.738  0.00  0.00    +0.000 A 
ATOM     16  C   UNL     1      -4.825   3.300   0.711  0.00  0.00    +0.000 A 
BRANCH  11  18
ATOM     17  C   UNL     1      -3.445   6.365  -0.862  0.00  0.00    +0.000 C 
ATOM     18  O   UNL     1      -4.323   5.545  -0.085  0.00  0.00    +0.000 OA
ENDBRANCH  11  18
ENDBRANCH   8  14
ENDBRANCH   1   9
BRANCH   1  19
ATOM     19  N   UNL     1       0.606  -1.244   0.026  0.00  0.00    +0.000 NA
ATOM     20  C   UNL     1       1.655  -2.146   0.106  0.00  0.00    +0.000 C 
ATOM     21  O   UNL     1       1.377  -3.336   0.240  0.00  0.00    +0.000 OA
BRANCH  20  22
ATOM     22  C   UNL     1       3.055  -1.600   0.029  0.00  0.00    +0.000 A 
ATOM     23  C   UNL     1       4.131  -2.127   0.626  0.00  0.00    +0.000 A 
ATOM     24  C   UNL     1       5.356  -1.444   0.564  0.00  0.00    +0.000 A 
ATOM     25  C   UNL     1       5.482  -0.255  -0.092  0.00  0.00    +0.000 A 
ATOM     26  C   UNL     1       4.347   0.243  -0.697  0.00  0.00    +0.000 A 
ATOM     27  C   UNL     1       3.165  -0.372  -0.660  0.00  0.00    +0.000 A 
BRANCH  25  28
ATOM     28  C   UNL     1       6.758   0.524  -0.143  0.00  0.00    +0.000 C 
ATOM     29  C   UNL     1       7.656   0.158   0.983  0.00  0.00    +0.000 C 
ATOM     30  C   UNL     1       7.460   0.293  -1.458  0.00  0.00    +0.000 C 
ATOM     31  C   UNL     1       6.463   2.026  -0.008  0.00  0.00    +0.000 C 
ENDBRANCH  25  28
ENDBRANCH  20  22
ENDBRANCH   1  19
TORSDOF 7
