REMARK  Name = 
REMARK  7 active torsions:
REMARK  status: ('A' for Active; 'I' for Inactive)
REMARK    1  A    between atoms: O_2  and  C_3
REMARK    2  A    between atoms: C_6  and  N_7
REMARK    3  A    between atoms: C_8  and  C_9
REMARK    4  A    between atoms: C_12  and  O_13
REMARK    5  A    between atoms: C_16  and  O_17
REMARK    6  A    between atoms: C_20  and  C_21
REMARK    7  A    between atoms: N_23  and  C_24
REMARK                            x       y       z     vdW  Elec       q    Type
REMARK                         _______ _______ _______ _____ _____    ______ ____
ROOT
ATOM      1  N   UNL     1       0.467   0.610  -0.022  0.00  0.00    +0.000 N 
ATOM      2  C   UNL     1       0.584  -0.702  -0.138  0.00  0.00    +0.000 A 
ATOM      3  C   UNL     1      -0.714  -1.184   0.053  0.00  0.00    +0.000 A 
ATOM      4  C   UNL     1      -1.561  -0.157   0.272  0.00  0.00    +0.000 A 
ATOM      5  C   UNL     1      -0.816   1.004   0.227  0.00  0.00    +0.000 A 
ATOM      6  C   UNL     1      -1.329   2.402   0.414  0.00  0.00    +0.000 C 
ENDROOT
BRANCH   1  10
ATOM      7  C   UNL     1       3.403   3.659  -0.199  0.00  0.00    +0.000 A 
ATOM      8  C   UNL     1       3.738   2.440   0.438  0.00  0.00    +0.000 A 
ATOM      9  C   UNL     1       2.745   1.483   0.455  0.00  0.00    +0.000 A 
ATOM     10  C   UNL     1       1.493   1.609  -0.081  0.00  0.00    +0.000 A 
ATOM     11  C   UNL     1       1.220   2.812  -0.692  0.00  0.00    +0.000 A 
ATOM     12  C   UNL     1       2.183   3.830  -0.742  0.00  0.00    +0.000 A 
BRANCH   7  14
ATOM     13  C   UNL     1       5.645   4.422   0.357  0.00  0.00    +0.000 C 
ATOM     14  O   UNL     1       4.366   4.654  -0.240  0.00  0.00    +0.000 OA
ENDBRANCH   7  14
ENDBRANCH   1  10
BRANCH   2  15
ATOM     15  C   UNL     1       1.766  -1.528  -0.414  0.00  0.00    +0.000 A 
ATOM     16  C   UNL     1       3.026  -1.058  -0.607  0.00  0.00    +0.000 A 
ATOM     17  C   UNL     1       4.120  -1.871  -0.846  0.00  0.00    +0.000 A 
ATOM     18  C   UNL     1       3.926  -3.250  -0.893  0.00  0.00    +0.000 A 
ATOM     19  C   UNL     1       2.641  -3.737  -0.698  0.00  0.00    +0.000 A 
ATOM     20  C   UNL     1       1.584  -2.901  -0.464  0.00  0.00    +0.000 A 
BRANCH  18  21
ATOM     21  O   UNL     1       4.927  -4.169  -1.119  0.00  0.00    +0.000 OA
ATOM     22  C   UNL     1       6.272  -3.802  -1.324  0.00  0.00    +0.000 C 
ENDBRANCH  18  21
BRANCH  20  23
ATOM     23  O   UNL     1       0.306  -3.456  -0.276  0.00  0.00    +0.000 OA
ATOM     24  C   UNL     1       0.163  -4.860  -0.336  0.00  0.00    +0.000 C 
ENDBRANCH  20  23
ENDBRANCH   2  15
BRANCH   4  25
ATOM     25  C   UNL     1      -3.010  -0.145   0.470  0.00  0.00    +0.000 C 
ATOM     26  O   UNL     1      -3.548  -0.870   1.341  0.00  0.00    +0.000 OA
ATOM     27  N   UNL     1      -3.857   0.682  -0.316  0.00  0.00    +0.000 NA
BRANCH  27  28
ATOM     28  C   UNL     1      -5.264   0.696  -0.111  0.00  0.00    +0.000 A 
ATOM     29  C   UNL     1      -5.741   0.214   1.101  0.00  0.00    +0.000 A 
ATOM     30  C   UNL     1      -7.079   0.200   1.338  0.00  0.00    +0.000 A 
ATOM     31  C   UNL     1      -7.983   0.664   0.383  0.00  0.00    +0.000 A 
ATOM     32  C   UNL     1      -7.512   1.154  -0.840  0.00  0.00    +0.000 A 
ATOM     33  C   UNL     1      -6.158   1.157  -1.057  0.00  0.00    +0.000 A 
ENDBRANCH  27  28
ENDBRANCH   4  25
TORSDOF 7
