REMARK  Name = 
REMARK  6 active torsions:
REMARK  status: ('A' for Active; 'I' for Inactive)
REMARK    1  A    between atoms: N_4  and  C_5
REMARK    2  A    between atoms: C_16  and  C_17
REMARK    3  A    between atoms: C_20  and  O_21
REMARK    4  A    between atoms: O_21  and  C_22
REMARK    5  A    between atoms: C_22  and  C_23
REMARK    6  A    between atoms: C_29  and  O_30
REMARK                            x       y       z     vdW  Elec       q    Type
REMARK                         _______ _______ _______ _____ _____    ______ ____
ROOT
ATOM      1  C   UNL     1      -0.438  -0.887  -1.273  0.00  0.00    +0.000 C 
ATOM      2  C   UNL     1      -1.623  -0.629  -0.716  0.00  0.00    +0.000 A 
ATOM      3  N   UNL     1      -2.839  -1.017  -1.137  0.00  0.00    +0.000 NA
ATOM      4  N   UNL     1      -3.804  -0.586  -0.347  0.00  0.00    +0.000 N 
ATOM      5  C   UNL     1      -3.176   0.114   0.631  0.00  0.00    +0.000 A 
ATOM      6  O   UNL     1      -3.752   0.693   1.592  0.00  0.00    +0.000 OA
ATOM      7  C   UNL     1      -1.819   0.095   0.413  0.00  0.00    +0.000 A 
ATOM      8  C   UNL     1      -0.887   0.663   1.148  0.00  0.00    +0.000 C 
ENDROOT
BRANCH   4   9
ATOM      9  C   UNL     1      -5.212  -0.792  -0.465  0.00  0.00    +0.000 A 
ATOM     10  C   UNL     1      -5.825  -0.817  -1.699  0.00  0.00    +0.000 A 
ATOM     11  C   UNL     1      -7.194  -1.018  -1.804  0.00  0.00    +0.000 A 
ATOM     12  C   UNL     1      -7.998  -1.200  -0.699  0.00  0.00    +0.000 A 
ATOM     13  C   UNL     1      -9.471  -1.416  -0.827  0.00  0.00    +0.000 C 
ATOM     14  C   UNL     1      -7.385  -1.176   0.535  0.00  0.00    +0.000 A 
ATOM     15  C   UNL     1      -8.250  -1.373   1.737  0.00  0.00    +0.000 C 
ATOM     16  C   UNL     1      -6.014  -0.975   0.643  0.00  0.00    +0.000 A 
ENDBRANCH   4   9
BRANCH   8  17
ATOM     17  C   UNL     1       0.534   0.595   0.847  0.00  0.00    +0.000 A 
ATOM     18  C   UNL     1       1.303  -0.535   1.009  0.00  0.00    +0.000 A 
ATOM     19  C   UNL     1       2.649  -0.538   0.706  0.00  0.00    +0.000 A 
ATOM     20  C   UNL     1       3.272   0.589   0.230  0.00  0.00    +0.000 A 
ATOM     21  C   UNL     1       2.521   1.734   0.060  0.00  0.00    +0.000 A 
ATOM     22  C   UNL     1       1.156   1.724   0.371  0.00  0.00    +0.000 A 
BRANCH  21  23
ATOM     23  O   UNL     1       3.150   2.875  -0.421  0.00  0.00    +0.000 OA
ATOM     24  C   UNL     1       2.506   4.093  -0.638  0.00  0.00    +0.000 C 
ENDBRANCH  21  23
BRANCH  20  25
ATOM     25  O   UNL     1       4.625   0.627  -0.087  0.00  0.00    +0.000 OA
BRANCH  25  26
ATOM     26  C   UNL     1       5.373  -0.558   0.096  0.00  0.00    +0.000 C 
BRANCH  26  27
ATOM     27  C   UNL     1       6.766  -0.300  -0.295  0.00  0.00    +0.000 A 
ATOM     28  C   UNL     1       7.213  -0.496  -1.585  0.00  0.00    +0.000 A 
ATOM     29  C   UNL     1       8.526  -0.249  -1.940  0.00  0.00    +0.000 A 
ATOM     30  C   UNL     1       9.414   0.201  -1.000  0.00  0.00    +0.000 A 
ATOM     31  C   UNL     1       8.987   0.400   0.281  0.00  0.00    +0.000 A 
ATOM     32  C   UNL     1       7.692   0.159   0.639  0.00  0.00    +0.000 A 
ENDBRANCH  26  27
ENDBRANCH  25  26
ENDBRANCH  20  25
ENDBRANCH   8  17
TORSDOF 6
