REMARK  Name = 
REMARK  6 active torsions:
REMARK  status: ('A' for Active; 'I' for Inactive)
REMARK    1  A    between atoms: O_2  and  C_3
REMARK    2  A    between atoms: C_7  and  C_8
REMARK    3  A    between atoms: N_10  and  C_11
REMARK    4  A    between atoms: C_11  and  C_12
REMARK    5  A    between atoms: C_19  and  C_20
REMARK    6  A    between atoms: C_29  and  O_30
REMARK                            x       y       z     vdW  Elec       q    Type
REMARK                         _______ _______ _______ _____ _____    ______ ____
ROOT
ATOM      1  C   UNL     1      -3.033   2.855   0.663  0.00  0.00    +0.000 A 
ATOM      2  C   UNL     1      -1.675   2.776   0.949  0.00  0.00    +0.000 A 
ATOM      3  C   UNL     1      -0.965   1.619   0.775  0.00  0.00    +0.000 A 
ATOM      4  C   UNL     1       0.383   1.512   1.050  0.00  0.00    +0.000 A 
ATOM      5  C   UNL     1       1.044   0.318   0.854  0.00  0.00    +0.000 A 
ATOM      6  C   UNL     1       0.344  -0.790   0.374  0.00  0.00    +0.000 A 
ATOM      7  C   UNL     1      -1.004  -0.696   0.095  0.00  0.00    +0.000 A 
ATOM      8  C   UNL     1      -1.654   0.509   0.297  0.00  0.00    +0.000 A 
ATOM      9  C   UNL     1      -3.005   0.566   0.006  0.00  0.00    +0.000 A 
ATOM     10  C   UNL     1      -3.700   1.744   0.190  0.00  0.00    +0.000 A 
ENDROOT
BRANCH   7  11
ATOM     11  C   UNL     1      -1.770  -1.838  -0.410  0.00  0.00    +0.000 A 
ATOM     12  C   UNL     1      -2.664  -1.723  -1.464  0.00  0.00    +0.000 A 
ATOM     13  C   UNL     1      -3.383  -2.798  -1.937  0.00  0.00    +0.000 A 
ATOM     14  C   UNL     1      -3.234  -4.046  -1.370  0.00  0.00    +0.000 A 
ATOM     15  C   UNL     1      -4.016  -5.212  -1.886  0.00  0.00    +0.000 C 
ATOM     16  C   UNL     1      -2.351  -4.178  -0.323  0.00  0.00    +0.000 A 
ATOM     17  C   UNL     1      -1.634  -3.093   0.146  0.00  0.00    +0.000 A 
ENDBRANCH   7  11
BRANCH   5  18
ATOM     18  C   UNL     1       2.468   0.237   1.154  0.00  0.00    +0.000 C 
ATOM     19  O   UNL     1       3.069   1.237   1.587  0.00  0.00    +0.000 OA
ATOM     20  N   UNL     1       3.128  -1.022   0.931  0.00  0.00    +0.000 NA
BRANCH  20  21
ATOM     21  C   UNL     1       4.544  -1.072   1.238  0.00  0.00    +0.000 C 
BRANCH  21  22
ATOM     22  C   UNL     1       5.360  -0.412   0.215  0.00  0.00    +0.000 A 
ATOM     23  C   UNL     1       6.724  -0.394   0.342  0.00  0.00    +0.000 A 
ATOM     24  C   UNL     1       7.486   0.227  -0.621  0.00  0.00    +0.000 A 
ATOM     25  C   UNL     1       6.866   0.827  -1.707  0.00  0.00    +0.000 A 
ATOM     26  C   UNL     1       5.508   0.804  -1.826  0.00  0.00    +0.000 A 
ATOM     27  C   UNL     1       4.759   0.183  -0.861  0.00  0.00    +0.000 A 
ENDBRANCH  21  22
ENDBRANCH  20  21
ENDBRANCH   5  18
BRANCH   1  29
ATOM     28  C   UNL     1      -3.010   5.187   1.343  0.00  0.00    +0.000 C 
ATOM     29  O   UNL     1      -3.718   4.063   0.857  0.00  0.00    +0.000 OA
ENDBRANCH   1  29
BRANCH  10  30
ATOM     30  O   UNL     1      -5.058   1.854  -0.087  0.00  0.00    +0.000 OA
ATOM     31  C   UNL     1      -5.808   0.758  -0.575  0.00  0.00    +0.000 C 
ENDBRANCH  10  30
TORSDOF 6
