REMARK  Name = 
REMARK  6 active torsions:
REMARK  status: ('A' for Active; 'I' for Inactive)
REMARK    1  A    between atoms: C_2  and  C_22
REMARK    2  A    between atoms: N_3  and  C_4
REMARK    3  A    between atoms: C_4  and  C_5
REMARK    4  A    between atoms: C_5  and  C_6
REMARK    5  A    between atoms: C_6  and  C_7
REMARK    6  A    between atoms: C_7  and  N_8
REMARK                            x       y       z     vdW  Elec       q    Type
REMARK                         _______ _______ _______ _____ _____    ______ ____
ROOT
ATOM      1  C   UNL     1       1.197  -2.401  -1.680  0.00  0.00    +0.000 C 
ENDROOT
BRANCH   1   2
ATOM      2  C   UNL     1       1.302  -1.057  -2.136  0.00  0.00    +0.000 C 
BRANCH   2   3
ATOM      3  C   UNL     1       0.257  -0.266  -2.600  0.00  0.00    +0.000 C 
BRANCH   3   6
ATOM      4  O   UNL     1      -2.212  -1.711  -1.616  0.00  0.00    +0.000 OA
ATOM      5  C   UNL     1      -2.048  -0.479  -1.518  0.00  0.00    +0.000 C 
ATOM      6  N   UNL     1      -0.890   0.115  -1.999  0.00  0.00    +0.000 NA
BRANCH   5   7
ATOM      7  C   UNL     1      -3.095   0.312  -0.892  0.00  0.00    +0.000 A 
ATOM      8  C   UNL     1      -2.980   1.677  -0.689  0.00  0.00    +0.000 A 
ATOM      9  C   UNL     1      -3.978   2.426  -0.093  0.00  0.00    +0.000 A 
ATOM     10  C   UNL     1      -5.139   1.821   0.325  0.00  0.00    +0.000 A 
ATOM     11  C   UNL     1      -6.152   2.527   0.922  0.00  0.00    +0.000 A 
ATOM     12  C   UNL     1      -7.289   1.903   1.325  0.00  0.00    +0.000 A 
ATOM     13  C   UNL     1      -7.466   0.545   1.152  0.00  0.00    +0.000 A 
ATOM     14  C   UNL     1      -6.455  -0.153   0.558  0.00  0.00    +0.000 A 
ATOM     15  C   UNL     1      -5.288   0.449   0.137  0.00  0.00    +0.000 A 
ATOM     16  C   UNL     1      -4.267  -0.274  -0.466  0.00  0.00    +0.000 A 
ENDBRANCH   5   7
ENDBRANCH   3   6
ENDBRANCH   2   3
ENDBRANCH   1   2
BRANCH   1  17
ATOM     17  C   UNL     1       0.430  -2.787  -0.484  0.00  0.00    +0.000 C 
BRANCH  17  18
ATOM     18  N   UNL     1       0.954  -2.150   0.699  0.00  0.00    +0.000 NA
ATOM     19  C   UNL     1       0.742  -0.744   0.697  0.00  0.00    +0.000 C 
ATOM     20  C   UNL     1       1.909  -0.100   1.411  0.00  0.00    +0.000 C 
ATOM     21  N   UNL     1       3.094  -0.397   0.702  0.00  0.00    +0.000 N 
ATOM     22  C   UNL     1       4.160   0.500   0.663  0.00  0.00    +0.000 A 
ATOM     23  C   UNL     1       4.011   1.870   0.916  0.00  0.00    +0.000 A 
ATOM     24  C   UNL     1       5.050   2.762   0.880  0.00  0.00    +0.000 A 
ATOM     25  C   UNL     1       6.307   2.322   0.585  0.00  0.00    +0.000 A 
ATOM     26  C   UNL     1       6.484   0.990   0.332  0.00  0.00    +0.000 A 
ATOM     27  C   UNL     1       5.464   0.099   0.365  0.00  0.00    +0.000 A 
ATOM     28  C   UNL     1       5.723  -1.330   0.082  0.00  0.00    +0.000 C 
ATOM     29  C   UNL     1       4.633  -2.171   0.727  0.00  0.00    +0.000 C 
ATOM     30  C   UNL     1       3.249  -1.730  -0.052  0.00  0.00    +0.000 C 
ATOM     31  C   UNL     1       2.292  -2.570   1.030  0.00  0.00    +0.000 C 
ENDBRANCH  17  18
ENDBRANCH   1  17
TORSDOF 6
