REMARK  Name = 
REMARK  6 active torsions:
REMARK  status: ('A' for Active; 'I' for Inactive)
REMARK    1  A    between atoms: C_2  and  C_3
REMARK    2  A    between atoms: N_15  and  C_16
REMARK    3  A    between atoms: C_16  and  C_17
REMARK    4  A    between atoms: C_17  and  C_18
REMARK    5  A    between atoms: C_18  and  N_19
REMARK    6  A    between atoms: C_22  and  C_24
REMARK                            x       y       z     vdW  Elec       q    Type
REMARK                         _______ _______ _______ _____ _____    ______ ____
ROOT
ATOM      1  C   UNL     1      -0.828  -1.556   0.092  0.00  0.00    +0.000 C 
ENDROOT
BRANCH   1  14
ATOM      2  C   UNL     1      -4.083   2.285   1.323  0.00  0.00    +0.000 A 
ATOM      3  C   UNL     1      -2.734   2.216   1.608  0.00  0.00    +0.000 A 
ATOM      4  C   UNL     1      -2.015   1.132   1.219  0.00  0.00    +0.000 A 
ATOM      5  C   UNL     1      -2.657   0.113   0.540  0.00  0.00    +0.000 A 
ATOM      6  C   UNL     1      -4.016   0.190   0.258  0.00  0.00    +0.000 A 
ATOM      7  C   UNL     1      -4.734   1.278   0.649  0.00  0.00    +0.000 A 
ATOM      8  C   UNL     1      -4.327  -0.958  -0.417  0.00  0.00    +0.000 A 
ATOM      9  C   UNL     1      -5.514  -1.420  -0.937  0.00  0.00    +0.000 A 
ATOM     10  C   UNL     1      -5.574  -2.640  -1.587  0.00  0.00    +0.000 A 
ATOM     11  C   UNL     1      -4.429  -3.376  -1.701  0.00  0.00    +0.000 A 
ATOM     12  C   UNL     1      -3.221  -2.958  -1.198  0.00  0.00    +0.000 A 
ATOM     13  C   UNL     1      -3.179  -1.735  -0.550  0.00  0.00    +0.000 A 
ATOM     14  N   UNL     1      -2.175  -1.041   0.052  0.00  0.00    +0.000 N 
BRANCH   2  16
ATOM     15  C   UNL     1      -4.763   4.489   0.644  0.00  0.00    +0.000 C 
ATOM     16  C   UNL     1      -4.838   3.502   1.765  0.00  0.00    +0.000 C 
ENDBRANCH   2  16
ENDBRANCH   1  14
BRANCH   1  17
ATOM     17  C   UNL     1      -0.093  -0.989  -1.097  0.00  0.00    +0.000 C 
BRANCH  17  18
ATOM     18  C   UNL     1       1.288  -1.554  -1.141  0.00  0.00    +0.000 C 
BRANCH  18  19
ATOM     19  N   UNL     1       1.995  -1.241   0.070  0.00  0.00    +0.000 NA
ATOM     20  C   UNL     1       3.357  -1.822   0.010  0.00  0.00    +0.000 C 
ATOM     21  C   UNL     1       4.046  -1.301  -1.243  0.00  0.00    +0.000 C 
ATOM     22  C   UNL     1       4.114   0.220  -1.195  0.00  0.00    +0.000 C 
ATOM     23  O   UNL     1       4.704   0.641  -2.402  0.00  0.00    +0.000 OA
ATOM     24  C   UNL     1       2.734   0.752  -1.036  0.00  0.00    +0.000 C 
ATOM     25  C   UNL     1       2.091   0.200   0.192  0.00  0.00    +0.000 C 
BRANCH  22  26
ATOM     26  C   UNL     1       4.950   0.616  -0.038  0.00  0.00    +0.000 A 
ATOM     27  C   UNL     1       6.127  -0.109   0.134  0.00  0.00    +0.000 A 
ATOM     28  C   UNL     1       6.949   0.227   1.182  0.00  0.00    +0.000 A 
ATOM     29  C   UNL     1       6.661   1.246   2.065  0.00  0.00    +0.000 A 
ATOM     30  C   UNL     1       5.502   1.956   1.892  0.00  0.00    +0.000 A 
ATOM     31  C   UNL     1       4.660   1.638   0.848  0.00  0.00    +0.000 A 
ENDBRANCH  22  26
ENDBRANCH  18  19
ENDBRANCH  17  18
ENDBRANCH   1  17
TORSDOF 6
