REMARK  Name = 
REMARK  9 active torsions:
REMARK  status: ('A' for Active; 'I' for Inactive)
REMARK    1  A    between atoms: C_2  and  C_3
REMARK    2  A    between atoms: C_2  and  N_7
REMARK    3  A    between atoms: C_3  and  C_4
REMARK    4  A    between atoms: N_7  and  N_8
REMARK    5  A    between atoms: C_9  and  C_11
REMARK    6  A    between atoms: C_14  and  C_15
REMARK    7  A    between atoms: C_15  and  O_16
REMARK    8  A    between atoms: O_16  and  C_17
REMARK    9  A    between atoms: C_22  and  C_23
REMARK                            x       y       z     vdW  Elec       q    Type
REMARK                         _______ _______ _______ _____ _____    ______ ____
ROOT
ATOM      1  C   UNL     1       1.936   0.066  -0.139  0.00  0.00    +0.000 A 
ATOM      2  C   UNL     1       1.103   1.094   0.187  0.00  0.00    +0.000 A 
ATOM      3  C   UNL     1      -0.197   1.158  -0.303  0.00  0.00    +0.000 A 
ATOM      4  C   UNL     1      -0.675   0.182  -1.130  0.00  0.00    +0.000 A 
ATOM      5  C   UNL     1       0.156  -0.865  -1.468  0.00  0.00    +0.000 A 
ATOM      6  C   UNL     1       1.442  -0.924  -0.981  0.00  0.00    +0.000 A 
ENDROOT
BRANCH   1   8
ATOM      7  N   UNL     1       4.099  -1.142   0.020  0.00  0.00    +0.000 NA
ATOM      8  C   UNL     1       3.325  -0.024   0.359  0.00  0.00    +0.000 C 
ATOM      9  O   UNL     1       3.801   0.871   1.067  0.00  0.00    +0.000 OA
BRANCH   7  10
ATOM     10  N   UNL     1       5.438  -1.342   0.433  0.00  0.00    +0.000 NA
BRANCH  10  12
ATOM     11  C   UNL     1       6.756  -2.942  -0.712  0.00  0.00    +0.000 C 
ATOM     12  C   UNL     1       6.450  -1.672  -0.522  0.00  0.00    +0.000 C 
BRANCH  12  13
ATOM     13  C   UNL     1       7.131  -0.623  -1.279  0.00  0.00    +0.000 C 
BRANCH  13  14
ATOM     14  C   UNL     1       7.883   0.369  -0.452  0.00  0.00    +0.000 C 
ATOM     15  C   UNL     1       8.974  -0.286   0.382  0.00  0.00    +0.000 C 
ATOM     16  C   UNL     1       6.977   1.196   0.436  0.00  0.00    +0.000 C 
ENDBRANCH  13  14
ENDBRANCH  12  13
ENDBRANCH  10  12
ENDBRANCH   7  10
ENDBRANCH   1   8
BRANCH   4  17
ATOM     17  C   UNL     1      -2.033   0.192  -1.670  0.00  0.00    +0.000 C 
BRANCH  17  18
ATOM     18  O   UNL     1      -2.929   0.850  -1.048  0.00  0.00    +0.000 OA
BRANCH  18  19
ATOM     19  C   UNL     1      -3.770   1.627  -0.433  0.00  0.00    +0.000 A 
ATOM     20  C   UNL     1      -3.583   2.985  -0.290  0.00  0.00    +0.000 A 
ATOM     21  C   UNL     1      -4.460   3.827   0.352  0.00  0.00    +0.000 A 
ATOM     22  C   UNL     1      -5.604   3.241   0.882  0.00  0.00    +0.000 A 
ATOM     23  C   UNL     1      -5.811   1.887   0.751  0.00  0.00    +0.000 A 
ATOM     24  C   UNL     1      -4.939   1.051   0.114  0.00  0.00    +0.000 A 
BRANCH  24  25
ATOM     25  C   UNL     1      -5.130  -0.386  -0.023  0.00  0.00    +0.000 A 
ATOM     26  C   UNL     1      -6.306  -0.967  -0.414  0.00  0.00    +0.000 A 
ATOM     27  C   UNL     1      -6.427  -2.351  -0.530  0.00  0.00    +0.000 A 
ATOM     28  C   UNL     1      -5.358  -3.201  -0.254  0.00  0.00    +0.000 A 
ATOM     29  C   UNL     1      -4.186  -2.618   0.136  0.00  0.00    +0.000 A 
ATOM     30  C   UNL     1      -4.061  -1.252   0.252  0.00  0.00    +0.000 A 
ENDBRANCH  24  25
ENDBRANCH  18  19
ENDBRANCH  17  18
ENDBRANCH   4  17
TORSDOF 9
