REMARK  Name = 
REMARK  8 active torsions:
REMARK  status: ('A' for Active; 'I' for Inactive)
REMARK    1  A    between atoms: C_2  and  N_3
REMARK    2  A    between atoms: C_2  and  C_19
REMARK    3  A    between atoms: N_3  and  N_4
REMARK    4  A    between atoms: C_5  and  C_7
REMARK    5  A    between atoms: C_7  and  O_8
REMARK    6  A    between atoms: O_8  and  C_9
REMARK    7  A    between atoms: C_15  and  C_16
REMARK    8  A    between atoms: C_22  and  C_23
REMARK                            x       y       z     vdW  Elec       q    Type
REMARK                         _______ _______ _______ _____ _____    ______ ____
ROOT
ATOM      1  N   UNL     1      -0.116  -2.181  -0.690  0.00  0.00    +0.000 NA
ENDROOT
BRANCH   1   2
ATOM      2  N   UNL     1      -0.565  -1.097  -1.406  0.00  0.00    +0.000 NA
ATOM      3  C   UNL     1      -1.546  -0.265  -0.817  0.00  0.00    +0.000 C 
ATOM      4  O   UNL     1      -1.964  -0.513   0.322  0.00  0.00    +0.000 OA
BRANCH   3   5
ATOM      5  C   UNL     1      -2.054   0.882  -1.577  0.00  0.00    +0.000 C 
BRANCH   5   6
ATOM      6  O   UNL     1      -3.081   1.503  -0.836  0.00  0.00    +0.000 OA
BRANCH   6   7
ATOM      7  C   UNL     1      -4.213   0.748  -0.531  0.00  0.00    +0.000 A 
ATOM      8  C   UNL     1      -4.324  -0.575  -0.942  0.00  0.00    +0.000 A 
ATOM      9  C   UNL     1      -5.455  -1.329  -0.636  0.00  0.00    +0.000 A 
ATOM     10  C   UNL     1      -5.506  -2.761  -1.107  0.00  0.00    +0.000 C 
ATOM     11  C   UNL     1      -6.503  -0.797   0.082  0.00  0.00    +0.000 A 
ATOM     12  C   UNL     1      -6.389   0.528   0.491  0.00  0.00    +0.000 A 
ATOM     13  C   UNL     1      -5.264   1.277   0.186  0.00  0.00    +0.000 A 
BRANCH  13  14
ATOM     14  C   UNL     1      -5.188   2.679   0.657  0.00  0.00    +0.000 C 
ATOM     15  C   UNL     1      -6.520   3.053   1.298  0.00  0.00    +0.000 C 
ATOM     16  C   UNL     1      -4.164   2.705   1.770  0.00  0.00    +0.000 C 
ENDBRANCH  13  14
ENDBRANCH   6   7
ENDBRANCH   5   6
ENDBRANCH   3   5
ENDBRANCH   1   2
BRANCH   1  18
ATOM     17  C   UNL     1       0.220  -2.678   1.617  0.00  0.00    +0.000 C 
ATOM     18  C   UNL     1       0.658  -2.134   0.488  0.00  0.00    +0.000 C 
BRANCH  18  19
ATOM     19  C   UNL     1       1.971  -1.491   0.386  0.00  0.00    +0.000 A 
ATOM     20  C   UNL     1       2.273  -0.645  -0.674  0.00  0.00    +0.000 A 
ATOM     21  C   UNL     1       3.511  -0.060  -0.781  0.00  0.00    +0.000 A 
ATOM     22  C   UNL     1       4.528  -0.255   0.121  0.00  0.00    +0.000 A 
ATOM     23  C   UNL     1       4.231  -1.095   1.180  0.00  0.00    +0.000 A 
ATOM     24  C   UNL     1       2.983  -1.686   1.292  0.00  0.00    +0.000 A 
BRANCH  22  25
ATOM     25  C   UNL     1       5.829   0.400  -0.059  0.00  0.00    +0.000 A 
ATOM     26  C   UNL     1       6.590   0.746   1.037  0.00  0.00    +0.000 A 
ATOM     27  C   UNL     1       7.836   1.375   0.881  0.00  0.00    +0.000 A 
ATOM     28  C   UNL     1       8.311   1.652  -0.369  0.00  0.00    +0.000 A 
ATOM     29  C   UNL     1       7.583   1.322  -1.482  0.00  0.00    +0.000 A 
ATOM     30  C   UNL     1       6.329   0.691  -1.300  0.00  0.00    +0.000 A 
ENDBRANCH  22  25
ENDBRANCH  18  19
ENDBRANCH   1  18
TORSDOF 8
