REMARK  Name = 
REMARK  7 active torsions:
REMARK  status: ('A' for Active; 'I' for Inactive)
REMARK    1  A    between atoms: C_2  and  O_3
REMARK    2  A    between atoms: O_3  and  C_4
REMARK    3  A    between atoms: C_9  and  N_10
REMARK    4  A    between atoms: N_10  and  C_11
REMARK    5  A    between atoms: C_12  and  S_13
REMARK    6  A    between atoms: S_13  and  C_14
REMARK    7  A    between atoms: N_22  and  C_23
REMARK                            x       y       z     vdW  Elec       q    Type
REMARK                         _______ _______ _______ _____ _____    ______ ____
ROOT
ATOM      1  C   UNL     1       0.772  -0.361   0.564  0.00  0.00    +0.000 C 
ATOM      2  C   UNL     1       0.122   0.768   0.352  0.00  0.00    +0.000 C 
ATOM      3  C   UNL     1      -1.301   0.479   0.217  0.00  0.00    +0.000 C 
ATOM      4  O   UNL     1      -2.197   1.344   0.008  0.00  0.00    +0.000 OA
ATOM      5  N   UNL     1      -1.453  -0.929   0.367  0.00  0.00    +0.000 N 
ATOM      6  C   UNL     1      -0.159  -1.476   0.587  0.00  0.00    +0.000 C 
ATOM      7  O   UNL     1       0.122  -2.712   0.767  0.00  0.00    +0.000 OA
ENDROOT
BRANCH   5   8
ATOM      8  C   UNL     1      -2.665  -1.665   0.311  0.00  0.00    +0.000 A 
ATOM      9  C   UNL     1      -3.792  -1.352   1.038  0.00  0.00    +0.000 A 
ATOM     10  C   UNL     1      -4.960  -2.086   0.965  0.00  0.00    +0.000 A 
ATOM     11  C   UNL     1      -6.166  -1.711   1.775  0.00  0.00    +0.000 C 
ATOM     12  C   UNL     1      -4.989  -3.192   0.112  0.00  0.00    +0.000 A 
ATOM     13  C   UNL     1      -3.879  -3.531  -0.629  0.00  0.00    +0.000 A 
ATOM     14  C   UNL     1      -3.885  -4.700  -1.540  0.00  0.00    +0.000 C 
ATOM     15  C   UNL     1      -2.725  -2.777  -0.534  0.00  0.00    +0.000 A 
ENDBRANCH   5   8
BRANCH   1  16
ATOM     16  N   UNL     1       2.175  -0.493   0.748  0.00  0.00    +0.000 NA
BRANCH  16  22
ATOM     17  C   UNL     1       4.426  -0.713  -0.003  0.00  0.00    +0.000 A 
ATOM     18  C   UNL     1       5.352  -0.811  -1.030  0.00  0.00    +0.000 A 
ATOM     19  C   UNL     1       4.936  -0.786  -2.344  0.00  0.00    +0.000 A 
ATOM     20  C   UNL     1       3.600  -0.663  -2.667  0.00  0.00    +0.000 A 
ATOM     21  C   UNL     1       2.669  -0.565  -1.655  0.00  0.00    +0.000 A 
ATOM     22  C   UNL     1       3.089  -0.590  -0.341  0.00  0.00    +0.000 A 
BRANCH  17  23
ATOM     23  O   UNL     1       4.822  -0.736   1.347  0.00  0.00    +0.000 OA
BRANCH  23  25
ATOM     24  C   UNL     1       6.889   0.325   0.980  0.00  0.00    +0.000 C 
ATOM     25  C   UNL     1       6.207  -0.864   1.620  0.00  0.00    +0.000 C 
ENDBRANCH  23  25
ENDBRANCH  17  23
ENDBRANCH  16  22
ENDBRANCH   1  16
BRANCH   2  26
ATOM     26  S   UNL     1       0.936   2.375   0.258  0.00  0.00    +0.000 S 
BRANCH  26  27
ATOM     27  C   UNL     1      -0.323   3.597  -0.034  0.00  0.00    +0.000 A 
ATOM     28  C   UNL     1      -0.716   3.974  -1.300  0.00  0.00    +0.000 A 
ATOM     29  C   UNL     1      -1.715   4.944  -1.470  0.00  0.00    +0.000 A 
ATOM     30  C   UNL     1      -2.316   5.534  -0.382  0.00  0.00    +0.000 A 
ATOM     31  C   UNL     1      -1.929   5.164   0.884  0.00  0.00    +0.000 A 
ATOM     32  C   UNL     1      -0.947   4.209   1.027  0.00  0.00    +0.000 A 
ENDBRANCH  26  27
ENDBRANCH   2  26
TORSDOF 7
