REMARK  Name = 
REMARK  8 active torsions:
REMARK  status: ('A' for Active; 'I' for Inactive)
REMARK    1  A    between atoms: O_2  and  C_3
REMARK    2  A    between atoms: C_6  and  C_7
REMARK    3  A    between atoms: N_8  and  N_9
REMARK    4  A    between atoms: C_10  and  C_12
REMARK    5  A    between atoms: C_15  and  C_16
REMARK    6  A    between atoms: C_16  and  O_17
REMARK    7  A    between atoms: O_17  and  C_18
REMARK    8  A    between atoms: C_21  and  C_22
REMARK                            x       y       z     vdW  Elec       q    Type
REMARK                         _______ _______ _______ _____ _____    ______ ____
ROOT
ATOM      1  C   UNL     1      -0.397  -2.411  -0.841  0.00  0.00    +0.000 A 
ATOM      2  C   UNL     1       0.399  -3.194  -1.649  0.00  0.00    +0.000 A 
ATOM      3  C   UNL     1       1.572  -3.490  -0.938  0.00  0.00    +0.000 A 
ATOM      4  C   UNL     1       1.447  -2.871   0.287  0.00  0.00    +0.000 A 
ATOM      5  O   UNL     1       0.274  -2.258   0.275  0.00  0.00    +0.000 OA
ENDROOT
BRANCH   1   7
ATOM      6  N   UNL     1      -2.294  -0.979  -0.201  0.00  0.00    +0.000 NA
ATOM      7  C   UNL     1      -1.732  -1.827  -1.112  0.00  0.00    +0.000 C 
ATOM      8  O   UNL     1      -2.330  -2.114  -2.163  0.00  0.00    +0.000 OA
BRANCH   6  10
ATOM      9  C   UNL     1      -4.284  -0.036   0.778  0.00  0.00    +0.000 C 
ATOM     10  N   UNL     1      -3.354  -0.266   0.039  0.00  0.00    +0.000 NA
BRANCH   9  14
ATOM     11  C   UNL     1      -7.389   2.925   0.369  0.00  0.00    +0.000 A 
ATOM     12  C   UNL     1      -6.476   2.692  -0.653  0.00  0.00    +0.000 A 
ATOM     13  C   UNL     1      -5.470   1.733  -0.544  0.00  0.00    +0.000 A 
ATOM     14  C   UNL     1      -5.349   0.971   0.618  0.00  0.00    +0.000 A 
ATOM     15  C   UNL     1      -6.257   1.212   1.617  0.00  0.00    +0.000 A 
ATOM     16  C   UNL     1      -7.264   2.162   1.515  0.00  0.00    +0.000 A 
BRANCH  11  18
ATOM     17  C   UNL     1      -9.304   4.118   1.316  0.00  0.00    +0.000 C 
ATOM     18  O   UNL     1      -8.390   3.903   0.226  0.00  0.00    +0.000 OA
ENDBRANCH  11  18
ENDBRANCH   9  14
ENDBRANCH   6  10
ENDBRANCH   1   7
BRANCH   4  19
ATOM     19  C   UNL     1       2.400  -2.857   1.426  0.00  0.00    +0.000 C 
BRANCH  19  20
ATOM     20  O   UNL     1       3.651  -2.519   1.208  0.00  0.00    +0.000 OA
BRANCH  20  21
ATOM     21  C   UNL     1       4.379  -1.482   0.725  0.00  0.00    +0.000 A 
ATOM     22  C   UNL     1       3.911  -0.276   0.226  0.00  0.00    +0.000 A 
ATOM     23  C   UNL     1       4.743   0.741  -0.232  0.00  0.00    +0.000 A 
ATOM     24  C   UNL     1       6.126   0.567  -0.205  0.00  0.00    +0.000 A 
ATOM     25  C   UNL     1       6.620  -0.639   0.291  0.00  0.00    +0.000 A 
ATOM     26  C   UNL     1       5.778  -1.615   0.732  0.00  0.00    +0.000 A 
BRANCH  24  27
ATOM     27  C   UNL     1       6.981   1.671  -0.664  0.00  0.00    +0.000 C 
ATOM     28  C   UNL     1       8.431   1.293  -0.315  0.00  0.00    +0.000 C 
ATOM     29  C   UNL     1       6.889   1.901  -2.153  0.00  0.00    +0.000 C 
ATOM     30  C   UNL     1       6.689   2.944   0.124  0.00  0.00    +0.000 C 
ENDBRANCH  24  27
ENDBRANCH  20  21
ENDBRANCH  19  20
ENDBRANCH   4  19
TORSDOF 8
