REMARK  Name = 
REMARK  7 active torsions:
REMARK  status: ('A' for Active; 'I' for Inactive)
REMARK    1  A    between atoms: C_2  and  O_3
REMARK    2  A    between atoms: O_3  and  C_4
REMARK    3  A    between atoms: C_7  and  N_8
REMARK    4  A    between atoms: C_11  and  N_12
REMARK    5  A    between atoms: N_12  and  C_13
REMARK    6  A    between atoms: C_21  and  S_22
REMARK    7  A    between atoms: S_22  and  C_23
REMARK                            x       y       z     vdW  Elec       q    Type
REMARK                         _______ _______ _______ _____ _____    ______ ____
ROOT
ATOM      1  N   UNL     1       1.500   0.157  -0.515  0.00  0.00    +0.000 N 
ATOM      2  C   UNL     1       0.736   1.282  -0.914  0.00  0.00    +0.000 C 
ATOM      3  O   UNL     1       1.206   2.421  -1.233  0.00  0.00    +0.000 OA
ATOM      4  C   UNL     1      -0.679   0.944  -0.907  0.00  0.00    +0.000 C 
ATOM      5  C   UNL     1      -0.821  -0.340  -0.521  0.00  0.00    +0.000 C 
ATOM      6  C   UNL     1       0.508  -0.857  -0.270  0.00  0.00    +0.000 C 
ATOM      7  O   UNL     1       0.809  -1.998   0.103  0.00  0.00    +0.000 OA
ENDROOT
BRANCH   1  11
ATOM      8  C   UNL     1       5.694  -0.319  -0.070  0.00  0.00    +0.000 A 
ATOM      9  C   UNL     1       5.160   0.901  -0.427  0.00  0.00    +0.000 A 
ATOM     10  C   UNL     1       3.783   1.055  -0.573  0.00  0.00    +0.000 A 
ATOM     11  C   UNL     1       2.908   0.021  -0.374  0.00  0.00    +0.000 A 
ATOM     12  C   UNL     1       3.448  -1.210  -0.014  0.00  0.00    +0.000 A 
ATOM     13  C   UNL     1       4.818  -1.364   0.132  0.00  0.00    +0.000 A 
BRANCH   8  14
ATOM     14  O   UNL     1       7.043  -0.545   0.093  0.00  0.00    +0.000 OA
BRANCH  14  16
ATOM     15  C   UNL     1       7.841   0.933  -1.551  0.00  0.00    +0.000 C 
ATOM     16  C   UNL     1       8.007   0.484  -0.099  0.00  0.00    +0.000 C 
ENDBRANCH  14  16
ENDBRANCH   8  14
ENDBRANCH   1  11
BRANCH   4  17
ATOM     17  N   UNL     1      -1.712   1.855  -1.261  0.00  0.00    +0.000 NA
BRANCH  17  18
ATOM     18  C   UNL     1      -2.752   2.256  -0.393  0.00  0.00    +0.000 A 
ATOM     19  C   UNL     1      -2.863   1.797   0.924  0.00  0.00    +0.000 A 
ATOM     20  C   UNL     1      -3.906   2.223   1.734  0.00  0.00    +0.000 A 
ATOM     21  C   UNL     1      -3.939   1.677   3.123  0.00  0.00    +0.000 C 
ATOM     22  C   UNL     1      -4.852   3.106   1.256  0.00  0.00    +0.000 A 
ATOM     23  C   UNL     1      -4.753   3.569  -0.049  0.00  0.00    +0.000 A 
ATOM     24  C   UNL     1      -5.777   4.523  -0.563  0.00  0.00    +0.000 C 
ATOM     25  C   UNL     1      -3.710   3.135  -0.836  0.00  0.00    +0.000 A 
ENDBRANCH  17  18
ENDBRANCH   4  17
BRANCH   5  26
ATOM     26  S   UNL     1      -2.417  -1.057  -0.410  0.00  0.00    +0.000 S 
BRANCH  26  27
ATOM     27  C   UNL     1      -2.469  -2.744   0.080  0.00  0.00    +0.000 A 
ATOM     28  C   UNL     1      -3.670  -3.409   0.207  0.00  0.00    +0.000 A 
ATOM     29  C   UNL     1      -3.754  -4.727   0.586  0.00  0.00    +0.000 A 
ATOM     30  C   UNL     1      -2.615  -5.457   0.860  0.00  0.00    +0.000 A 
ATOM     31  C   UNL     1      -1.424  -4.821   0.740  0.00  0.00    +0.000 A 
ATOM     32  C   UNL     1      -1.347  -3.492   0.359  0.00  0.00    +0.000 A 
ENDBRANCH  26  27
ENDBRANCH   5  26
TORSDOF 7
