REMARK  Name = 
REMARK  7 active torsions:
REMARK  status: ('A' for Active; 'I' for Inactive)
REMARK    1  A    between atoms: C_5  and  N_6
REMARK    2  A    between atoms: C_7  and  C_8
REMARK    3  A    between atoms: C_8  and  C_9
REMARK    4  A    between atoms: C_17  and  S_18
REMARK    5  A    between atoms: S_18  and  C_19
REMARK    6  A    between atoms: C_19  and  C_20
REMARK    7  A    between atoms: N_22  and  C_23
REMARK                            x       y       z     vdW  Elec       q    Type
REMARK                         _______ _______ _______ _____ _____    ______ ____
ROOT
ATOM      1  N   UNL     1       1.593   0.639  -0.873  0.00  0.00    +0.000 N 
ATOM      2  C   UNL     1       2.523   1.347  -1.539  0.00  0.00    +0.000 A 
ATOM      3  N   UNL     1       1.891   2.449  -1.998  0.00  0.00    +0.000 NA
ATOM      4  N   UNL     1       0.633   2.447  -1.648  0.00  0.00    +0.000 NA
ATOM      5  C   UNL     1       0.428   1.308  -0.935  0.00  0.00    +0.000 A 
ENDROOT
BRANCH   1  10
ATOM      6  C   UNL     1       2.432  -4.402   1.633  0.00  0.00    +0.000 C 
ATOM      7  C   UNL     1       2.165  -3.082   1.031  0.00  0.00    +0.000 A 
ATOM      8  C   UNL     1       2.921  -2.705  -0.077  0.00  0.00    +0.000 A 
ATOM      9  C   UNL     1       2.689  -1.475  -0.658  0.00  0.00    +0.000 A 
ATOM     10  C   UNL     1       1.751  -0.598  -0.205  0.00  0.00    +0.000 A 
ATOM     11  C   UNL     1       0.996  -0.959   0.890  0.00  0.00    +0.000 A 
ATOM     12  C   UNL     1       1.219  -2.200   1.490  0.00  0.00    +0.000 A 
ENDBRANCH   1  10
BRANCH   2  13
ATOM     13  C   UNL     1       3.950   0.975  -1.720  0.00  0.00    +0.000 C 
BRANCH  13  14
ATOM     14  C   UNL     1       4.775   1.513  -0.625  0.00  0.00    +0.000 A 
ATOM     15  C   UNL     1       4.973   0.758   0.506  0.00  0.00    +0.000 A 
ATOM     16  C   UNL     1       5.718   1.171   1.565  0.00  0.00    +0.000 A 
ATOM     17  C   UNL     1       6.320   2.406   1.538  0.00  0.00    +0.000 A 
ATOM     18  C   UNL     1       6.144   3.191   0.421  0.00  0.00    +0.000 A 
ATOM     19  C   UNL     1       5.372   2.752  -0.667  0.00  0.00    +0.000 A 
ENDBRANCH  13  14
ENDBRANCH   2  13
BRANCH   5  20
ATOM     20  S   UNL     1      -1.164   0.886  -0.250  0.00  0.00    +0.000 S 
BRANCH  20  21
ATOM     21  C   UNL     1      -2.122  -0.097  -1.434  0.00  0.00    +0.000 C 
BRANCH  21  22
ATOM     22  C   UNL     1      -3.440  -0.468  -0.914  0.00  0.00    +0.000 C 
ATOM     23  O   UNL     1      -4.195  -1.152  -1.648  0.00  0.00    +0.000 OA
ATOM     24  N   UNL     1      -3.927  -0.108   0.367  0.00  0.00    +0.000 NA
BRANCH  24  25
ATOM     25  C   UNL     1      -5.222  -0.505   0.808  0.00  0.00    +0.000 A 
ATOM     26  C   UNL     1      -6.076  -1.261   0.015  0.00  0.00    +0.000 A 
ATOM     27  C   UNL     1      -7.336  -1.640   0.458  0.00  0.00    +0.000 A 
ATOM     28  C   UNL     1      -7.743  -1.256   1.712  0.00  0.00    +0.000 A 
ATOM     29  C   UNL     1      -6.904  -0.495   2.529  0.00  0.00    +0.000 A 
ATOM     30  C   UNL     1      -5.647  -0.128   2.064  0.00  0.00    +0.000 A 
ATOM     31  C   UNL     1      -4.717   0.685   2.905  0.00  0.00    +0.000 C 
ENDBRANCH  24  25
ENDBRANCH  21  22
ENDBRANCH  20  21
ENDBRANCH   5  20
TORSDOF 7
