REMARK  Name = 
REMARK  10 active torsions:
REMARK  status: ('A' for Active; 'I' for Inactive)
REMARK    1  A    between atoms: C_2  and  O_3
REMARK    2  A    between atoms: O_3  and  C_4
REMARK    3  A    between atoms: C_4  and  C_6
REMARK    4  A    between atoms: C_6  and  C_7
REMARK    5  A    between atoms: N_15  and  C_16
REMARK    6  A    between atoms: C_16  and  C_17
REMARK    7  A    between atoms: C_17  and  C_18
REMARK    8  A    between atoms: C_18  and  C_19
REMARK    9  A    between atoms: C_18  and  C_21
REMARK   10  A    between atoms: C_18  and  C_27
REMARK                            x       y       z     vdW  Elec       q    Type
REMARK                         _______ _______ _______ _____ _____    ______ ____
ROOT
ATOM      1  C   UNL     1       2.900   0.033  -0.125  0.00  0.00    +0.000 C 
ATOM      2  C   UNL     1       2.276   0.535  -1.421  0.00  0.00    +0.000 C 
ATOM      3  C   UNL     1       0.812   0.295  -1.506  0.00  0.00    +0.000 C 
ATOM      4  N   UNL     1       0.364  -0.963  -1.005  0.00  0.00    +0.000 NA
ATOM      5  C   UNL     1       0.865  -1.304   0.305  0.00  0.00    +0.000 C 
ATOM      6  C   UNL     1       1.791  -0.243   0.855  0.00  0.00    +0.000 C 
ENDROOT
BRANCH   1   7
ATOM      7  C   UNL     1       3.773   1.077   0.421  0.00  0.00    +0.000 A 
ATOM      8  C   UNL     1       3.384   1.807   1.550  0.00  0.00    +0.000 A 
ATOM      9  C   UNL     1       4.188   2.790   2.079  0.00  0.00    +0.000 A 
ATOM     10  C   UNL     1       5.411   3.095   1.517  0.00  0.00    +0.000 A 
ATOM     11  C   UNL     1       5.788   2.364   0.395  0.00  0.00    +0.000 A 
ATOM     12  C   UNL     1       4.997   1.381  -0.143  0.00  0.00    +0.000 A 
ENDBRANCH   1   7
BRANCH   1  13
ATOM     13  C   UNL     1       3.618  -1.219  -0.465  0.00  0.00    +0.000 C 
ATOM     14  O   UNL     1       3.278  -2.282   0.116  0.00  0.00    +0.000 OA
BRANCH  13  15
ATOM     15  O   UNL     1       4.638  -1.296  -1.380  0.00  0.00    +0.000 OA
BRANCH  15  17
ATOM     16  C   UNL     1       6.340  -2.244  -2.701  0.00  0.00    +0.000 C 
ATOM     17  C   UNL     1       5.282  -2.542  -1.656  0.00  0.00    +0.000 C 
ENDBRANCH  15  17
ENDBRANCH  13  15
ENDBRANCH   1  13
BRANCH   4  18
ATOM     18  C   UNL     1      -1.095  -0.873  -0.869  0.00  0.00    +0.000 C 
BRANCH  18  19
ATOM     19  C   UNL     1      -1.345   0.117   0.250  0.00  0.00    +0.000 C 
BRANCH  19  20
ATOM     20  C   UNL     1      -2.822   0.317   0.513  0.00  0.00    +0.000 C 
BRANCH  20  21
ATOM     21  C   UNL     1      -3.412   0.879  -0.746  0.00  0.00    +0.000 A 
ATOM     22  C   UNL     1      -4.721   1.313  -0.784  0.00  0.00    +0.000 A 
ATOM     23  C   UNL     1      -5.287   1.833  -1.929  0.00  0.00    +0.000 A 
ATOM     24  C   UNL     1      -4.544   1.932  -3.080  0.00  0.00    +0.000 A 
ATOM     25  C   UNL     1      -3.245   1.507  -3.061  0.00  0.00    +0.000 A 
ATOM     26  C   UNL     1      -2.685   0.988  -1.913  0.00  0.00    +0.000 A 
ENDBRANCH  20  21
BRANCH  20  27
ATOM     27  C   UNL     1      -3.486  -0.940   0.917  0.00  0.00    +0.000 A 
ATOM     28  C   UNL     1      -3.397  -2.072   0.129  0.00  0.00    +0.000 A 
ATOM     29  C   UNL     1      -4.003  -3.233   0.492  0.00  0.00    +0.000 A 
ATOM     30  C   UNL     1      -4.717  -3.272   1.670  0.00  0.00    +0.000 A 
ATOM     31  C   UNL     1      -4.822  -2.153   2.477  0.00  0.00    +0.000 A 
ATOM     32  C   UNL     1      -4.200  -0.979   2.095  0.00  0.00    +0.000 A 
ENDBRANCH  20  27
BRANCH  20  33
ATOM     33  C   UNL     1      -2.928   1.285   1.602  0.00  0.00    +0.000 C 
ATOM     34  N   UNL     1      -2.996   2.068   2.471  0.00  0.00    +0.000 NA
ENDBRANCH  20  33
ENDBRANCH  19  20
ENDBRANCH  18  19
ENDBRANCH   4  18
TORSDOF 10
