REMARK  Name = 
REMARK  9 active torsions:
REMARK  status: ('A' for Active; 'I' for Inactive)
REMARK    1  A    between atoms: C_9  and  C_10
REMARK    2  A    between atoms: C_13  and  O_14
REMARK    3  A    between atoms: O_14  and  C_15
REMARK    4  A    between atoms: C_15  and  C_16
REMARK    5  A    between atoms: C_16  and  C_17
REMARK    6  A    between atoms: C_17  and  C_18
REMARK    7  A    between atoms: C_18  and  C_19
REMARK    8  A    between atoms: C_23  and  C_24
REMARK    9  A    between atoms: N_26  and  C_27
REMARK                            x       y       z     vdW  Elec       q    Type
REMARK                         _______ _______ _______ _____ _____    ______ ____
ROOT
ATOM      1  C   UNL     1      -3.683  -2.489   0.429  0.00  0.00    +0.000 C 
ATOM      2  C   UNL     1      -2.604  -2.404   1.145  0.00  0.00    +0.000 C 
ATOM      3  N   UNL     1      -2.419  -2.872   2.483  0.00  0.00    +0.000 NA
ATOM      4  C   UNL     1      -1.625  -1.970   3.278  0.00  0.00    +0.000 A 
ATOM      5  N   UNL     1      -1.216  -2.114   4.551  0.00  0.00    +0.000 NA
ATOM      6  C   UNL     1      -0.463  -1.051   4.865  0.00  0.00    +0.000 A 
ATOM      7  N   UNL     1      -0.405  -0.248   3.788  0.00  0.00    +0.000 NA
ATOM      8  N   UNL     1      -1.136  -0.851   2.833  0.00  0.00    +0.000 N 
ATOM      9  C   UNL     1      -1.434  -0.292   1.431  0.00  0.00    +0.000 C 
ATOM     10  C   UNL     1      -1.284  -1.732   0.559  0.00  0.00    +0.000 C 
ENDROOT
BRANCH   9  11
ATOM     11  C   UNL     1       0.025   0.260   1.099  0.00  0.00    +0.000 A 
ATOM     12  C   UNL     1       0.994  -0.479   0.591  0.00  0.00    +0.000 A 
ATOM     13  C   UNL     1       2.233   0.032   0.322  0.00  0.00    +0.000 A 
ATOM     14  C   UNL     1       2.481   1.354   0.588  0.00  0.00    +0.000 A 
ATOM     15  C   UNL     1       1.467   2.119   1.118  0.00  0.00    +0.000 A 
ATOM     16  C   UNL     1       0.228   1.595   1.383  0.00  0.00    +0.000 A 
BRANCH  14  17
ATOM     17  O   UNL     1       3.745   1.934   0.329  0.00  0.00    +0.000 OA
BRANCH  17  18
ATOM     18  C   UNL     1       4.743   1.092  -0.216  0.00  0.00    +0.000 C 
BRANCH  18  19
ATOM     19  C   UNL     1       4.241   0.552  -1.556  0.00  0.00    +0.000 C 
BRANCH  19  20
ATOM     20  C   UNL     1       5.274  -0.352  -2.175  0.00  0.00    +0.000 C 
BRANCH  20  21
ATOM     21  C   UNL     1       6.583   0.367  -2.430  0.00  0.00    +0.000 C 
BRANCH  21  22
ATOM     22  C   UNL     1       7.103   0.871  -1.104  0.00  0.00    +0.000 C 
ATOM     23  C   UNL     1       8.404   1.602  -1.251  0.00  0.00    +0.000 C 
ENDBRANCH  21  22
ENDBRANCH  20  21
ENDBRANCH  19  20
ENDBRANCH  18  19
ENDBRANCH  17  18
ENDBRANCH  14  17
ENDBRANCH   9  11
BRANCH  10  24
ATOM     24  C   UNL     1      -1.899  -1.172  -0.787  0.00  0.00    +0.000 C 
ATOM     25  O   UNL     1      -1.381  -1.582  -1.858  0.00  0.00    +0.000 OA
ATOM     26  N   UNL     1      -2.942  -0.287  -0.805  0.00  0.00    +0.000 NA
BRANCH  26  27
ATOM     27  C   UNL     1      -3.538   0.251  -1.976  0.00  0.00    +0.000 A 
ATOM     28  C   UNL     1      -4.583   1.134  -1.833  0.00  0.00    +0.000 A 
ATOM     29  C   UNL     1      -5.208   1.695  -2.950  0.00  0.00    +0.000 A 
ATOM     30  C   UNL     1      -4.802   1.386  -4.220  0.00  0.00    +0.000 A 
ATOM     31  C   UNL     1      -3.760   0.505  -4.373  0.00  0.00    +0.000 A 
ATOM     32  C   UNL     1      -3.141  -0.051  -3.257  0.00  0.00    +0.000 A 
ENDBRANCH  26  27
ENDBRANCH  10  24
TORSDOF 9
