REMARK  Name = 
REMARK  6 active torsions:
REMARK  status: ('A' for Active; 'I' for Inactive)
REMARK    1  A    between atoms: C_2  and  C_4
REMARK    2  A    between atoms: C_4  and  C_5
REMARK    3  A    between atoms: C_5  and  N_6
REMARK    4  A    between atoms: C_7  and  C_9
REMARK    5  A    between atoms: N_15  and  C_16
REMARK    6  A    between atoms: C_16  and  C_17
REMARK                            x       y       z     vdW  Elec       q    Type
REMARK                         _______ _______ _______ _____ _____    ______ ____
ROOT
ATOM      1  C   UNL     1       1.928  -0.510   0.600  0.00  0.00    +0.000 A 
ATOM      2  C   UNL     1       2.169   0.484   1.536  0.00  0.00    +0.000 A 
ATOM      3  C   UNL     1       1.240   1.427   1.915  0.00  0.00    +0.000 A 
ATOM      4  C   UNL     1      -0.015   1.375   1.319  0.00  0.00    +0.000 A 
ATOM      5  C   UNL     1      -0.318   0.411   0.381  0.00  0.00    +0.000 A 
ATOM      6  C   UNL     1       0.671  -0.523   0.036  0.00  0.00    +0.000 A 
ATOM      7  N   UNL     1      -1.525   0.190  -0.338  0.00  0.00    +0.000 N 
ATOM      8  C   UNL     1      -2.554   1.091  -0.708  0.00  0.00    +0.000 C 
ATOM      9  O   UNL     1      -3.539   0.639  -1.356  0.00  0.00    +0.000 OA
ATOM     10  C   UNL     1      -2.677   2.539  -0.454  0.00  0.00    +0.000 A 
ATOM     11  C   UNL     1      -3.441   3.204  -1.379  0.00  0.00    +0.000 A 
ATOM     12  C   UNL     1      -3.632   4.561  -1.256  0.00  0.00    +0.000 A 
ATOM     13  C   UNL     1      -3.086   5.279  -0.239  0.00  0.00    +0.000 A 
ATOM     14  C   UNL     1      -2.310   4.585   0.697  0.00  0.00    +0.000 A 
ATOM     15  C   UNL     1      -2.112   3.224   0.582  0.00  0.00    +0.000 A 
ATOM     16  S   UNL     1      -1.088   2.665   1.930  0.00  0.00    +0.000 S 
ENDROOT
BRANCH   1  18
ATOM     17  N   UNL     1       4.242  -1.479   0.809  0.00  0.00    +0.000 NA
ATOM     18  C   UNL     1       2.955  -1.484   0.238  0.00  0.00    +0.000 C 
ATOM     19  O   UNL     1       2.651  -2.350  -0.618  0.00  0.00    +0.000 OA
BRANCH  17  20
ATOM     20  C   UNL     1       5.277  -2.435   0.466  0.00  0.00    +0.000 C 
BRANCH  20  21
ATOM     21  C   UNL     1       5.637  -2.387  -1.000  0.00  0.00    +0.000 C 
BRANCH  21  23
ATOM     22  C   UNL     1       6.515  -0.922  -2.829  0.00  0.00    +0.000 C 
ATOM     23  C   UNL     1       6.149  -0.989  -1.364  0.00  0.00    +0.000 C 
ATOM     24  C   UNL     1       7.395  -0.646  -0.569  0.00  0.00    +0.000 C 
ENDBRANCH  21  23
ENDBRANCH  20  21
ENDBRANCH  17  20
ENDBRANCH   1  18
BRANCH   7  25
ATOM     25  C   UNL     1      -1.741  -1.172  -0.764  0.00  0.00    +0.000 C 
BRANCH  25  26
ATOM     26  C   UNL     1      -2.467  -1.992   0.204  0.00  0.00    +0.000 A 
ATOM     27  C   UNL     1      -3.840  -2.122   0.240  0.00  0.00    +0.000 A 
ATOM     28  C   UNL     1      -4.506  -2.896   1.156  0.00  0.00    +0.000 A 
ATOM     29  C   UNL     1      -3.791  -3.586   2.095  0.00  0.00    +0.000 A 
ATOM     30  C   UNL     1      -2.430  -3.486   2.097  0.00  0.00    +0.000 A 
ATOM     31  C   UNL     1      -1.757  -2.696   1.161  0.00  0.00    +0.000 A 
ENDBRANCH  25  26
ENDBRANCH   7  25
TORSDOF 6
