REMARK  Name = 
REMARK  6 active torsions:
REMARK  status: ('A' for Active; 'I' for Inactive)
REMARK    1  A    between atoms: C_2  and  C_3
REMARK    2  A    between atoms: C_3  and  C_5
REMARK    3  A    between atoms: C_8  and  N_9
REMARK    4  A    between atoms: C_10  and  C_12
REMARK    5  A    between atoms: C_16  and  C_17
REMARK    6  A    between atoms: C_21  and  O_22
REMARK                            x       y       z     vdW  Elec       q    Type
REMARK                         _______ _______ _______ _____ _____    ______ ____
ROOT
ATOM      1  C   UNL     1       0.555  -0.581   0.370  0.00  0.00    +0.000 A 
ATOM      2  S   UNL     1      -0.554   0.670   0.038  0.00  0.00    +0.000 S 
ATOM      3  C   UNL     1      -1.999  -0.240   0.066  0.00  0.00    +0.000 A 
ATOM      4  N   UNL     1      -3.315   0.098  -0.120  0.00  0.00    +0.000 NA
ATOM      5  C   UNL     1      -4.304  -0.806  -0.051  0.00  0.00    +0.000 A 
ATOM      6  C   UNL     1      -3.894  -2.090   0.221  0.00  0.00    +0.000 A 
ATOM      7  C   UNL     1      -2.606  -2.463   0.411  0.00  0.00    +0.000 A 
ATOM      8  C   UNL     1      -1.566  -1.503   0.336  0.00  0.00    +0.000 A 
ATOM      9  C   UNL     1      -0.241  -1.685   0.495  0.00  0.00    +0.000 A 
ATOM     10  N   UNL     1       0.370  -2.982   0.788  0.00  0.00    +0.000 NA
ENDROOT
BRANCH   5  11
ATOM     11  C   UNL     1      -5.692  -0.437  -0.249  0.00  0.00    +0.000 A 
ATOM     12  C   UNL     1      -6.664  -1.408  -0.166  0.00  0.00    +0.000 A 
ATOM     13  C   UNL     1      -8.010  -1.118  -0.346  0.00  0.00    +0.000 A 
ATOM     14  C   UNL     1      -8.392   0.170  -0.616  0.00  0.00    +0.000 A 
ATOM     15  C   UNL     1      -7.446   1.170  -0.707  0.00  0.00    +0.000 A 
ATOM     16  C   UNL     1      -6.113   0.842  -0.521  0.00  0.00    +0.000 A 
BRANCH  15  17
ATOM     17  O   UNL     1      -7.848   2.472  -0.982  0.00  0.00    +0.000 OA
ATOM     18  C   UNL     1      -6.839   3.461  -1.065  0.00  0.00    +0.000 C 
ENDBRANCH  15  17
ENDBRANCH   5  11
BRANCH   1  20
ATOM     19  N   UNL     1       2.723   0.708   0.343  0.00  0.00    +0.000 NA
ATOM     20  C   UNL     1       2.030  -0.499   0.496  0.00  0.00    +0.000 C 
ATOM     21  O   UNL     1       2.691  -1.535   0.746  0.00  0.00    +0.000 OA
BRANCH  19  25
ATOM     22  C   UNL     1       6.918   0.988   0.690  0.00  0.00    +0.000 A 
ATOM     23  C   UNL     1       6.183   2.088   0.421  0.00  0.00    +0.000 A 
ATOM     24  C   UNL     1       4.788   1.970   0.310  0.00  0.00    +0.000 A 
ATOM     25  C   UNL     1       4.144   0.765   0.467  0.00  0.00    +0.000 A 
ATOM     26  C   UNL     1       4.910  -0.344   0.741  0.00  0.00    +0.000 A 
ATOM     27  C   UNL     1       6.306  -0.227   0.852  0.00  0.00    +0.000 A 
BRANCH  22  28
ATOM     28  C   UNL     1       8.486   1.083   0.825  0.00  0.00    +0.000 C 
ATOM     29  C   UNL     1       8.702   2.095  -0.460  0.00  0.00    +0.000 C 
BRANCH  28  31
ATOM     30  C   UNL     1       7.854  -0.387  -1.144  0.00  0.00    +0.000 C 
ATOM     31  C   UNL     1       8.823  -0.275  -0.037  0.00  0.00    +0.000 C 
ENDBRANCH  28  31
ENDBRANCH  22  28
ENDBRANCH  19  25
ENDBRANCH   1  20
TORSDOF 6
