REMARK  Name = 
REMARK  7 active torsions:
REMARK  status: ('A' for Active; 'I' for Inactive)
REMARK    1  A    between atoms: C_2  and  C_3
REMARK    2  A    between atoms: C_3  and  C_4
REMARK    3  A    between atoms: C_4  and  C_5
REMARK    4  A    between atoms: C_5  and  C_6
REMARK    5  A    between atoms: C_9  and  C_10
REMARK    6  A    between atoms: C_19  and  N_20
REMARK    7  A    between atoms: N_20  and  C_21
REMARK                            x       y       z     vdW  Elec       q    Type
REMARK                         _______ _______ _______ _____ _____    ______ ____
ROOT
ATOM      1  C   UNL     1       1.183   1.749   0.295  0.00  0.00    +0.000 C 
ATOM      2  O   UNL     1       1.677   2.926   0.572  0.00  0.00    +0.000 OA
ATOM      3  N   UNL     1      -0.055   1.718  -0.243  0.00  0.00    +0.000 N 
ATOM      4  C   UNL     1      -0.786   0.674  -0.853  0.00  0.00    +0.000 A 
ATOM      5  C   UNL     1      -0.031  -0.326  -1.415  0.00  0.00    +0.000 A 
ATOM      6  C   UNL     1      -0.572  -1.413  -2.054  0.00  0.00    +0.000 A 
ATOM      7  C   UNL     1      -1.966  -1.472  -2.117  0.00  0.00    +0.000 A 
ATOM      8  C   UNL     1      -2.708  -0.468  -1.553  0.00  0.00    +0.000 A 
ATOM      9  C   UNL     1      -2.127   0.577  -0.938  0.00  0.00    +0.000 A 
ATOM     10  C   UNL     1      -3.060   1.732  -0.335  0.00  0.00    +0.000 C 
ATOM     11  C   UNL     1      -2.031   2.189   0.878  0.00  0.00    +0.000 C 
ATOM     12  C   UNL     1      -1.001   2.981  -0.211  0.00  0.00    +0.000 C 
ATOM     13  C   UNL     1      -0.265   3.806   1.019  0.00  0.00    +0.000 C 
ENDROOT
BRANCH   1  17
ATOM     14  C   UNL     1       3.904  -1.357   1.328  0.00  0.00    +0.000 A 
ATOM     15  C   UNL     1       2.665  -1.659   0.841  0.00  0.00    +0.000 A 
ATOM     16  C   UNL     1       1.783  -0.670   0.505  0.00  0.00    +0.000 A 
ATOM     17  C   UNL     1       2.087   0.667   0.635  0.00  0.00    +0.000 A 
ATOM     18  C   UNL     1       3.366   0.971   1.138  0.00  0.00    +0.000 A 
ATOM     19  C   UNL     1       4.233  -0.029   1.468  0.00  0.00    +0.000 A 
BRANCH  14  20
ATOM     20  C   UNL     1       4.911  -2.355   1.713  0.00  0.00    +0.000 C 
BRANCH  20  21
ATOM     21  C   UNL     1       5.822  -2.746   0.575  0.00  0.00    +0.000 C 
BRANCH  21  22
ATOM     22  C   UNL     1       6.566  -1.540   0.061  0.00  0.00    +0.000 C 
BRANCH  22  24
ATOM     23  C   UNL     1       8.244  -0.808  -1.639  0.00  0.00    +0.000 C 
ATOM     24  C   UNL     1       7.471  -1.995  -1.087  0.00  0.00    +0.000 C 
ENDBRANCH  22  24
ENDBRANCH  21  22
ENDBRANCH  20  21
ENDBRANCH  14  20
ENDBRANCH   1  17
BRANCH  10  25
ATOM     25  N   UNL     1      -3.905   0.770   0.581  0.00  0.00    +0.000 NA
BRANCH  25  26
ATOM     26  C   UNL     1      -4.910   0.053  -0.113  0.00  0.00    +0.000 A 
ATOM     27  C   UNL     1      -5.317   0.420  -1.375  0.00  0.00    +0.000 A 
ATOM     28  C   UNL     1      -6.289  -0.258  -2.072  0.00  0.00    +0.000 A 
ATOM     29  C   UNL     1      -6.879  -1.347  -1.488  0.00  0.00    +0.000 A 
ATOM     30  C   UNL     1      -6.487  -1.730  -0.228  0.00  0.00    +0.000 A 
ATOM     31  C   UNL     1      -5.521  -1.061   0.475  0.00  0.00    +0.000 A 
ENDBRANCH  25  26
ENDBRANCH  10  25
TORSDOF 7
