REMARK  Name = 
REMARK  6 active torsions:
REMARK  status: ('A' for Active; 'I' for Inactive)
REMARK    1  A    between atoms: C_2  and  C_24
REMARK    2  A    between atoms: N_3  and  C_4
REMARK    3  A    between atoms: C_8  and  C_9
REMARK    4  A    between atoms: N_11  and  C_12
REMARK    5  A    between atoms: C_12  and  C_13
REMARK    6  A    between atoms: C_13  and  C_14
REMARK                            x       y       z     vdW  Elec       q    Type
REMARK                         _______ _______ _______ _____ _____    ______ ____
ROOT
ATOM      1  C   UNL     1      -2.056   0.846   0.203  0.00  0.00    +0.000 A 
ATOM      2  S   UNL     1      -2.859   2.431   0.243  0.00  0.00    +0.000 S 
ATOM      3  C   UNL     1      -1.516   3.425   0.113  0.00  0.00    +0.000 A 
ATOM      4  C   UNL     1      -0.482   2.549   0.042  0.00  0.00    +0.000 A 
ATOM      5  C   UNL     1      -0.744   1.230   0.086  0.00  0.00    +0.000 A 
ATOM      6  C   UNL     1       0.905   3.227  -0.079  0.00  0.00    +0.000 C 
ATOM      7  C   UNL     1       0.874   4.387   0.933  0.00  0.00    +0.000 C 
ATOM      8  C   UNL     1      -0.018   5.414   0.288  0.00  0.00    +0.000 C 
ATOM      9  C   UNL     1      -1.368   4.907   0.070  0.00  0.00    +0.000 C 
ENDROOT
BRANCH   1  12
ATOM     10  O   UNL     1      -1.963  -2.335   0.250  0.00  0.00    +0.000 OA
ATOM     11  C   UNL     1      -2.967  -1.592   0.322  0.00  0.00    +0.000 C 
ATOM     12  N   UNL     1      -2.791  -0.299   0.284  0.00  0.00    +0.000 NA
BRANCH  11  13
ATOM     13  C   UNL     1      -4.289  -2.289   0.444  0.00  0.00    +0.000 A 
ATOM     14  C   UNL     1      -5.453  -1.590   0.530  0.00  0.00    +0.000 A 
ATOM     15  C   UNL     1      -6.682  -2.232   0.644  0.00  0.00    +0.000 A 
ATOM     16  C   UNL     1      -6.710  -3.615   0.670  0.00  0.00    +0.000 A 
ATOM     17  C   UNL     1      -5.519  -4.344   0.583  0.00  0.00    +0.000 A 
ATOM     18  C   UNL     1      -4.327  -3.658   0.471  0.00  0.00    +0.000 A 
ENDBRANCH  11  13
ENDBRANCH   1  12
BRANCH   5  19
ATOM     19  C   UNL     1       0.364   0.224   0.010  0.00  0.00    +0.000 C 
ATOM     20  O   UNL     1       0.246  -0.984   0.041  0.00  0.00    +0.000 OA
ATOM     21  N   UNL     1       1.740   0.668  -0.113  0.00  0.00    +0.000 NA
BRANCH  21  22
ATOM     22  C   UNL     1       2.836  -0.277  -0.189  0.00  0.00    +0.000 C 
BRANCH  22  23
ATOM     23  C   UNL     1       4.093   0.528  -0.308  0.00  0.00    +0.000 C 
BRANCH  23  24
ATOM     24  C   UNL     1       5.307  -0.317  -0.396  0.00  0.00    +0.000 A 
ATOM     25  C   UNL     1       5.821  -0.760  -1.579  0.00  0.00    +0.000 A 
ATOM     26  C   UNL     1       6.969  -1.552  -1.568  0.00  0.00    +0.000 A 
ATOM     27  C   UNL     1       7.586  -1.888  -0.372  0.00  0.00    +0.000 A 
ATOM     28  C   UNL     1       7.070  -1.443   0.814  0.00  0.00    +0.000 A 
ATOM     29  C   UNL     1       5.933  -0.661   0.772  0.00  0.00    +0.000 A 
ENDBRANCH  23  24
ENDBRANCH  22  23
ENDBRANCH  21  22
ENDBRANCH   5  19
TORSDOF 6
