REMARK  Name = 
REMARK  8 active torsions:
REMARK  status: ('A' for Active; 'I' for Inactive)
REMARK    1  A    between atoms: C_2  and  C_4
REMARK    2  A    between atoms: C_4  and  C_5
REMARK    3  A    between atoms: C_5  and  C_6
REMARK    4  A    between atoms: C_6  and  C_7
REMARK    5  A    between atoms: C_7  and  N_9
REMARK    6  A    between atoms: C_10  and  C_12
REMARK    7  A    between atoms: N_15  and  C_16
REMARK    8  A    between atoms: C_16  and  C_17
REMARK                            x       y       z     vdW  Elec       q    Type
REMARK                         _______ _______ _______ _____ _____    ______ ____
ROOT
ATOM      1  C   UNL     1       0.304   0.649  -0.024  0.00  0.00    +0.000 A 
ATOM      2  C   UNL     1      -0.489   1.547   0.658  0.00  0.00    +0.000 A 
ATOM      3  N   UNL     1      -0.158   2.930   0.849  0.00  0.00    +0.000 NA
ATOM      4  N   UNL     1      -1.563   0.876   1.070  0.00  0.00    +0.000 N 
ATOM      5  C   UNL     1      -1.539  -0.411   0.708  0.00  0.00    +0.000 A 
ATOM      6  N   UNL     1      -2.373  -1.470   0.883  0.00  0.00    +0.000 NA
ATOM      7  C   UNL     1      -2.091  -2.690   0.397  0.00  0.00    +0.000 A 
ATOM      8  C   UNL     1      -2.950  -3.770   0.581  0.00  0.00    +0.000 A 
ATOM      9  C   UNL     1      -2.630  -5.000   0.072  0.00  0.00    +0.000 A 
ATOM     10  C   UNL     1      -1.453  -5.163  -0.623  0.00  0.00    +0.000 A 
ATOM     11  C   UNL     1      -0.614  -4.104  -0.802  0.00  0.00    +0.000 A 
ATOM     12  C   UNL     1      -0.906  -2.850  -0.301  0.00  0.00    +0.000 A 
ATOM     13  N   UNL     1      -0.078  -1.792  -0.474  0.00  0.00    +0.000 NA
ATOM     14  C   UNL     1      -0.363  -0.577   0.013  0.00  0.00    +0.000 A 
ENDROOT
BRANCH   1  16
ATOM     15  N   UNL     1       2.258  -0.147  -1.321  0.00  0.00    +0.000 NA
ATOM     16  C   UNL     1       1.577   0.907  -0.656  0.00  0.00    +0.000 C 
ATOM     17  O   UNL     1       2.056   2.059  -0.607  0.00  0.00    +0.000 OA
BRANCH  15  18
ATOM     18  C   UNL     1       3.655   0.326  -1.962  0.00  0.00    +0.000 C 
ATOM     19  C   UNL     1       3.269  -0.384  -3.434  0.00  0.00    +0.000 C 
BRANCH  18  20
ATOM     20  C   UNL     1       4.433  -1.043  -1.435  0.00  0.00    +0.000 C 
BRANCH  20  21
ATOM     21  C   UNL     1       4.867  -0.550  -0.046  0.00  0.00    +0.000 C 
BRANCH  21  22
ATOM     22  C   UNL     1       5.740   0.636  -0.266  0.00  0.00    +0.000 C 
BRANCH  22  24
ATOM     23  C   UNL     1       5.282   1.810   1.920  0.00  0.00    +0.000 C 
ATOM     24  C   UNL     1       6.281   1.282   0.955  0.00  0.00    +0.000 C 
ATOM     25  C   UNL     1       7.468   0.617   1.564  0.00  0.00    +0.000 C 
ENDBRANCH  22  24
ENDBRANCH  21  22
ENDBRANCH  20  21
ENDBRANCH  18  20
ENDBRANCH  15  18
ENDBRANCH   1  16
BRANCH   4  26
ATOM     26  C   UNL     1      -2.647   1.476   1.832  0.00  0.00    +0.000 C 
BRANCH  26  27
ATOM     27  C   UNL     1      -3.643   1.986   0.850  0.00  0.00    +0.000 A 
ATOM     28  C   UNL     1      -3.532   3.272   0.375  0.00  0.00    +0.000 A 
ATOM     29  C   UNL     1      -4.447   3.777  -0.543  0.00  0.00    +0.000 A 
ATOM     30  C   UNL     1      -5.471   2.952  -0.966  0.00  0.00    +0.000 A 
ATOM     31  C   UNL     1      -5.576   1.677  -0.490  0.00  0.00    +0.000 A 
ATOM     32  C   UNL     1      -4.668   1.173   0.422  0.00  0.00    +0.000 A 
ENDBRANCH  26  27
ENDBRANCH   4  26
TORSDOF 8
