REMARK  Name = 
REMARK  6 active torsions:
REMARK  status: ('A' for Active; 'I' for Inactive)
REMARK    1  A    between atoms: C_8  and  C_9
REMARK    2  A    between atoms: C_15  and  C_16
REMARK    3  A    between atoms: N_22  and  C_23
REMARK    4  A    between atoms: C_23  and  C_24
REMARK    5  A    between atoms: C_24  and  C_26
REMARK    6  A    between atoms: C_26  and  N_27
REMARK                            x       y       z     vdW  Elec       q    Type
REMARK                         _______ _______ _______ _____ _____    ______ ____
ROOT
ATOM      1  C   UNL     1      -2.389   5.583  -0.075  0.00  0.00    +0.000 C 
ATOM      2  C   UNL     1      -1.709   4.327   0.320  0.00  0.00    +0.000 A 
ATOM      3  C   UNL     1      -0.602   4.303   1.123  0.00  0.00    +0.000 A 
ATOM      4  C   UNL     1       0.030   3.132   1.493  0.00  0.00    +0.000 A 
ATOM      5  C   UNL     1      -0.479   1.932   1.029  0.00  0.00    +0.000 A 
ATOM      6  C   UNL     1      -1.595   1.907   0.215  0.00  0.00    +0.000 A 
ATOM      7  C   UNL     1      -2.197   3.110  -0.130  0.00  0.00    +0.000 A 
ATOM      8  C   UNL     1      -1.857   0.598  -0.076  0.00  0.00    +0.000 A 
ATOM      9  C   UNL     1      -0.882  -0.161   0.577  0.00  0.00    +0.000 A 
ATOM     10  N   UNL     1      -0.051   0.657   1.242  0.00  0.00    +0.000 N 
ENDROOT
BRANCH   8  11
ATOM     11  C   UNL     1      -2.915   0.064  -0.901  0.00  0.00    +0.000 A 
ATOM     12  C   UNL     1      -3.942  -0.744  -0.407  0.00  0.00    +0.000 A 
ATOM     13  C   UNL     1      -4.895  -1.219  -1.250  0.00  0.00    +0.000 A 
ATOM     14  C   UNL     1      -4.889  -0.932  -2.593  0.00  0.00    +0.000 A 
ATOM     15  C   UNL     1      -3.882  -0.137  -3.092  0.00  0.00    +0.000 A 
ATOM     16  C   UNL     1      -2.910   0.350  -2.243  0.00  0.00    +0.000 A 
ENDBRANCH   8  11
BRANCH   9  17
ATOM     17  C   UNL     1      -0.858  -1.595   0.545  0.00  0.00    +0.000 A 
ATOM     18  C   UNL     1      -0.808  -2.286  -0.623  0.00  0.00    +0.000 A 
ATOM     19  C   UNL     1      -0.796  -3.646  -0.640  0.00  0.00    +0.000 A 
ATOM     20  C   UNL     1      -0.834  -4.359   0.548  0.00  0.00    +0.000 A 
ATOM     21  C   UNL     1      -0.885  -3.680   1.739  0.00  0.00    +0.000 A 
ATOM     22  C   UNL     1      -0.898  -2.301   1.753  0.00  0.00    +0.000 A 
ENDBRANCH   9  17
BRANCH  10  23
ATOM     23  C   UNL     1       1.118   0.321   2.029  0.00  0.00    +0.000 C 
BRANCH  23  24
ATOM     24  C   UNL     1       2.342   0.510   0.920  0.00  0.00    +0.000 C 
ATOM     25  O   UNL     1       1.780  -0.529  -0.039  0.00  0.00    +0.000 OA
BRANCH  24  26
ATOM     26  C   UNL     1       3.333  -0.584   1.683  0.00  0.00    +0.000 C 
BRANCH  26  27
ATOM     27  N   UNL     1       4.241  -1.055   0.660  0.00  0.00    +0.000 NA
ATOM     28  C   UNL     1       5.155  -0.004   0.242  0.00  0.00    +0.000 C 
ATOM     29  C   UNL     1       4.522   0.913  -0.771  0.00  0.00    +0.000 C 
ATOM     30  C   UNL     1       4.268   0.223  -2.090  0.00  0.00    +0.000 C 
ATOM     31  C   UNL     1       5.146  -0.953  -2.320  0.00  0.00    +0.000 C 
ATOM     32  C   UNL     1       4.702  -2.102  -1.440  0.00  0.00    +0.000 C 
ATOM     33  C   UNL     1       3.635  -1.644  -0.481  0.00  0.00    +0.000 C 
ENDBRANCH  26  27
ENDBRANCH  24  26
ENDBRANCH  23  24
ENDBRANCH  10  23
TORSDOF 6
