REMARK  Name = 
REMARK  9 active torsions:
REMARK  status: ('A' for Active; 'I' for Inactive)
REMARK    1  A    between atoms: C_2  and  C_4
REMARK    2  A    between atoms: C_7  and  C_8
REMARK    3  A    between atoms: C_8  and  C_9
REMARK    4  A    between atoms: C_9  and  N_10
REMARK    5  A    between atoms: C_14  and  C_15
REMARK    6  A    between atoms: C_15  and  O_16
REMARK    7  A    between atoms: O_16  and  C_17
REMARK    8  A    between atoms: C_17  and  C_18
REMARK    9  A    between atoms: C_17  and  C_24
REMARK                            x       y       z     vdW  Elec       q    Type
REMARK                         _______ _______ _______ _____ _____    ______ ____
ROOT
ATOM      1  N   UNL     1       1.126  -0.537  -0.866  0.00  0.00    +0.000 NA
ATOM      2  C   UNL     1       2.038   0.579  -0.721  0.00  0.00    +0.000 C 
ATOM      3  C   UNL     1       1.553   1.302   0.550  0.00  0.00    +0.000 C 
ATOM      4  C   UNL     1       0.055   1.298   0.428  0.00  0.00    +0.000 C 
ATOM      5  C   UNL     1      -0.466  -0.156   0.994  0.00  0.00    +0.000 C 
ATOM      6  C   UNL     1       0.825  -1.014   0.440  0.00  0.00    +0.000 C 
ENDROOT
BRANCH   1   7
ATOM      7  C   UNL     1       1.503  -1.533  -1.789  0.00  0.00    +0.000 C 
BRANCH   7   8
ATOM      8  C   UNL     1       2.691  -2.343  -1.382  0.00  0.00    +0.000 C 
BRANCH   8  12
ATOM      9  C   UNL     1       6.239  -0.014  -0.819  0.00  0.00    +0.000 A 
ATOM     10  C   UNL     1       5.389  -0.288   0.223  0.00  0.00    +0.000 A 
ATOM     11  C   UNL     1       4.244  -1.037   0.052  0.00  0.00    +0.000 A 
ATOM     12  C   UNL     1       3.909  -1.543  -1.187  0.00  0.00    +0.000 A 
ATOM     13  C   UNL     1       4.762  -1.275  -2.261  0.00  0.00    +0.000 A 
ATOM     14  C   UNL     1       5.892  -0.528  -2.062  0.00  0.00    +0.000 A 
BRANCH   9  16
ATOM     15  C   UNL     1       8.363   1.075  -1.745  0.00  0.00    +0.000 C 
ATOM     16  C   UNL     1       7.428   0.770  -0.613  0.00  0.00    +0.000 C 
ATOM     17  O   UNL     1       7.695   1.208   0.522  0.00  0.00    +0.000 OA
ENDBRANCH   9  16
ENDBRANCH   8  12
ENDBRANCH   7   8
ENDBRANCH   1   7
BRANCH   5  18
ATOM     18  C   UNL     1      -1.371  -0.477  -0.343  0.00  0.00    +0.000 C 
BRANCH  18  19
ATOM     19  O   UNL     1      -2.296   0.529  -0.441  0.00  0.00    +0.000 OA
BRANCH  19  20
ATOM     20  C   UNL     1      -3.075   0.532   0.714  0.00  0.00    +0.000 C 
BRANCH  20  21
ATOM     21  C   UNL     1      -4.103   1.607   0.663  0.00  0.00    +0.000 A 
ATOM     22  C   UNL     1      -4.379   2.459   1.710  0.00  0.00    +0.000 A 
ATOM     23  C   UNL     1      -5.346   3.446   1.615  0.00  0.00    +0.000 A 
ATOM     24  C   UNL     1      -6.063   3.602   0.462  0.00  0.00    +0.000 A 
ATOM     25  C   UNL     1      -5.809   2.764  -0.603  0.00  0.00    +0.000 A 
ATOM     26  C   UNL     1      -4.856   1.802  -0.491  0.00  0.00    +0.000 A 
ENDBRANCH  20  21
BRANCH  20  27
ATOM     27  C   UNL     1      -3.711  -0.789   0.821  0.00  0.00    +0.000 A 
ATOM     28  C   UNL     1      -3.758  -1.465   1.998  0.00  0.00    +0.000 A 
ATOM     29  C   UNL     1      -4.377  -2.725   2.054  0.00  0.00    +0.000 A 
ATOM     30  C   UNL     1      -4.940  -3.289   0.929  0.00  0.00    +0.000 A 
ATOM     31  C   UNL     1      -4.889  -2.604  -0.251  0.00  0.00    +0.000 A 
ATOM     32  C   UNL     1      -4.272  -1.352  -0.299  0.00  0.00    +0.000 A 
ENDBRANCH  20  27
ENDBRANCH  19  20
ENDBRANCH  18  19
ENDBRANCH   5  18
TORSDOF 9
