REMARK  Name = 
REMARK  7 active torsions:
REMARK  status: ('A' for Active; 'I' for Inactive)
REMARK    1  A    between atoms: O_2  and  C_3
REMARK    2  A    between atoms: C_5  and  O_6
REMARK    3  A    between atoms: C_8  and  C_9
REMARK    4  A    between atoms: C_19  and  O_20
REMARK    5  A    between atoms: O_20  and  C_21
REMARK    6  A    between atoms: C_21  and  C_22
REMARK    7  A    between atoms: C_31  and  O_32
REMARK                            x       y       z     vdW  Elec       q    Type
REMARK                         _______ _______ _______ _____ _____    ______ ____
ROOT
ATOM      1  C   UNL     1      -2.570  -1.754   0.081  0.00  0.00    +0.000 C 
ATOM      2  N   UNL     1      -2.570  -2.076  -1.476  0.00  0.00    +0.000 NA
ATOM      3  C   UNL     1      -1.763  -3.301  -1.557  0.00  0.00    +0.000 C 
ATOM      4  C   UNL     1      -0.334  -2.829  -1.665  0.00  0.00    +0.000 C 
ATOM      5  C   UNL     1      -0.149  -1.730  -0.703  0.00  0.00    +0.000 A 
ATOM      6  C   UNL     1      -1.095  -1.188   0.117  0.00  0.00    +0.000 A 
ATOM      7  N   UNL     1      -0.508  -0.240   0.805  0.00  0.00    +0.000 NA
ATOM      8  C   UNL     1       0.794  -0.123   0.480  0.00  0.00    +0.000 A 
ATOM      9  C   UNL     1       1.831   0.688   0.891  0.00  0.00    +0.000 A 
ATOM     10  C   UNL     1       3.093   0.593   0.382  0.00  0.00    +0.000 A 
ATOM     11  C   UNL     1       3.363  -0.340  -0.578  0.00  0.00    +0.000 A 
ATOM     12  C   UNL     1       2.334  -1.181  -1.019  0.00  0.00    +0.000 A 
ATOM     13  C   UNL     1       1.073  -1.057  -0.483  0.00  0.00    +0.000 A 
ENDROOT
BRANCH   1  17
ATOM     14  C   UNL     1      -4.766   1.979  -0.102  0.00  0.00    +0.000 A 
ATOM     15  C   UNL     1      -3.989   1.595  -1.169  0.00  0.00    +0.000 A 
ATOM     16  C   UNL     1      -3.274   0.387  -1.122  0.00  0.00    +0.000 A 
ATOM     17  C   UNL     1      -3.358  -0.394  -0.013  0.00  0.00    +0.000 A 
ATOM     18  C   UNL     1      -4.137   0.019   1.024  0.00  0.00    +0.000 A 
ATOM     19  C   UNL     1      -4.853   1.204   1.006  0.00  0.00    +0.000 A 
BRANCH  14  21
ATOM     20  C   UNL     1      -5.402   3.998  -1.283  0.00  0.00    +0.000 C 
ATOM     21  O   UNL     1      -5.492   3.187  -0.127  0.00  0.00    +0.000 OA
ENDBRANCH  14  21
BRANCH  16  22
ATOM     22  O   UNL     1      -2.518   0.074  -2.235  0.00  0.00    +0.000 OA
ATOM     23  C   UNL     1      -2.431   0.872  -3.368  0.00  0.00    +0.000 C 
ENDBRANCH  16  22
BRANCH  19  24
ATOM     24  O   UNL     1      -5.639   1.597   2.079  0.00  0.00    +0.000 OA
ATOM     25  C   UNL     1      -5.700   0.745   3.231  0.00  0.00    +0.000 C 
ENDBRANCH  19  24
ENDBRANCH   1  17
BRANCH  11  26
ATOM     26  O   UNL     1       4.600  -0.493  -1.132  0.00  0.00    +0.000 OA
BRANCH  26  27
ATOM     27  C   UNL     1       5.678   0.295  -0.751  0.00  0.00    +0.000 C 
BRANCH  27  28
ATOM     28  C   UNL     1       5.979   0.128   0.690  0.00  0.00    +0.000 A 
ATOM     29  C   UNL     1       6.671  -1.019   1.051  0.00  0.00    +0.000 A 
ATOM     30  C   UNL     1       6.981  -1.220   2.357  0.00  0.00    +0.000 A 
ATOM     31  C   UNL     1       6.611  -0.293   3.318  0.00  0.00    +0.000 A 
ATOM     32  C   UNL     1       5.924   0.841   2.948  0.00  0.00    +0.000 A 
ATOM     33  C   UNL     1       5.617   1.037   1.635  0.00  0.00    +0.000 A 
ENDBRANCH  27  28
ENDBRANCH  26  27
ENDBRANCH  11  26
TORSDOF 7
