REMARK  Name = 
REMARK  7 active torsions:
REMARK  status: ('A' for Active; 'I' for Inactive)
REMARK    1  A    between atoms: O_2  and  C_3
REMARK    2  A    between atoms: C_9  and  C_10
REMARK    3  A    between atoms: C_10  and  C_11
REMARK    4  A    between atoms: C_11  and  N_12
REMARK    5  A    between atoms: C_20  and  C_21
REMARK    6  A    between atoms: C_26  and  C_27
REMARK    7  A    between atoms: C_27  and  N_28
REMARK                            x       y       z     vdW  Elec       q    Type
REMARK                         _______ _______ _______ _____ _____    ______ ____
ROOT
ATOM      1  N   UNL     1       0.359   1.195  -1.006  0.00  0.00    +0.000 NA
ATOM      2  C   UNL     1       0.039  -0.157  -0.797  0.00  0.00    +0.000 A 
ATOM      3  N   UNL     1       0.758  -1.175  -1.240  0.00  0.00    +0.000 NA
ATOM      4  C   UNL     1       0.521  -2.465  -1.016  0.00  0.00    +0.000 A 
ATOM      5  N   UNL     1      -0.558  -2.798  -0.243  0.00  0.00    +0.000 NA
ATOM      6  C   UNL     1      -1.335  -1.802   0.237  0.00  0.00    +0.000 A 
ATOM      7  C   UNL     1      -2.479  -2.049   0.971  0.00  0.00    +0.000 A 
ATOM      8  C   UNL     1      -3.369  -1.109   1.453  0.00  0.00    +0.000 A 
ATOM      9  C   UNL     1      -3.100   0.165   1.183  0.00  0.00    +0.000 A 
ATOM     10  C   UNL     1      -1.933   0.463   0.431  0.00  0.00    +0.000 A 
ATOM     11  C   UNL     1      -1.100  -0.485  -0.008  0.00  0.00    +0.000 A 
ENDROOT
BRANCH   9  12
ATOM     12  C   UNL     1      -3.914   1.399   1.337  0.00  0.00    +0.000 A 
ATOM     13  C   UNL     1      -3.480   2.590   1.774  0.00  0.00    +0.000 A 
ATOM     14  C   UNL     1      -4.317   3.729   1.589  0.00  0.00    +0.000 A 
ATOM     15  C   UNL     1      -5.500   3.537   0.989  0.00  0.00    +0.000 A 
ATOM     16  C   UNL     1      -6.009   2.355   0.527  0.00  0.00    +0.000 A 
ATOM     17  C   UNL     1      -5.174   1.234   0.721  0.00  0.00    +0.000 A 
BRANCH  17  18
ATOM     18  C   UNL     1      -5.759  -0.021   0.519  0.00  0.00    +0.000 C 
BRANCH  18  19
ATOM     19  N   UNL     1      -5.543  -1.123  -0.146  0.00  0.00    +0.000 NA
ATOM     20  C   UNL     1      -5.146  -1.460  -1.411  0.00  0.00    +0.000 C 
ATOM     21  C   UNL     1      -6.229  -2.333   0.442  0.00  0.00    +0.000 C 
ENDBRANCH  18  19
ENDBRANCH  17  18
ENDBRANCH   9  12
BRANCH   1  22
ATOM     22  C   UNL     1       1.424   1.804  -1.738  0.00  0.00    +0.000 C 
BRANCH  22  23
ATOM     23  C   UNL     1       2.761   1.147  -1.685  0.00  0.00    +0.000 C 
BRANCH  23  30
ATOM     24  C   UNL     1       6.512  -1.038  -0.677  0.00  0.00    +0.000 A 
ATOM     25  C   UNL     1       6.778  -1.017   0.651  0.00  0.00    +0.000 A 
ATOM     26  C   UNL     1       6.032  -0.411   1.582  0.00  0.00    +0.000 A 
ATOM     27  C   UNL     1       4.838   0.293   1.232  0.00  0.00    +0.000 A 
ATOM     28  N   UNL     1       3.873   0.959   1.848  0.00  0.00    +0.000 NA
ATOM     29  C   UNL     1       2.949   1.404   0.891  0.00  0.00    +0.000 A 
ATOM     30  C   UNL     1       3.339   0.985  -0.340  0.00  0.00    +0.000 A 
ATOM     31  C   UNL     1       4.556   0.290  -0.112  0.00  0.00    +0.000 A 
ATOM     32  C   UNL     1       5.335  -0.343  -1.053  0.00  0.00    +0.000 A 
BRANCH  24  34
ATOM     33  C   UNL     1       7.692  -2.130  -2.649  0.00  0.00    +0.000 C 
ATOM     34  O   UNL     1       7.180  -1.631  -1.600  0.00  0.00    +0.000 OA
ENDBRANCH  24  34
ENDBRANCH  23  30
ENDBRANCH  22  23
ENDBRANCH   1  22
TORSDOF 7
