REMARK  Name = 
REMARK  8 active torsions:
REMARK  status: ('A' for Active; 'I' for Inactive)
REMARK    1  A    between atoms: O_2  and  C_3
REMARK    2  A    between atoms: C_6  and  C_7
REMARK    3  A    between atoms: C_7  and  C_8
REMARK    4  A    between atoms: C_8  and  N_9
REMARK    5  A    between atoms: C_10  and  C_12
REMARK    6  A    between atoms: C_12  and  N_19
REMARK    7  A    between atoms: C_13  and  C_14
REMARK    8  A    between atoms: C_20  and  C_22
REMARK                            x       y       z     vdW  Elec       q    Type
REMARK                         _______ _______ _______ _____ _____    ______ ____
ROOT
ATOM      1  C   UNL     1      -0.545  -0.399   0.868  0.00  0.00    +0.000 C 
ATOM      2  C   UNL     1      -0.400   0.682   1.537  0.00  0.00    +0.000 C 
ENDROOT
BRANCH   2   3
ATOM      3  C   UNL     1       0.698   1.031   2.414  0.00  0.00    +0.000 A 
ATOM      4  C   UNL     1       1.342   0.335   3.392  0.00  0.00    +0.000 A 
ATOM      5  C   UNL     1       2.335   0.907   4.049  0.00  0.00    +0.000 A 
ATOM      6  C   UNL     1       2.673   2.186   3.713  0.00  0.00    +0.000 A 
ATOM      7  S   UNL     1       1.570   2.542   2.471  0.00  0.00    +0.000 S 
ENDBRANCH   2   3
BRANCH   1   9
ATOM      8  N   UNL     1       1.623  -1.539   1.600  0.00  0.00    +0.000 NA
ATOM      9  C   UNL     1       0.417  -1.470   0.896  0.00  0.00    +0.000 C 
ATOM     10  O   UNL     1       0.145  -2.502   0.188  0.00  0.00    +0.000 OA
BRANCH   8  11
ATOM     11  C   UNL     1       2.523  -2.686   1.552  0.00  0.00    +0.000 C 
BRANCH  11  12
ATOM     12  C   UNL     1       3.007  -2.982   0.169  0.00  0.00    +0.000 C 
BRANCH  12  16
ATOM     13  C   UNL     1       4.975   0.209  -1.789  0.00  0.00    +0.000 A 
ATOM     14  C   UNL     1       5.737  -0.672  -1.058  0.00  0.00    +0.000 A 
ATOM     15  C   UNL     1       5.116  -1.734  -0.400  0.00  0.00    +0.000 A 
ATOM     16  C   UNL     1       3.745  -1.898  -0.483  0.00  0.00    +0.000 A 
ATOM     17  C   UNL     1       2.987  -0.994  -1.229  0.00  0.00    +0.000 A 
ATOM     18  C   UNL     1       3.631   0.032  -1.859  0.00  0.00    +0.000 A 
BRANCH  13  20
ATOM     19  C   UNL     1       4.775   2.181  -3.208  0.00  0.00    +0.000 C 
ATOM     20  O   UNL     1       5.556   1.273  -2.455  0.00  0.00    +0.000 OA
ENDBRANCH  13  20
ENDBRANCH  12  16
ENDBRANCH  11  12
ENDBRANCH   8  11
ENDBRANCH   1   9
BRANCH   1  21
ATOM     21  N   UNL     1      -1.748  -0.533   0.044  0.00  0.00    +0.000 NA
ATOM     22  C   UNL     1      -2.719   0.493   0.010  0.00  0.00    +0.000 C 
ATOM     23  O   UNL     1      -2.526   1.519   0.704  0.00  0.00    +0.000 OA
BRANCH  22  24
ATOM     24  C   UNL     1      -3.927   0.406  -0.796  0.00  0.00    +0.000 A 
ATOM     25  C   UNL     1      -4.013  -0.633  -1.722  0.00  0.00    +0.000 A 
ATOM     26  C   UNL     1      -5.142  -0.721  -2.476  0.00  0.00    +0.000 A 
ATOM     27  C   UNL     1      -6.174   0.176  -2.343  0.00  0.00    +0.000 A 
ATOM     28  C   UNL     1      -7.413   0.068  -3.181  0.00  0.00    +0.000 C 
ATOM     29  C   UNL     1      -6.086   1.207  -1.422  0.00  0.00    +0.000 A 
ATOM     30  C   UNL     1      -7.204   2.202  -1.255  0.00  0.00    +0.000 C 
ATOM     31  C   UNL     1      -4.960   1.316  -0.652  0.00  0.00    +0.000 A 
ENDBRANCH  22  24
ENDBRANCH   1  21
TORSDOF 8
