REMARK  Name = 
REMARK  9 active torsions:
REMARK  status: ('A' for Active; 'I' for Inactive)
REMARK    1  A    between atoms: C_2  and  O_3
REMARK    2  A    between atoms: O_3  and  C_4
REMARK    3  A    between atoms: C_7  and  N_8
REMARK    4  A    between atoms: N_8  and  C_9
REMARK    5  A    between atoms: C_10  and  S_11
REMARK    6  A    between atoms: S_11  and  C_12
REMARK    7  A    between atoms: N_20  and  C_21
REMARK    8  A    between atoms: C_24  and  O_25
REMARK    9  A    between atoms: O_25  and  C_26
REMARK                            x       y       z     vdW  Elec       q    Type
REMARK                         _______ _______ _______ _____ _____    ______ ____
ROOT
ATOM      1  C   UNL     1      -0.293   1.095  -0.202  0.00  0.00    +0.000 C 
ATOM      2  C   UNL     1      -1.133   1.810   0.524  0.00  0.00    +0.000 C 
ATOM      3  C   UNL     1      -2.241   0.886   0.890  0.00  0.00    +0.000 C 
ATOM      4  O   UNL     1      -3.230   1.222   1.584  0.00  0.00    +0.000 OA
ATOM      5  N   UNL     1      -2.009  -0.386   0.352  0.00  0.00    +0.000 N 
ATOM      6  C   UNL     1      -0.777  -0.297  -0.353  0.00  0.00    +0.000 C 
ATOM      7  O   UNL     1      -0.268  -1.260  -0.960  0.00  0.00    +0.000 OA
ENDROOT
BRANCH   5   8
ATOM      8  C   UNL     1      -2.798  -1.570   0.459  0.00  0.00    +0.000 A 
ATOM      9  C   UNL     1      -3.152  -2.076   1.681  0.00  0.00    +0.000 A 
ATOM     10  C   UNL     1      -3.918  -3.242   1.825  0.00  0.00    +0.000 A 
ATOM     11  C   UNL     1      -4.342  -3.917   0.700  0.00  0.00    +0.000 A 
ATOM     12  C   UNL     1      -3.987  -3.408  -0.534  0.00  0.00    +0.000 A 
ATOM     13  C   UNL     1      -3.234  -2.263  -0.657  0.00  0.00    +0.000 A 
BRANCH  11  14
ATOM     14  O   UNL     1      -5.112  -5.092   0.816  0.00  0.00    +0.000 OA
BRANCH  14  15
ATOM     15  C   UNL     1      -5.495  -5.705  -0.419  0.00  0.00    +0.000 C 
ATOM     16  C   UNL     1      -4.258  -6.087  -1.219  0.00  0.00    +0.000 C 
ENDBRANCH  14  15
ENDBRANCH  11  14
ENDBRANCH   5   8
BRANCH   1  17
ATOM     17  N   UNL     1       0.908   1.545  -0.802  0.00  0.00    +0.000 NA
BRANCH  17  21
ATOM     18  C   UNL     1       4.471  -0.589  -1.317  0.00  0.00    +0.000 A 
ATOM     19  C   UNL     1       3.421  -1.121  -0.595  0.00  0.00    +0.000 A 
ATOM     20  C   UNL     1       2.239  -0.437  -0.407  0.00  0.00    +0.000 A 
ATOM     21  C   UNL     1       2.095   0.803  -0.948  0.00  0.00    +0.000 A 
ATOM     22  C   UNL     1       3.130   1.349  -1.669  0.00  0.00    +0.000 A 
ATOM     23  C   UNL     1       4.318   0.683  -1.868  0.00  0.00    +0.000 A 
BRANCH  18  24
ATOM     24  O   UNL     1       5.643  -1.293  -1.487  0.00  0.00    +0.000 OA
BRANCH  24  26
ATOM     25  C   UNL     1       5.642  -2.460   0.573  0.00  0.00    +0.000 C 
ATOM     26  C   UNL     1       5.792  -2.571  -0.926  0.00  0.00    +0.000 C 
ENDBRANCH  24  26
ENDBRANCH  18  24
ENDBRANCH  17  21
ENDBRANCH   1  17
BRANCH   2  27
ATOM     27  S   UNL     1      -1.089   3.518   1.004  0.00  0.00    +0.000 S 
BRANCH  27  28
ATOM     28  C   UNL     1       0.435   4.341   0.788  0.00  0.00    +0.000 A 
ATOM     29  C   UNL     1       1.628   3.836   0.368  0.00  0.00    +0.000 A 
ATOM     30  C   UNL     1       2.776   4.568   0.231  0.00  0.00    +0.000 A 
ATOM     31  C   UNL     1       2.790   5.936   0.528  0.00  0.00    +0.000 A 
ATOM     32  C   UNL     1       1.595   6.458   0.952  0.00  0.00    +0.000 A 
ATOM     33  C   UNL     1       0.453   5.722   1.087  0.00  0.00    +0.000 A 
ENDBRANCH  27  28
ENDBRANCH   2  27
TORSDOF 9
