REMARK  Name = 
REMARK  7 active torsions:
REMARK  status: ('A' for Active; 'I' for Inactive)
REMARK    1  A    between atoms: C_2  and  C_4
REMARK    2  A    between atoms: C_4  and  C_5
REMARK    3  A    between atoms: C_8  and  C_9
REMARK    4  A    between atoms: C_9  and  C_11
REMARK    5  A    between atoms: N_13  and  C_14
REMARK    6  A    between atoms: C_17  and  C_18
REMARK    7  A    between atoms: C_18  and  C_20
REMARK                            x       y       z     vdW  Elec       q    Type
REMARK                         _______ _______ _______ _____ _____    ______ ____
ROOT
ATOM      1  C   UNL     1       1.375  -1.041   1.055  0.00  0.00    +0.000 C 
ATOM      2  O   UNL     1       1.103  -0.308   0.103  0.00  0.00    +0.000 OA
ATOM      3  N   UNL     1       0.361  -1.388   1.952  0.00  0.00    +0.000 NA
ENDROOT
BRANCH   3   4
ATOM      4  C   UNL     1      -0.953  -0.946   1.815  0.00  0.00    +0.000 A 
ATOM      5  C   UNL     1      -1.403  -0.377   0.671  0.00  0.00    +0.000 A 
ATOM      6  C   UNL     1      -2.706   0.064   0.579  0.00  0.00    +0.000 A 
ATOM      7  C   UNL     1      -3.615  -0.033   1.604  0.00  0.00    +0.000 A 
ATOM      8  C   UNL     1      -3.119  -0.627   2.780  0.00  0.00    +0.000 A 
ATOM      9  C   UNL     1      -1.822  -1.065   2.865  0.00  0.00    +0.000 A 
BRANCH   7  10
ATOM     10  C   UNL     1      -5.000   0.395   1.534  0.00  0.00    +0.000 C 
ATOM     11  O   UNL     1      -5.565   0.695   2.623  0.00  0.00    +0.000 OA
BRANCH  10  12
ATOM     12  C   UNL     1      -5.720   0.479   0.269  0.00  0.00    +0.000 A 
ATOM     13  C   UNL     1      -5.022   0.423  -0.917  0.00  0.00    +0.000 A 
ATOM     14  C   UNL     1      -5.688   0.492  -2.097  0.00  0.00    +0.000 A 
ATOM     15  C   UNL     1      -7.062   0.620  -2.205  0.00  0.00    +0.000 A 
ATOM     16  C   UNL     1      -7.739   0.673  -0.992  0.00  0.00    +0.000 A 
ATOM     17  C   UNL     1      -7.076   0.604   0.206  0.00  0.00    +0.000 A 
ENDBRANCH  10  12
ENDBRANCH   7  10
ENDBRANCH   3   4
BRANCH   1  18
ATOM     18  C   UNL     1       2.827  -1.579   1.274  0.00  0.00    +0.000 C 
ATOM     19  C   UNL     1       3.165  -0.657   2.574  0.00  0.00    +0.000 C 
BRANCH  18  23
ATOM     20  C   UNL     1       4.904   0.724  -1.824  0.00  0.00    +0.000 A 
ATOM     21  C   UNL     1       4.676  -0.631  -1.943  0.00  0.00    +0.000 A 
ATOM     22  C   UNL     1       4.003  -1.359  -0.947  0.00  0.00    +0.000 A 
ATOM     23  C   UNL     1       3.549  -0.723   0.187  0.00  0.00    +0.000 A 
ATOM     24  C   UNL     1       3.774   0.596   0.293  0.00  0.00    +0.000 A 
ATOM     25  C   UNL     1       4.436   1.322  -0.680  0.00  0.00    +0.000 A 
BRANCH  20  26
ATOM     26  C   UNL     1       5.633   1.491  -2.880  0.00  0.00    +0.000 C 
BRANCH  26  28
ATOM     27  C   UNL     1       7.894   2.269  -3.622  0.00  0.00    +0.000 C 
ATOM     28  C   UNL     1       7.092   1.550  -2.649  0.00  0.00    +0.000 C 
ATOM     29  C   UNL     1       7.699   0.703  -1.627  0.00  0.00    +0.000 C 
ENDBRANCH  26  28
ENDBRANCH  20  26
ENDBRANCH  18  23
ENDBRANCH   1  18
TORSDOF 7
