REMARK  Name = 
REMARK  7 active torsions:
REMARK  status: ('A' for Active; 'I' for Inactive)
REMARK    1  A    between atoms: C_2  and  C_3
REMARK    2  A    between atoms: C_8  and  N_9
REMARK    3  A    between atoms: N_9  and  C_10
REMARK    4  A    between atoms: C_11  and  S_12
REMARK    5  A    between atoms: S_12  and  C_13
REMARK    6  A    between atoms: N_22  and  C_23
REMARK    7  A    between atoms: C_23  and  C_24
REMARK                            x       y       z     vdW  Elec       q    Type
REMARK                         _______ _______ _______ _____ _____    ______ ____
ROOT
ATOM      1  C   UNL     1      -0.659   0.937   0.270  0.00  0.00    +0.000 C 
ATOM      2  C   UNL     1       0.542   0.381   0.179  0.00  0.00    +0.000 C 
ATOM      3  C   UNL     1       0.467  -0.930  -0.445  0.00  0.00    +0.000 C 
ATOM      4  O   UNL     1       1.433  -1.676  -0.658  0.00  0.00    +0.000 OA
ATOM      5  N   UNL     1      -0.898  -1.179  -0.754  0.00  0.00    +0.000 N 
ATOM      6  C   UNL     1      -1.606  -0.034  -0.318  0.00  0.00    +0.000 C 
ATOM      7  O   UNL     1      -2.828   0.193  -0.384  0.00  0.00    +0.000 OA
ENDROOT
BRANCH   1   8
ATOM      8  N   UNL     1      -1.001   2.208   0.816  0.00  0.00    +0.000 NA
BRANCH   8  14
ATOM      9  C   UNL     1      -2.117   4.350   0.551  0.00  0.00    +0.000 A 
ATOM     10  C   UNL     1      -2.880   5.222  -0.232  0.00  0.00    +0.000 A 
ATOM     11  C   UNL     1      -3.300   4.880  -1.501  0.00  0.00    +0.000 A 
ATOM     12  C   UNL     1      -2.955   3.637  -2.008  0.00  0.00    +0.000 A 
ATOM     13  C   UNL     1      -2.213   2.804  -1.230  0.00  0.00    +0.000 A 
ATOM     14  C   UNL     1      -1.776   3.114   0.041  0.00  0.00    +0.000 A 
BRANCH   9  16
ATOM     15  C   UNL     1      -0.188   5.074   1.946  0.00  0.00    +0.000 C 
ATOM     16  C   UNL     1      -1.663   4.705   1.907  0.00  0.00    +0.000 C 
ENDBRANCH   9  16
ENDBRANCH   8  14
ENDBRANCH   1   8
BRANCH   2  17
ATOM     17  S   UNL     1       2.025   1.187   0.765  0.00  0.00    +0.000 S 
BRANCH  17  18
ATOM     18  C   UNL     1       3.465   0.176   0.500  0.00  0.00    +0.000 A 
ATOM     19  C   UNL     1       4.222   0.227  -0.648  0.00  0.00    +0.000 A 
ATOM     20  C   UNL     1       5.329  -0.582  -0.795  0.00  0.00    +0.000 A 
ATOM     21  C   UNL     1       5.711  -1.462   0.196  0.00  0.00    +0.000 A 
ATOM     22  C   UNL     1       6.888  -2.361   0.108  0.00  0.00    +0.000 C 
ATOM     23  C   UNL     1       4.949  -1.507   1.343  0.00  0.00    +0.000 A 
ATOM     24  C   UNL     1       3.849  -0.702   1.487  0.00  0.00    +0.000 A 
ENDBRANCH  17  18
ENDBRANCH   2  17
BRANCH   5  25
ATOM     25  C   UNL     1      -1.454  -2.353  -1.382  0.00  0.00    +0.000 C 
BRANCH  25  26
ATOM     26  C   UNL     1      -1.847  -3.390  -0.426  0.00  0.00    +0.000 A 
ATOM     27  C   UNL     1      -2.381  -4.583  -0.862  0.00  0.00    +0.000 A 
ATOM     28  C   UNL     1      -2.756  -5.572   0.046  0.00  0.00    +0.000 A 
ATOM     29  C   UNL     1      -2.594  -5.362   1.410  0.00  0.00    +0.000 A 
ATOM     30  C   UNL     1      -2.061  -4.176   1.863  0.00  0.00    +0.000 A 
ATOM     31  C   UNL     1      -1.703  -3.224   0.933  0.00  0.00    +0.000 A 
ENDBRANCH  25  26
ENDBRANCH   5  25
TORSDOF 7
