REMARK  Name = 
REMARK  7 active torsions:
REMARK  status: ('A' for Active; 'I' for Inactive)
REMARK    1  A    between atoms: C_2  and  C_3
REMARK    2  A    between atoms: C_3  and  O_4
REMARK    3  A    between atoms: O_4  and  C_5
REMARK    4  A    between atoms: C_8  and  C_9
REMARK    5  A    between atoms: C_11  and  C_12
REMARK    6  A    between atoms: N_14  and  C_15
REMARK    7  A    between atoms: C_18  and  O_19
REMARK                            x       y       z     vdW  Elec       q    Type
REMARK                         _______ _______ _______ _____ _____    ______ ____
ROOT
ATOM      1  C   UNL     1       1.799   0.416  -0.398  0.00  0.00    +0.000 A 
ATOM      2  C   UNL     1       0.573   0.002   0.081  0.00  0.00    +0.000 A 
ATOM      3  C   UNL     1      -0.601   0.497  -0.395  0.00  0.00    +0.000 A 
ATOM      4  C   UNL     1      -0.582   1.458  -1.403  0.00  0.00    +0.000 A 
ATOM      5  C   UNL     1      -1.783   1.966  -1.891  0.00  0.00    +0.000 A 
ATOM      6  C   UNL     1      -1.734   2.921  -2.892  0.00  0.00    +0.000 A 
ATOM      7  C   UNL     1      -0.504   3.331  -3.368  0.00  0.00    +0.000 A 
ATOM      8  C   UNL     1       0.680   2.830  -2.886  0.00  0.00    +0.000 A 
ATOM      9  C   UNL     1       0.645   1.871  -1.880  0.00  0.00    +0.000 A 
ATOM     10  N   UNL     1       1.782   1.345  -1.371  0.00  0.00    +0.000 NA
ENDROOT
BRANCH   1  14
ATOM     11  C   UNL     1       5.465  -1.179   1.139  0.00  0.00    +0.000 A 
ATOM     12  C   UNL     1       5.455  -0.227   0.143  0.00  0.00    +0.000 A 
ATOM     13  C   UNL     1       4.268   0.299  -0.366  0.00  0.00    +0.000 A 
ATOM     14  C   UNL     1       3.057  -0.127   0.125  0.00  0.00    +0.000 A 
ATOM     15  C   UNL     1       3.054  -1.077   1.120  0.00  0.00    +0.000 A 
ATOM     16  C   UNL     1       4.247  -1.603   1.627  0.00  0.00    +0.000 A 
BRANCH  11  17
ATOM     17  O   UNL     1       6.623  -1.725   1.669  0.00  0.00    +0.000 OA
BRANCH  17  18
ATOM     18  C   UNL     1       7.913  -1.387   1.267  0.00  0.00    +0.000 C 
BRANCH  18  20
ATOM     19  C   UNL     1       8.664  -3.697   1.850  0.00  0.00    +0.000 C 
ATOM     20  C   UNL     1       8.903  -2.200   2.083  0.00  0.00    +0.000 C 
ENDBRANCH  18  20
ENDBRANCH  17  18
ENDBRANCH  11  17
ENDBRANCH   1  14
BRANCH   3  21
ATOM     21  C   UNL     1      -1.915   0.081   0.089  0.00  0.00    +0.000 C 
ATOM     22  O   UNL     1      -1.976  -0.784   0.998  0.00  0.00    +0.000 OA
ATOM     23  N   UNL     1      -3.130   0.599  -0.409  0.00  0.00    +0.000 NA
BRANCH  23  24
ATOM     24  C   UNL     1      -4.412   0.180   0.077  0.00  0.00    +0.000 A 
ATOM     25  C   UNL     1      -5.530   0.759  -0.488  0.00  0.00    +0.000 A 
ATOM     26  C   UNL     1      -6.819   0.443  -0.111  0.00  0.00    +0.000 A 
ATOM     27  C   UNL     1      -6.974  -0.499   0.882  0.00  0.00    +0.000 A 
ATOM     28  C   UNL     1      -5.878  -1.094   1.465  0.00  0.00    +0.000 A 
ATOM     29  C   UNL     1      -4.584  -0.749   1.056  0.00  0.00    +0.000 A 
BRANCH  27  30
ATOM     30  O   UNL     1      -8.253  -0.846   1.292  0.00  0.00    +0.000 OA
ATOM     31  C   UNL     1      -8.451  -1.805   2.303  0.00  0.00    +0.000 C 
ENDBRANCH  27  30
ENDBRANCH  23  24
ENDBRANCH   3  21
TORSDOF 7
