REMARK  Name = 
REMARK  7 active torsions:
REMARK  status: ('A' for Active; 'I' for Inactive)
REMARK    1  A    between atoms: C_1  and  C_8
REMARK    2  A    between atoms: N_2  and  C_3
REMARK    3  A    between atoms: N_10  and  C_11
REMARK    4  A    between atoms: C_11  and  C_12
REMARK    5  A    between atoms: C_12  and  O_13
REMARK    6  A    between atoms: O_13  and  C_14
REMARK    7  A    between atoms: C_17  and  C_18
REMARK                            x       y       z     vdW  Elec       q    Type
REMARK                         _______ _______ _______ _____ _____    ______ ____
ROOT
ATOM      1  C   UNL     1       2.136   0.087  -0.770  0.00  0.00    +0.000 A 
ATOM      2  C   UNL     1       0.800  -0.142  -1.019  0.00  0.00    +0.000 A 
ATOM      3  N   UNL     1       0.524   0.152  -2.312  0.00  0.00    +0.000 N 
ATOM      4  C   UNL     1       1.660   0.577  -2.939  0.00  0.00    +0.000 A 
ATOM      5  C   UNL     1       1.903   0.986  -4.231  0.00  0.00    +0.000 A 
ATOM      6  C   UNL     1       3.166   1.370  -4.606  0.00  0.00    +0.000 A 
ATOM      7  C   UNL     1       4.168   1.335  -3.667  0.00  0.00    +0.000 A 
ATOM      8  C   UNL     1       3.903   0.921  -2.375  0.00  0.00    +0.000 A 
ATOM      9  C   UNL     1       2.643   0.530  -1.973  0.00  0.00    +0.000 A 
ENDROOT
BRANCH   1  10
ATOM     10  C   UNL     1       2.816  -0.111   0.502  0.00  0.00    +0.000 C 
ATOM     11  N   UNL     1       4.047   0.108   0.702  0.00  0.00    +0.000 NA
BRANCH  11  12
ATOM     12  C   UNL     1       4.727  -0.079   1.936  0.00  0.00    +0.000 A 
ATOM     13  N   UNL     1       6.073  -0.188   2.009  0.00  0.00    +0.000 NA
ATOM     14  C   UNL     1       6.443  -0.358   3.293  0.00  0.00    +0.000 A 
ATOM     15  N   UNL     1       5.294  -0.349   3.995  0.00  0.00    +0.000 NA
ATOM     16  N   UNL     1       4.266  -0.181   3.175  0.00  0.00    +0.000 NA
ENDBRANCH  11  12
ENDBRANCH   1  10
BRANCH   3  17
ATOM     17  C   UNL     1      -0.789   0.025  -2.914  0.00  0.00    +0.000 C 
BRANCH  17  18
ATOM     18  C   UNL     1      -1.569   1.308  -2.770  0.00  0.00    +0.000 C 
BRANCH  18  19
ATOM     19  O   UNL     1      -1.702   1.581  -1.403  0.00  0.00    +0.000 OA
BRANCH  19  20
ATOM     20  C   UNL     1      -2.338   0.718  -0.514  0.00  0.00    +0.000 A 
ATOM     21  C   UNL     1      -2.892  -0.482  -0.903  0.00  0.00    +0.000 A 
ATOM     22  C   UNL     1      -3.525  -1.342  -0.021  0.00  0.00    +0.000 A 
ATOM     23  C   UNL     1      -3.606  -0.983   1.317  0.00  0.00    +0.000 A 
ATOM     24  C   UNL     1      -3.051   0.217   1.698  0.00  0.00    +0.000 A 
ATOM     25  C   UNL     1      -2.419   1.076   0.814  0.00  0.00    +0.000 A 
BRANCH  23  26
ATOM     26  C   UNL     1      -4.287  -1.902   2.282  0.00  0.00    +0.000 C 
ATOM     27  C   UNL     1      -4.446  -1.140   3.588  0.00  0.00    +0.000 C 
ATOM     28  C   UNL     1      -5.095   0.190   3.276  0.00  0.00    +0.000 C 
ATOM     29  C   UNL     1      -6.484  -0.098   2.732  0.00  0.00    +0.000 C 
ATOM     30  C   UNL     1      -6.717  -1.599   2.583  0.00  0.00    +0.000 C 
ATOM     31  C   UNL     1      -5.649  -2.228   1.716  0.00  0.00    +0.000 C 
ENDBRANCH  23  26
ENDBRANCH  19  20
ENDBRANCH  18  19
ENDBRANCH  17  18
ENDBRANCH   3  17
TORSDOF 7
