REMARK  Name = 
REMARK  6 active torsions:
REMARK  status: ('A' for Active; 'I' for Inactive)
REMARK    1  A    between atoms: C_2  and  N_3
REMARK    2  A    between atoms: C_2  and  C_27
REMARK    3  A    between atoms: C_4  and  C_6
REMARK    4  A    between atoms: C_7  and  N_8
REMARK    5  A    between atoms: C_9  and  C_11
REMARK    6  A    between atoms: C_21  and  C_22
REMARK                            x       y       z     vdW  Elec       q    Type
REMARK                         _______ _______ _______ _____ _____    ______ ____
ROOT
ATOM      1  C   UNL     1       0.054   0.494   0.019  0.00  0.00    +0.000 A 
ATOM      2  C   UNL     1      -0.035   1.785  -0.423  0.00  0.00    +0.000 A 
ATOM      3  S   UNL     1       1.586   2.142  -0.870  0.00  0.00    +0.000 S 
ATOM      4  C   UNL     1       2.308   0.645  -0.480  0.00  0.00    +0.000 A 
ATOM      5  C   UNL     1       1.278  -0.082  -0.018  0.00  0.00    +0.000 A 
ATOM      6  C   UNL     1       1.643  -1.493   0.410  0.00  0.00    +0.000 C 
ATOM      7  C   UNL     1       3.066  -1.387   0.918  0.00  0.00    +0.000 C 
ATOM      8  C   UNL     1       3.839  -1.324  -0.535  0.00  0.00    +0.000 C 
ATOM      9  C   UNL     1       3.726   0.308  -0.640  0.00  0.00    +0.000 C 
ENDROOT
BRANCH   8  10
ATOM     10  C   UNL     1       5.321  -1.346   0.159  0.00  0.00    +0.000 C 
ATOM     11  C   UNL     1       5.490  -0.207   1.042  0.00  0.00    +0.000 C 
ATOM     12  C   UNL     1       6.315  -1.576  -0.917  0.00  0.00    +0.000 C 
ATOM     13  C   UNL     1       5.276  -2.627   1.011  0.00  0.00    +0.000 C 
ENDBRANCH   8  10
BRANCH   1  15
ATOM     14  N   UNL     1      -1.204  -1.496   0.975  0.00  0.00    +0.000 NA
ATOM     15  C   UNL     1      -1.181  -0.167   0.498  0.00  0.00    +0.000 C 
ATOM     16  O   UNL     1      -2.291   0.415   0.511  0.00  0.00    +0.000 OA
BRANCH  14  18
ATOM     17  C   UNL     1      -3.361  -1.824  -0.032  0.00  0.00    +0.000 C 
ATOM     18  C   UNL     1      -2.618  -2.044   1.449  0.00  0.00    +0.000 C 
BRANCH  18  19
ATOM     19  C   UNL     1      -2.263  -3.592   1.169  0.00  0.00    +0.000 A 
ATOM     20  C   UNL     1      -1.663  -3.966   0.050  0.00  0.00    +0.000 A 
ATOM     21  C   UNL     1      -1.361  -5.274  -0.195  0.00  0.00    +0.000 A 
ATOM     22  C   UNL     1      -1.680  -6.221   0.729  0.00  0.00    +0.000 A 
ATOM     23  C   UNL     1      -2.300  -5.824   1.882  0.00  0.00    +0.000 A 
ATOM     24  C   UNL     1      -2.616  -4.487   2.147  0.00  0.00    +0.000 A 
ENDBRANCH  18  19
ENDBRANCH  14  18
ENDBRANCH   1  15
BRANCH   2  25
ATOM     25  N   UNL     1      -1.141   2.682  -0.523  0.00  0.00    +0.000 NA
ATOM     26  C   UNL     1      -1.019   3.998  -1.015  0.00  0.00    +0.000 C 
ATOM     27  O   UNL     1       0.116   4.391  -1.379  0.00  0.00    +0.000 OA
BRANCH  26  28
ATOM     28  C   UNL     1      -2.166   4.890  -1.106  0.00  0.00    +0.000 A 
ATOM     29  C   UNL     1      -2.118   6.186  -1.576  0.00  0.00    +0.000 A 
ATOM     30  C   UNL     1      -3.414   6.697  -1.502  0.00  0.00    +0.000 A 
ATOM     31  C   UNL     1      -4.172   5.665  -0.986  0.00  0.00    +0.000 A 
ATOM     32  O   UNL     1      -3.414   4.640  -0.771  0.00  0.00    +0.000 OA
ENDBRANCH  26  28
ENDBRANCH   2  25
TORSDOF 6
