REMARK  Name = 
REMARK  7 active torsions:
REMARK  status: ('A' for Active; 'I' for Inactive)
REMARK    1  A    between atoms: C_2  and  O_3
REMARK    2  A    between atoms: O_3  and  C_4
REMARK    3  A    between atoms: C_7  and  N_8
REMARK    4  A    between atoms: N_8  and  C_9
REMARK    5  A    between atoms: C_10  and  S_11
REMARK    6  A    between atoms: S_11  and  C_12
REMARK    7  A    between atoms: N_21  and  C_22
REMARK                            x       y       z     vdW  Elec       q    Type
REMARK                         _______ _______ _______ _____ _____    ______ ____
ROOT
ATOM      1  C   UNL     1       0.475   0.611   1.214  0.00  0.00    +0.000 C 
ATOM      2  C   UNL     1      -0.484  -0.265   0.892  0.00  0.00    +0.000 C 
ATOM      3  C   UNL     1      -1.583   0.497   0.323  0.00  0.00    +0.000 C 
ATOM      4  O   UNL     1      -2.666   0.054  -0.102  0.00  0.00    +0.000 OA
ATOM      5  N   UNL     1      -1.232   1.896   0.319  0.00  0.00    +0.000 N 
ATOM      6  C   UNL     1       0.062   1.958   0.880  0.00  0.00    +0.000 C 
ATOM      7  O   UNL     1       0.674   3.044   1.025  0.00  0.00    +0.000 OA
ENDROOT
BRANCH   5   8
ATOM      8  C   UNL     1      -2.036   2.992  -0.152  0.00  0.00    +0.000 A 
ATOM      9  C   UNL     1      -2.308   4.074   0.655  0.00  0.00    +0.000 A 
ATOM     10  C   UNL     1      -3.088   5.140   0.207  0.00  0.00    +0.000 A 
ATOM     11  C   UNL     1      -3.617   5.147  -1.067  0.00  0.00    +0.000 A 
ATOM     12  C   UNL     1      -4.448   6.276  -1.553  0.00  0.00    +0.000 C 
ATOM     13  C   UNL     1      -3.341   4.062  -1.871  0.00  0.00    +0.000 A 
ATOM     14  C   UNL     1      -2.561   2.994  -1.423  0.00  0.00    +0.000 A 
ENDBRANCH   5   8
BRANCH   1  15
ATOM     15  N   UNL     1       1.744   0.271   1.808  0.00  0.00    +0.000 NA
BRANCH  15  19
ATOM     16  C   UNL     1       4.996  -0.870  -0.588  0.00  0.00    +0.000 A 
ATOM     17  C   UNL     1       3.757  -0.610  -1.131  0.00  0.00    +0.000 A 
ATOM     18  C   UNL     1       2.709  -0.241  -0.325  0.00  0.00    +0.000 A 
ATOM     19  C   UNL     1       2.855  -0.119   1.035  0.00  0.00    +0.000 A 
ATOM     20  C   UNL     1       4.086  -0.375   1.603  0.00  0.00    +0.000 A 
ATOM     21  C   UNL     1       5.132  -0.745   0.781  0.00  0.00    +0.000 A 
BRANCH  16  22
ATOM     22  O   UNL     1       6.071  -1.245  -1.396  0.00  0.00    +0.000 OA
BRANCH  22  24
ATOM     23  C   UNL     1       8.397  -1.889  -1.728  0.00  0.00    +0.000 C 
ATOM     24  C   UNL     1       7.308  -1.494  -0.767  0.00  0.00    +0.000 C 
ENDBRANCH  22  24
ENDBRANCH  16  22
ENDBRANCH  15  19
ENDBRANCH   1  15
BRANCH   2  25
ATOM     25  S   UNL     1      -0.287  -2.005   1.173  0.00  0.00    +0.000 S 
BRANCH  25  26
ATOM     26  C   UNL     1      -1.621  -2.994   0.616  0.00  0.00    +0.000 A 
ATOM     27  C   UNL     1      -2.760  -2.583  -0.019  0.00  0.00    +0.000 A 
ATOM     28  C   UNL     1      -3.768  -3.432  -0.428  0.00  0.00    +0.000 A 
ATOM     29  C   UNL     1      -3.672  -4.796  -0.206  0.00  0.00    +0.000 A 
ATOM     30  C   UNL     1      -4.729  -5.746  -0.627  0.00  0.00    +0.000 C 
ATOM     31  C   UNL     1      -2.531  -5.229   0.433  0.00  0.00    +0.000 A 
ATOM     32  C   UNL     1      -1.533  -4.377   0.837  0.00  0.00    +0.000 A 
ENDBRANCH  25  26
ENDBRANCH   2  25
TORSDOF 7
