REMARK  Name = 
REMARK  8 active torsions:
REMARK  status: ('A' for Active; 'I' for Inactive)
REMARK    1  A    between atoms: C_2  and  C_3
REMARK    2  A    between atoms: C_7  and  C_8
REMARK    3  A    between atoms: C_10  and  N_11
REMARK    4  A    between atoms: C_12  and  C_14
REMARK    5  A    between atoms: C_14  and  O_16
REMARK    6  A    between atoms: O_16  and  C_17
REMARK    7  A    between atoms: C_17  and  C_19
REMARK    8  A    between atoms: C_22  and  C_23
REMARK                            x       y       z     vdW  Elec       q    Type
REMARK                         _______ _______ _______ _____ _____    ______ ____
ROOT
ATOM      1  C   UNL     1      -1.435   0.431  -1.170  0.00  0.00    +0.000 C 
ATOM      2  C   UNL     1      -1.353   2.115  -1.074  0.00  0.00    +0.000 C 
ENDROOT
BRANCH   1   4
ATOM      3  N   UNL     1      -3.784   0.382  -0.318  0.00  0.00    +0.000 NA
ATOM      4  C   UNL     1      -2.475   0.265   0.058  0.00  0.00    +0.000 C 
ATOM      5  O   UNL     1      -2.127   0.061   1.173  0.00  0.00    +0.000 OA
BRANCH   3  11
ATOM      6  C   UNL     1      -5.719  -0.895   0.224  0.00  0.00    +0.000 A 
ATOM      7  C   UNL     1      -6.996  -1.011   0.760  0.00  0.00    +0.000 A 
ATOM      8  C   UNL     1      -7.641   0.058   1.354  0.00  0.00    +0.000 A 
ATOM      9  C   UNL     1      -6.944   1.276   1.390  0.00  0.00    +0.000 A 
ATOM     10  C   UNL     1      -5.667   1.377   0.852  0.00  0.00    +0.000 A 
ATOM     11  C   UNL     1      -5.021   0.321   0.262  0.00  0.00    +0.000 A 
BRANCH   6  13
ATOM     12  C   UNL     1      -6.108  -3.006  -0.966  0.00  0.00    +0.000 C 
ATOM     13  C   UNL     1      -5.043  -2.046  -0.415  0.00  0.00    +0.000 C 
ENDBRANCH   6  13
BRANCH  10  14
ATOM     14  C   UNL     1      -4.905   2.667   0.905  0.00  0.00    +0.000 C 
ATOM     15  C   UNL     1      -3.862   2.649   2.006  0.00  0.00    +0.000 C 
ENDBRANCH  10  14
ENDBRANCH   3  11
ENDBRANCH   1   4
BRANCH   1  16
ATOM     16  O   UNL     1      -0.135   0.254  -0.328  0.00  0.00    +0.000 OA
BRANCH  16  17
ATOM     17  C   UNL     1       0.915   0.256  -1.256  0.00  0.00    +0.000 C 
ATOM     18  O   UNL     1       0.723   0.381  -2.507  0.00  0.00    +0.000 OA
BRANCH  17  19
ATOM     19  C   UNL     1       2.285   0.109  -0.816  0.00  0.00    +0.000 A 
ATOM     20  C   UNL     1       2.630   0.079   0.505  0.00  0.00    +0.000 A 
ATOM     21  C   UNL     1       3.964  -0.116   0.873  0.00  0.00    +0.000 A 
ATOM     22  C   UNL     1       4.943  -0.283  -0.060  0.00  0.00    +0.000 A 
ATOM     23  C   UNL     1       4.566  -0.246  -1.381  0.00  0.00    +0.000 A 
ATOM     24  C   UNL     1       3.281  -0.056  -1.802  0.00  0.00    +0.000 A 
BRANCH  22  25
ATOM     25  C   UNL     1       6.343  -0.514   0.342  0.00  0.00    +0.000 A 
ATOM     26  C   UNL     1       6.942  -0.027   1.432  0.00  0.00    +0.000 A 
ATOM     27  C   UNL     1       8.267  -0.342   1.693  0.00  0.00    +0.000 A 
ATOM     28  C   UNL     1       8.973  -1.137   0.860  0.00  0.00    +0.000 A 
ATOM     29  C   UNL     1       8.348  -1.659  -0.305  0.00  0.00    +0.000 A 
ATOM     30  C   UNL     1       7.035  -1.340  -0.552  0.00  0.00    +0.000 A 
ENDBRANCH  22  25
ENDBRANCH  17  19
ENDBRANCH  16  17
ENDBRANCH   1  16
TORSDOF 8
