REMARK  Name = 
REMARK  10 active torsions:
REMARK  status: ('A' for Active; 'I' for Inactive)
REMARK    1  A    between atoms: C_2  and  C_3
REMARK    2  A    between atoms: C_7  and  C_8
REMARK    3  A    between atoms: C_10  and  N_11
REMARK    4  A    between atoms: C_12  and  C_14
REMARK    5  A    between atoms: C_14  and  O_15
REMARK    6  A    between atoms: O_15  and  C_16
REMARK    7  A    between atoms: C_16  and  C_18
REMARK    8  A    between atoms: C_18  and  C_19
REMARK    9  A    between atoms: C_19  and  C_20
REMARK   10  A    between atoms: C_19  and  C_26
REMARK                            x       y       z     vdW  Elec       q    Type
REMARK                         _______ _______ _______ _____ _____    ______ ____
ROOT
ATOM      1  C   UNL     1       0.797  -0.210   1.285  0.00  0.00    +0.000 C 
ATOM      2  O   UNL     1      -0.066  -0.402   2.177  0.00  0.00    +0.000 OA
ENDROOT
BRANCH   1   3
ATOM      3  O   UNL     1       0.522   0.771   0.347  0.00  0.00    +0.000 OA
BRANCH   3   4
ATOM      4  C   UNL     1      -0.660   1.497   0.406  0.00  0.00    +0.000 C 
BRANCH   4   6
ATOM      5  N   UNL     1      -3.198   1.127   0.310  0.00  0.00    +0.000 NA
ATOM      6  C   UNL     1      -1.874   0.634   0.280  0.00  0.00    +0.000 C 
ATOM      7  O   UNL     1      -1.706  -0.604   0.139  0.00  0.00    +0.000 OA
BRANCH   5  13
ATOM      8  C   UNL     1      -4.841   0.067  -1.073  0.00  0.00    +0.000 A 
ATOM      9  C   UNL     1      -5.957  -0.710  -1.219  0.00  0.00    +0.000 A 
ATOM     10  C   UNL     1      -6.596  -1.246  -0.119  0.00  0.00    +0.000 A 
ATOM     11  C   UNL     1      -6.114  -1.000   1.136  0.00  0.00    +0.000 A 
ATOM     12  C   UNL     1      -4.989  -0.219   1.314  0.00  0.00    +0.000 A 
ATOM     13  C   UNL     1      -4.357   0.313   0.192  0.00  0.00    +0.000 A 
BRANCH   8  15
ATOM     14  C   UNL     1      -4.482   2.095  -2.457  0.00  0.00    +0.000 C 
ATOM     15  C   UNL     1      -4.184   0.626  -2.269  0.00  0.00    +0.000 C 
ENDBRANCH   8  15
BRANCH  12  16
ATOM     16  C   UNL     1      -4.483   0.039   2.682  0.00  0.00    +0.000 C 
ATOM     17  C   UNL     1      -3.263  -0.803   2.964  0.00  0.00    +0.000 C 
ENDBRANCH  12  16
ENDBRANCH   5  13
ENDBRANCH   4   6
ENDBRANCH   3   4
ENDBRANCH   1   3
BRANCH   1  18
ATOM     18  C   UNL     1       2.067  -0.998   1.224  0.00  0.00    +0.000 C 
BRANCH  18  19
ATOM     19  C   UNL     1       2.868  -0.512   0.069  0.00  0.00    +0.000 C 
BRANCH  19  20
ATOM     20  C   UNL     1       3.257   0.895   0.099  0.00  0.00    +0.000 A 
ATOM     21  C   UNL     1       3.964   1.465   1.148  0.00  0.00    +0.000 A 
ATOM     22  C   UNL     1       4.293   2.790   1.110  0.00  0.00    +0.000 A 
ATOM     23  C   UNL     1       3.923   3.568   0.028  0.00  0.00    +0.000 A 
ATOM     24  C   UNL     1       3.221   3.029  -1.026  0.00  0.00    +0.000 A 
ATOM     25  C   UNL     1       2.904   1.698  -0.964  0.00  0.00    +0.000 A 
ENDBRANCH  19  20
BRANCH  19  26
ATOM     26  C   UNL     1       3.889  -1.442  -0.432  0.00  0.00    +0.000 A 
ATOM     27  C   UNL     1       3.896  -1.752  -1.777  0.00  0.00    +0.000 A 
ATOM     28  C   UNL     1       4.806  -2.612  -2.362  0.00  0.00    +0.000 A 
ATOM     29  C   UNL     1       5.751  -3.184  -1.543  0.00  0.00    +0.000 A 
ATOM     30  C   UNL     1       5.767  -2.892  -0.191  0.00  0.00    +0.000 A 
ATOM     31  C   UNL     1       4.845  -2.030   0.360  0.00  0.00    +0.000 A 
ENDBRANCH  19  26
ENDBRANCH  18  19
ENDBRANCH   1  18
TORSDOF 10
