REMARK  Name = 
REMARK  7 active torsions:
REMARK  status: ('A' for Active; 'I' for Inactive)
REMARK    1  A    between atoms: C_6  and  N_7
REMARK    2  A    between atoms: N_7  and  C_8
REMARK    3  A    between atoms: C_9  and  S_10
REMARK    4  A    between atoms: S_10  and  C_11
REMARK    5  A    between atoms: N_19  and  C_20
REMARK    6  A    between atoms: C_20  and  C_21
REMARK    7  A    between atoms: C_21  and  C_22
REMARK                            x       y       z     vdW  Elec       q    Type
REMARK                         _______ _______ _______ _____ _____    ______ ____
ROOT
ATOM      1  C   UNL     1      -0.582  -1.069   0.120  0.00  0.00    +0.000 C 
ATOM      2  C   UNL     1      -0.379   0.177  -0.219  0.00  0.00    +0.000 C 
ATOM      3  C   UNL     1       0.695   0.783   0.557  0.00  0.00    +0.000 C 
ATOM      4  O   UNL     1       1.150   1.956   0.493  0.00  0.00    +0.000 OA
ATOM      5  N   UNL     1       1.180  -0.213   1.455  0.00  0.00    +0.000 N 
ATOM      6  C   UNL     1       0.389  -1.367   1.187  0.00  0.00    +0.000 C 
ATOM      7  O   UNL     1       0.507  -2.479   1.779  0.00  0.00    +0.000 OA
ENDROOT
BRANCH   1   8
ATOM      8  N   UNL     1      -1.551  -1.948  -0.438  0.00  0.00    +0.000 NA
BRANCH   8  14
ATOM      9  C   UNL     1      -5.410  -4.993   0.112  0.00  0.00    +0.000 C 
ATOM     10  C   UNL     1      -4.386  -4.064   0.709  0.00  0.00    +0.000 A 
ATOM     11  C   UNL     1      -4.356  -3.818   2.065  0.00  0.00    +0.000 A 
ATOM     12  C   UNL     1      -3.407  -2.958   2.616  0.00  0.00    +0.000 A 
ATOM     13  C   UNL     1      -2.492  -2.348   1.788  0.00  0.00    +0.000 A 
ATOM     14  C   UNL     1      -2.503  -2.579   0.435  0.00  0.00    +0.000 A 
ATOM     15  C   UNL     1      -3.451  -3.432  -0.078  0.00  0.00    +0.000 A 
ATOM     16  C   UNL     1      -3.512  -3.721  -1.537  0.00  0.00    +0.000 C 
ENDBRANCH   8  14
ENDBRANCH   1   8
BRANCH   2  17
ATOM     17  S   UNL     1      -1.299   1.051  -1.485  0.00  0.00    +0.000 S 
BRANCH  17  18
ATOM     18  C   UNL     1      -0.742   2.721  -1.665  0.00  0.00    +0.000 A 
ATOM     19  C   UNL     1      -1.317   3.715  -0.917  0.00  0.00    +0.000 A 
ATOM     20  C   UNL     1      -0.852   5.013  -1.088  0.00  0.00    +0.000 A 
ATOM     21  C   UNL     1       0.144   5.320  -1.964  0.00  0.00    +0.000 A 
ATOM     22  C   UNL     1       0.717   4.321  -2.711  0.00  0.00    +0.000 A 
ATOM     23  C   UNL     1       0.260   3.007  -2.551  0.00  0.00    +0.000 A 
ENDBRANCH  17  18
ENDBRANCH   2  17
BRANCH   5  24
ATOM     24  C   UNL     1       2.250  -0.065   2.425  0.00  0.00    +0.000 C 
BRANCH  24  25
ATOM     25  C   UNL     1       3.588  -0.415   1.859  0.00  0.00    +0.000 C 
BRANCH  25  26
ATOM     26  C   UNL     1       3.927   0.452   0.707  0.00  0.00    +0.000 A 
ATOM     27  C   UNL     1       4.601   1.643   0.871  0.00  0.00    +0.000 A 
ATOM     28  C   UNL     1       4.906   2.434  -0.220  0.00  0.00    +0.000 A 
ATOM     29  C   UNL     1       4.524   2.014  -1.489  0.00  0.00    +0.000 A 
ATOM     30  C   UNL     1       3.850   0.823  -1.652  0.00  0.00    +0.000 A 
ATOM     31  C   UNL     1       3.549   0.040  -0.574  0.00  0.00    +0.000 A 
ENDBRANCH  25  26
ENDBRANCH  24  25
ENDBRANCH   5  24
TORSDOF 7
