REMARK  Name = 
REMARK  8 active torsions:
REMARK  status: ('A' for Active; 'I' for Inactive)
REMARK    1  A    between atoms: C_2  and  C_3
REMARK    2  A    between atoms: C_3  and  C_6
REMARK    3  A    between atoms: C_9  and  O_10
REMARK    4  A    between atoms: O_10  and  C_11
REMARK    5  A    between atoms: C_14  and  N_15
REMARK    6  A    between atoms: C_16  and  C_18
REMARK    7  A    between atoms: C_18  and  S_19
REMARK    8  A    between atoms: S_19  and  C_20
REMARK                            x       y       z     vdW  Elec       q    Type
REMARK                         _______ _______ _______ _____ _____    ______ ____
ROOT
ATOM      1  C   UNL     1      -1.626   0.618  -0.309  0.00  0.00    +0.000 A 
ATOM      2  C   UNL     1      -1.233  -0.500  -1.083  0.00  0.00    +0.000 A 
ATOM      3  C   UNL     1      -0.077  -1.185  -0.808  0.00  0.00    +0.000 A 
ATOM      4  C   UNL     1       0.781  -0.834   0.247  0.00  0.00    +0.000 A 
ATOM      5  C   UNL     1       0.399   0.246   0.995  0.00  0.00    +0.000 A 
ATOM      6  C   UNL     1      -0.794   0.959   0.714  0.00  0.00    +0.000 A 
ENDROOT
BRANCH   4   7
ATOM      7  N   UNL     1       1.930  -1.653   0.425  0.00  0.00    +0.000 NA
ATOM      8  C   UNL     1       2.420  -2.067   1.699  0.00  0.00    +0.000 C 
ATOM      9  O   UNL     1       1.777  -1.636   2.692  0.00  0.00    +0.000 OA
BRANCH   8  10
ATOM     10  C   UNL     1       3.599  -2.944   1.878  0.00  0.00    +0.000 C 
BRANCH  10  11
ATOM     11  S   UNL     1       4.497  -3.120   0.344  0.00  0.00    +0.000 S 
BRANCH  11  12
ATOM     12  C   UNL     1       5.548  -1.675   0.147  0.00  0.00    +0.000 A 
ATOM     13  C   UNL     1       6.844  -1.743   0.703  0.00  0.00    +0.000 A 
ATOM     14  C   UNL     1       7.684  -0.676   0.577  0.00  0.00    +0.000 A 
ATOM     15  C   UNL     1       7.337   0.491  -0.076  0.00  0.00    +0.000 A 
ATOM     16  C   UNL     1       6.051   0.576  -0.633  0.00  0.00    +0.000 A 
ATOM     17  C   UNL     1       5.195  -0.525  -0.497  0.00  0.00    +0.000 A 
ATOM     18  O   UNL     1       5.736   1.740  -1.277  0.00  0.00    +0.000 OA
ATOM     19  C   UNL     1       6.459   2.934  -1.157  0.00  0.00    +0.000 C 
ATOM     20  C   UNL     1       7.703   2.891  -0.337  0.00  0.00    +0.000 C 
ATOM     21  O   UNL     1       8.187   1.567  -0.213  0.00  0.00    +0.000 OA
ENDBRANCH  11  12
ENDBRANCH  10  11
ENDBRANCH   8  10
ENDBRANCH   4   7
BRANCH   1  22
ATOM     22  O   UNL     1      -2.811   1.246  -0.683  0.00  0.00    +0.000 OA
BRANCH  22  26
ATOM     23  C   UNL     1      -6.758   0.251  -0.067  0.00  0.00    +0.000 A 
ATOM     24  C   UNL     1      -5.829  -0.230   0.806  0.00  0.00    +0.000 A 
ATOM     25  C   UNL     1      -4.473   0.075   0.654  0.00  0.00    +0.000 A 
ATOM     26  C   UNL     1      -4.093   0.871  -0.396  0.00  0.00    +0.000 A 
ATOM     27  C   UNL     1      -5.043   1.365  -1.288  0.00  0.00    +0.000 A 
ATOM     28  C   UNL     1      -6.362   1.060  -1.132  0.00  0.00    +0.000 A 
BRANCH  23  29
ATOM     29  C   UNL     1      -8.230  -0.011   0.019  0.00  0.00    +0.000 C 
ATOM     30  C   UNL     1      -8.554  -0.826   1.226  0.00  0.00    +0.000 C 
ATOM     31  C   UNL     1      -8.700  -0.774  -1.201  0.00  0.00    +0.000 C 
BRANCH  29  33
ATOM     32  C   UNL     1      -8.612   2.199   1.170  0.00  0.00    +0.000 C 
ATOM     33  C   UNL     1      -8.952   1.313  -0.010  0.00  0.00    +0.000 C 
ENDBRANCH  29  33
ENDBRANCH  23  29
ENDBRANCH  22  26
ENDBRANCH   1  22
TORSDOF 8
