REMARK  Name = 
REMARK  6 active torsions:
REMARK  status: ('A' for Active; 'I' for Inactive)
REMARK    1  A    between atoms: O_2  and  C_3
REMARK    2  A    between atoms: C_6  and  C_7
REMARK    3  A    between atoms: C_17  and  O_18
REMARK    4  A    between atoms: O_18  and  C_19
REMARK    5  A    between atoms: C_19  and  C_20
REMARK    6  A    between atoms: C_29  and  O_30
REMARK                            x       y       z     vdW  Elec       q    Type
REMARK                         _______ _______ _______ _____ _____    ______ ____
ROOT
ATOM      1  C   UNL     1      -2.658   0.619  -2.100  0.00  0.00    +0.000 C 
ATOM      2  N   UNL     1      -3.046  -0.830  -2.437  0.00  0.00    +0.000 NA
ATOM      3  C   UNL     1      -2.845  -1.710  -1.351  0.00  0.00    +0.000 C 
ATOM      4  C   UNL     1      -1.368  -2.067  -1.465  0.00  0.00    +0.000 C 
ATOM      5  C   UNL     1      -0.704  -0.793  -1.177  0.00  0.00    +0.000 A 
ATOM      6  C   UNL     1      -1.246   0.385  -1.442  0.00  0.00    +0.000 A 
ATOM      7  N   UNL     1      -0.397   1.408  -1.064  0.00  0.00    +0.000 NA
ATOM      8  C   UNL     1       0.715   0.840  -0.543  0.00  0.00    +0.000 A 
ATOM      9  C   UNL     1       1.895   1.329  -0.005  0.00  0.00    +0.000 A 
ATOM     10  C   UNL     1       2.832   0.423   0.439  0.00  0.00    +0.000 A 
ATOM     11  C   UNL     1       2.686  -0.948   0.389  0.00  0.00    +0.000 A 
ATOM     12  C   UNL     1       1.503  -1.416  -0.151  0.00  0.00    +0.000 A 
ATOM     13  C   UNL     1       0.541  -0.542  -0.606  0.00  0.00    +0.000 A 
ENDROOT
BRANCH   1  17
ATOM     14  C   UNL     1      -5.159   1.189   1.399  0.00  0.00    +0.000 A 
ATOM     15  C   UNL     1      -5.104   2.120   0.394  0.00  0.00    +0.000 A 
ATOM     16  C   UNL     1      -4.306   1.917  -0.708  0.00  0.00    +0.000 A 
ATOM     17  C   UNL     1      -3.553   0.760  -0.796  0.00  0.00    +0.000 A 
ATOM     18  C   UNL     1      -3.606  -0.132   0.167  0.00  0.00    +0.000 A 
ATOM     19  C   UNL     1      -4.398   0.051   1.278  0.00  0.00    +0.000 A 
BRANCH  14  21
ATOM     20  C   UNL     1      -6.751   2.543   2.663  0.00  0.00    +0.000 C 
ATOM     21  O   UNL     1      -5.967   1.370   2.539  0.00  0.00    +0.000 OA
ENDBRANCH  14  21
BRANCH  19  22
ATOM     22  O   UNL     1      -4.450  -0.891   2.290  0.00  0.00    +0.000 OA
ATOM     23  C   UNL     1      -3.701  -2.094   2.252  0.00  0.00    +0.000 C 
ENDBRANCH  19  22
ENDBRANCH   1  17
BRANCH  11  24
ATOM     24  O   UNL     1       3.651  -1.820   0.845  0.00  0.00    +0.000 OA
BRANCH  24  25
ATOM     25  C   UNL     1       4.859  -1.579   1.399  0.00  0.00    +0.000 C 
BRANCH  25  26
ATOM     26  C   UNL     1       5.852  -0.836   0.626  0.00  0.00    +0.000 A 
ATOM     27  C   UNL     1       6.781  -1.371  -0.221  0.00  0.00    +0.000 A 
ATOM     28  C   UNL     1       7.691  -0.595  -0.920  0.00  0.00    +0.000 A 
ATOM     29  C   UNL     1       7.657   0.769  -0.754  0.00  0.00    +0.000 A 
ATOM     30  C   UNL     1       6.740   1.360   0.089  0.00  0.00    +0.000 A 
ATOM     31  C   UNL     1       5.857   0.540   0.760  0.00  0.00    +0.000 A 
ENDBRANCH  25  26
ENDBRANCH  24  25
ENDBRANCH  11  24
TORSDOF 6
