REMARK  Name = 
REMARK  7 active torsions:
REMARK  status: ('A' for Active; 'I' for Inactive)
REMARK    1  A    between atoms: O_2  and  C_3
REMARK    2  A    between atoms: C_7  and  N_8
REMARK    3  A    between atoms: N_8  and  C_9
REMARK    4  A    between atoms: C_10  and  S_11
REMARK    5  A    between atoms: S_11  and  C_12
REMARK    6  A    between atoms: N_21  and  C_22
REMARK    7  A    between atoms: C_25  and  C_26
REMARK                            x       y       z     vdW  Elec       q    Type
REMARK                         _______ _______ _______ _____ _____    ______ ____
ROOT
ATOM      1  C   UNL     1      -0.509   0.718   1.750  0.00  0.00    +0.000 C 
ATOM      2  C   UNL     1      -0.942  -0.319   1.012  0.00  0.00    +0.000 C 
ATOM      3  C   UNL     1       0.209  -0.847   0.310  0.00  0.00    +0.000 C 
ATOM      4  O   UNL     1       0.291  -1.809  -0.493  0.00  0.00    +0.000 OA
ATOM      5  N   UNL     1       1.372  -0.067   0.667  0.00  0.00    +0.000 N 
ATOM      6  C   UNL     1       0.906   0.908   1.570  0.00  0.00    +0.000 C 
ATOM      7  O   UNL     1       1.639   1.808   2.125  0.00  0.00    +0.000 OA
ENDROOT
BRANCH   5   8
ATOM      8  C   UNL     1       2.705  -0.243   0.197  0.00  0.00    +0.000 A 
ATOM      9  C   UNL     1       3.472   0.851  -0.166  0.00  0.00    +0.000 A 
ATOM     10  C   UNL     1       4.763   0.706  -0.632  0.00  0.00    +0.000 A 
ATOM     11  C   UNL     1       5.359  -0.523  -0.764  0.00  0.00    +0.000 A 
ATOM     12  C   UNL     1       4.603  -1.627  -0.404  0.00  0.00    +0.000 A 
ATOM     13  C   UNL     1       3.299  -1.478   0.067  0.00  0.00    +0.000 A 
BRANCH  11  14
ATOM     14  C   UNL     1       6.736  -0.717  -1.262  0.00  0.00    +0.000 C 
ATOM     15  C   UNL     1       6.772  -1.965  -2.136  0.00  0.00    +0.000 C 
ATOM     16  C   UNL     1       7.189   0.485  -2.067  0.00  0.00    +0.000 C 
ENDBRANCH  11  14
ENDBRANCH   5   8
BRANCH   1  17
ATOM     17  N   UNL     1      -1.354   1.492   2.579  0.00  0.00    +0.000 NA
BRANCH  17  22
ATOM     18  C   UNL     1      -2.541   3.844  -0.085  0.00  0.00    +0.000 A 
ATOM     19  C   UNL     1      -3.298   4.705   0.714  0.00  0.00    +0.000 A 
ATOM     20  C   UNL     1      -3.390   4.487   2.055  0.00  0.00    +0.000 A 
ATOM     21  C   UNL     1      -2.774   3.455   2.688  0.00  0.00    +0.000 A 
ATOM     22  C   UNL     1      -2.024   2.597   1.924  0.00  0.00    +0.000 A 
ATOM     23  C   UNL     1      -1.915   2.788   0.589  0.00  0.00    +0.000 A 
BRANCH  18  25
ATOM     24  C   UNL     1      -2.241   4.072  -2.609  0.00  0.00    +0.000 C 
ATOM     25  O   UNL     1      -2.421   4.001  -1.354  0.00  0.00    +0.000 OA
ENDBRANCH  18  25
ENDBRANCH  17  22
ENDBRANCH   1  17
BRANCH   2  26
ATOM     26  S   UNL     1      -2.610  -0.869   0.964  0.00  0.00    +0.000 S 
BRANCH  26  27
ATOM     27  C   UNL     1      -2.927  -2.285  -0.026  0.00  0.00    +0.000 A 
ATOM     28  C   UNL     1      -4.226  -2.818  -0.114  0.00  0.00    +0.000 A 
ATOM     29  C   UNL     1      -4.492  -3.923  -0.868  0.00  0.00    +0.000 A 
ATOM     30  C   UNL     1      -3.528  -4.589  -1.587  0.00  0.00    +0.000 A 
ATOM     31  C   UNL     1      -3.887  -5.791  -2.383  0.00  0.00    +0.000 C 
ATOM     32  C   UNL     1      -2.251  -4.087  -1.515  0.00  0.00    +0.000 A 
ATOM     33  C   UNL     1      -1.987  -2.963  -0.747  0.00  0.00    +0.000 A 
ENDBRANCH  26  27
ENDBRANCH   2  26
TORSDOF 7
