REMARK  Name = 
REMARK  7 active torsions:
REMARK  status: ('A' for Active; 'I' for Inactive)
REMARK    1  A    between atoms: C_2  and  C_3
REMARK    2  A    between atoms: C_4  and  N_5
REMARK    3  A    between atoms: C_6  and  C_8
REMARK    4  A    between atoms: C_8  and  C_9
REMARK    5  A    between atoms: C_8  and  C_16
REMARK    6  A    between atoms: C_9  and  C_10
REMARK    7  A    between atoms: C_16  and  C_17
REMARK                            x       y       z     vdW  Elec       q    Type
REMARK                         _______ _______ _______ _____ _____    ______ ____
ROOT
ATOM      1  N   UNL     1      -0.370  -0.401   0.119  0.00  0.00    +0.000 NA
ATOM      2  C   UNL     1      -1.148   0.484   0.803  0.00  0.00    +0.000 C 
ATOM      3  O   UNL     1      -0.596   1.394   1.454  0.00  0.00    +0.000 OA
ENDROOT
BRANCH   1   5
ATOM      4  C   UNL     1       2.167  -0.024   0.296  0.00  0.00    +0.000 A 
ATOM      5  C   UNL     1       0.999  -0.594  -0.078  0.00  0.00    +0.000 A 
ATOM      6  S   UNL     1       1.555  -1.915  -1.076  0.00  0.00    +0.000 S 
ATOM      7  C   UNL     1       3.226  -1.668  -0.960  0.00  0.00    +0.000 A 
ATOM      8  C   UNL     1       3.321  -0.566  -0.150  0.00  0.00    +0.000 A 
ATOM      9  C   UNL     1       4.679   0.032   0.238  0.00  0.00    +0.000 C 
ATOM     10  C   UNL     1       5.362   0.549  -1.010  0.00  0.00    +0.000 C 
ATOM     11  C   UNL     1       5.977  -0.608  -1.772  0.00  0.00    +0.000 C 
ATOM     12  C   UNL     1       5.634  -1.938  -1.139  0.00  0.00    +0.000 C 
ATOM     13  C   UNL     1       4.322  -2.479  -1.603  0.00  0.00    +0.000 C 
BRANCH   4  15
ATOM     14  N   UNL     1       2.204   2.116   1.875  0.00  0.00    +0.000 NA
ATOM     15  C   UNL     1       2.168   1.165   1.175  0.00  0.00    +0.000 C 
ENDBRANCH   4  15
ENDBRANCH   1   5
BRANCH   2  16
ATOM     16  C   UNL     1      -2.629   0.464   0.848  0.00  0.00    +0.000 C 
BRANCH  16  17
ATOM     17  C   UNL     1      -3.216  -0.764   1.398  0.00  0.00    +0.000 C 
BRANCH  17  18
ATOM     18  C   UNL     1      -2.899  -2.002   0.693  0.00  0.00    +0.000 A 
ATOM     19  C   UNL     1      -1.808  -2.756   1.021  0.00  0.00    +0.000 A 
ATOM     20  C   UNL     1      -1.484  -3.935   0.368  0.00  0.00    +0.000 A 
ATOM     21  C   UNL     1      -2.332  -4.324  -0.652  0.00  0.00    +0.000 A 
ATOM     22  C   UNL     1      -3.438  -3.609  -1.023  0.00  0.00    +0.000 A 
ATOM     23  C   UNL     1      -3.723  -2.427  -0.335  0.00  0.00    +0.000 A 
ENDBRANCH  17  18
ENDBRANCH  16  17
BRANCH  16  24
ATOM     24  C   UNL     1      -3.279   1.030  -0.363  0.00  0.00    +0.000 C 
BRANCH  24  25
ATOM     25  C   UNL     1      -2.836   2.455  -0.494  0.00  0.00    +0.000 A 
ATOM     26  C   UNL     1      -3.550   3.477   0.102  0.00  0.00    +0.000 A 
ATOM     27  C   UNL     1      -3.191   4.803   0.016  0.00  0.00    +0.000 A 
ATOM     28  C   UNL     1      -2.064   5.123  -0.701  0.00  0.00    +0.000 A 
ATOM     29  C   UNL     1      -1.350   4.118  -1.295  0.00  0.00    +0.000 A 
ATOM     30  C   UNL     1      -1.703   2.803  -1.211  0.00  0.00    +0.000 A 
ENDBRANCH  24  25
ENDBRANCH  16  24
ENDBRANCH   2  16
TORSDOF 7
