REMARK  Name = 
REMARK  8 active torsions:
REMARK  status: ('A' for Active; 'I' for Inactive)
REMARK    1  A    between atoms: C_2  and  O_3
REMARK    2  A    between atoms: O_3  and  C_4
REMARK    3  A    between atoms: C_7  and  N_8
REMARK    4  A    between atoms: C_11  and  C_12
REMARK    5  A    between atoms: C_12  and  O_14
REMARK    6  A    between atoms: O_14  and  C_15
REMARK    7  A    between atoms: C_15  and  C_16
REMARK    8  A    between atoms: C_16  and  C_18
REMARK                            x       y       z     vdW  Elec       q    Type
REMARK                         _______ _______ _______ _____ _____    ______ ____
ROOT
ATOM      1  N   UNL     1       0.527  -0.580  -0.151  0.00  0.00    +0.000 N 
ATOM      2  C   UNL     1      -0.714  -1.085  -0.140  0.00  0.00    +0.000 A 
ATOM      3  N   UNL     1      -1.049  -2.386  -0.577  0.00  0.00    +0.000 NA
ATOM      4  C   UNL     1      -1.611  -0.148   0.359  0.00  0.00    +0.000 A 
ATOM      5  C   UNL     1      -0.840   0.955   0.650  0.00  0.00    +0.000 A 
ATOM      6  N   UNL     1      -1.169   2.165   1.161  0.00  0.00    +0.000 NA
ATOM      7  C   UNL     1      -0.250   3.112   1.369  0.00  0.00    +0.000 A 
ATOM      8  C   UNL     1      -0.608   4.350   1.895  0.00  0.00    +0.000 A 
ATOM      9  C   UNL     1       0.372   5.312   2.099  0.00  0.00    +0.000 A 
ATOM     10  C   UNL     1       1.689   5.027   1.778  0.00  0.00    +0.000 A 
ATOM     11  C   UNL     1       2.028   3.799   1.259  0.00  0.00    +0.000 A 
ATOM     12  C   UNL     1       1.053   2.845   1.057  0.00  0.00    +0.000 A 
ATOM     13  N   UNL     1       1.387   1.647   0.550  0.00  0.00    +0.000 NA
ATOM     14  C   UNL     1       0.464   0.691   0.339  0.00  0.00    +0.000 A 
ENDROOT
BRANCH   1  18
ATOM     15  C   UNL     1       4.186  -2.292  -1.383  0.00  0.00    +0.000 A 
ATOM     16  C   UNL     1       3.331  -1.705  -2.309  0.00  0.00    +0.000 A 
ATOM     17  C   UNL     1       2.132  -1.146  -1.893  0.00  0.00    +0.000 A 
ATOM     18  C   UNL     1       1.754  -1.153  -0.566  0.00  0.00    +0.000 A 
ATOM     19  C   UNL     1       2.635  -1.749   0.331  0.00  0.00    +0.000 A 
ATOM     20  C   UNL     1       3.821  -2.304  -0.068  0.00  0.00    +0.000 A 
BRANCH  15  21
ATOM     21  O   UNL     1       5.362  -2.829  -1.866  0.00  0.00    +0.000 OA
BRANCH  21  23
ATOM     22  C   UNL     1       6.777  -2.435   0.030  0.00  0.00    +0.000 C 
ATOM     23  C   UNL     1       6.301  -3.449  -1.008  0.00  0.00    +0.000 C 
ENDBRANCH  21  23
ENDBRANCH  15  21
ENDBRANCH   1  18
BRANCH   4  24
ATOM     24  C   UNL     1      -3.064  -0.302   0.537  0.00  0.00    +0.000 C 
ATOM     25  O   UNL     1      -3.674   0.676   1.005  0.00  0.00    +0.000 OA
BRANCH  24  26
ATOM     26  O   UNL     1      -3.774  -1.399   0.238  0.00  0.00    +0.000 OA
BRANCH  26  27
ATOM     27  C   UNL     1      -4.985  -1.854   0.256  0.00  0.00    +0.000 C 
BRANCH  27  28
ATOM     28  C   UNL     1      -6.129  -1.185  -0.649  0.00  0.00    +0.000 C 
ATOM     29  C   UNL     1      -6.054   0.293   0.028  0.00  0.00    +0.000 C 
BRANCH  28  30
ATOM     30  C   UNL     1      -5.208  -0.760  -1.950  0.00  0.00    +0.000 C 
ATOM     31  C   UNL     1      -4.690  -2.109  -2.382  0.00  0.00    +0.000 C 
ENDBRANCH  28  30
ENDBRANCH  27  28
ENDBRANCH  26  27
ENDBRANCH  24  26
ENDBRANCH   4  24
TORSDOF 8
