REMARK  Name = 
REMARK  8 active torsions:
REMARK  status: ('A' for Active; 'I' for Inactive)
REMARK    1  A    between atoms: C_2  and  N_3
REMARK    2  A    between atoms: N_3  and  C_4
REMARK    3  A    between atoms: N_3  and  C_6
REMARK    4  A    between atoms: C_9  and  N_10
REMARK    5  A    between atoms: C_11  and  C_13
REMARK    6  A    between atoms: C_13  and  C_15
REMARK    7  A    between atoms: C_19  and  C_20
REMARK    8  A    between atoms: C_20  and  C_22
REMARK                            x       y       z     vdW  Elec       q    Type
REMARK                         _______ _______ _______ _____ _____    ______ ____
ROOT
ATOM      1  C   UNL     1       0.354   2.861  -0.496  0.00  0.00    +0.000 C 
ATOM      2  C   UNL     1       0.225   2.908  -2.152  0.00  0.00    +0.000 C 
ENDROOT
BRANCH   1   3
ATOM      3  C   UNL     1       1.758   2.218  -0.445  0.00  0.00    +0.000 A 
ATOM      4  C   UNL     1       2.794   3.050  -0.947  0.00  0.00    +0.000 A 
ATOM      5  C   UNL     1       4.086   2.604  -0.928  0.00  0.00    +0.000 A 
ATOM      6  C   UNL     1       4.364   1.353  -0.422  0.00  0.00    +0.000 A 
ATOM      7  C   UNL     1       3.341   0.533   0.071  0.00  0.00    +0.000 A 
ATOM      8  C   UNL     1       2.081   1.024   0.028  0.00  0.00    +0.000 A 
BRANCH   7   9
ATOM      9  C   UNL     1       3.750  -0.776   0.596  0.00  0.00    +0.000 C 
ATOM     10  O   UNL     1       2.946  -1.435   1.272  0.00  0.00    +0.000 OA
BRANCH   9  11
ATOM     11  C   UNL     1       5.084  -1.297   0.332  0.00  0.00    +0.000 A 
ATOM     12  C   UNL     1       5.953  -0.533  -0.418  0.00  0.00    +0.000 A 
ATOM     13  C   UNL     1       7.241  -0.897  -0.738  0.00  0.00    +0.000 A 
ATOM     14  C   UNL     1       7.704  -2.121  -0.272  0.00  0.00    +0.000 A 
ATOM     15  C   UNL     1       6.842  -2.883   0.475  0.00  0.00    +0.000 A 
ATOM     16  C   UNL     1       5.544  -2.497   0.785  0.00  0.00    +0.000 A 
ENDBRANCH   9  11
ENDBRANCH   7   9
ENDBRANCH   1   3
BRANCH   1  18
ATOM     17  N   UNL     1      -1.933   1.806  -0.200  0.00  0.00    +0.000 NA
ATOM     18  C   UNL     1      -0.547   1.577  -0.328  0.00  0.00    +0.000 C 
ATOM     19  O   UNL     1      -0.108   0.444  -0.306  0.00  0.00    +0.000 OA
BRANCH  17  23
ATOM     20  C   UNL     1      -5.037  -1.021   0.364  0.00  0.00    +0.000 A 
ATOM     21  C   UNL     1      -3.717  -1.470   0.205  0.00  0.00    +0.000 A 
ATOM     22  C   UNL     1      -2.714  -0.554   0.016  0.00  0.00    +0.000 A 
ATOM     23  C   UNL     1      -2.885   0.804  -0.034  0.00  0.00    +0.000 A 
ATOM     24  C   UNL     1      -4.202   1.229   0.123  0.00  0.00    +0.000 A 
ATOM     25  C   UNL     1      -4.473   2.694   0.072  0.00  0.00    +0.000 C 
ATOM     26  C   UNL     1      -5.229   0.336   0.314  0.00  0.00    +0.000 A 
BRANCH  20  27
ATOM     27  N   UNL     1      -6.104  -1.907   0.597  0.00  0.00    +0.000 N 
BRANCH  27  29
ATOM     28  C   UNL     1      -8.207  -1.920  -0.513  0.00  0.00    +0.000 C 
ATOM     29  C   UNL     1      -6.814  -2.512  -0.484  0.00  0.00    +0.000 C 
ENDBRANCH  27  29
BRANCH  27  30
ATOM     30  C   UNL     1      -6.493  -2.190   1.955  0.00  0.00    +0.000 C 
ATOM     31  C   UNL     1      -5.602  -1.427   2.901  0.00  0.00    +0.000 C 
ENDBRANCH  27  30
ENDBRANCH  20  27
ENDBRANCH  17  23
ENDBRANCH   1  18
TORSDOF 8
