REMARK  Name = 
REMARK  10 active torsions:
REMARK  status: ('A' for Active; 'I' for Inactive)
REMARK    1  A    between atoms: N_2  and  C_4
REMARK    2  A    between atoms: C_4  and  C_5
REMARK    3  A    between atoms: C_5  and  C_6
REMARK    4  A    between atoms: C_6  and  N_7
REMARK    5  A    between atoms: N_7  and  C_8
REMARK    6  A    between atoms: C_9  and  S_10
REMARK    7  A    between atoms: S_10  and  C_11
REMARK    8  A    between atoms: C_11  and  C_12
REMARK    9  A    between atoms: N_20  and  C_21
REMARK   10  A    between atoms: C_21  and  C_22
REMARK                            x       y       z     vdW  Elec       q    Type
REMARK                         _______ _______ _______ _____ _____    ______ ____
ROOT
ATOM      1  C   UNL     1      -0.056   0.538  -0.544  0.00  0.00    +0.000 A 
ATOM      2  C   UNL     1       0.764   0.073   0.459  0.00  0.00    +0.000 A 
ATOM      3  C   UNL     1       0.667  -1.258   0.801  0.00  0.00    +0.000 A 
ATOM      4  N   UNL     1      -0.210  -2.079   0.167  0.00  0.00    +0.000 NA
ATOM      5  N   UNL     1      -0.985  -1.607  -0.791  0.00  0.00    +0.000 N 
ATOM      6  C   UNL     1      -0.917  -0.327  -1.147  0.00  0.00    +0.000 A 
ATOM      7  O   UNL     1      -1.693   0.062  -2.079  0.00  0.00    +0.000 OA
ENDROOT
BRANCH   1   8
ATOM      8  N   UNL     1       0.001   1.886  -0.932  0.00  0.00    +0.000 NA
BRANCH   8   9
ATOM      9  C   UNL     1       0.913   2.840  -0.298  0.00  0.00    +0.000 C 
BRANCH   9  10
ATOM     10  C   UNL     1       0.779   4.207  -0.907  0.00  0.00    +0.000 C 
BRANCH  10  11
ATOM     11  C   UNL     1      -0.588   4.797  -0.786  0.00  0.00    +0.000 C 
BRANCH  11  13
ATOM     12  C   UNL     1      -1.289   3.720   1.257  0.00  0.00    +0.000 C 
ATOM     13  N   UNL     1      -1.042   4.964   0.572  0.00  0.00    +0.000 NA
ATOM     14  C   UNL     1      -2.158   5.880   0.623  0.00  0.00    +0.000 C 
ENDBRANCH  11  13
ENDBRANCH  10  11
ENDBRANCH   9  10
ENDBRANCH   8   9
ENDBRANCH   1   8
BRANCH   2  15
ATOM     15  S   UNL     1       1.908   1.166   1.277  0.00  0.00    +0.000 S 
BRANCH  15  16
ATOM     16  C   UNL     1       3.503   1.177   0.433  0.00  0.00    +0.000 C 
BRANCH  16  17
ATOM     17  C   UNL     1       4.198  -0.133   0.524  0.00  0.00    +0.000 A 
ATOM     18  C   UNL     1       3.990  -1.109  -0.449  0.00  0.00    +0.000 A 
ATOM     19  C   UNL     1       4.615  -2.339  -0.403  0.00  0.00    +0.000 A 
ATOM     20  C   UNL     1       5.467  -2.585   0.647  0.00  0.00    +0.000 A 
ATOM     21  C   UNL     1       5.704  -1.665   1.622  0.00  0.00    +0.000 A 
ATOM     22  C   UNL     1       5.056  -0.443   1.539  0.00  0.00    +0.000 A 
ENDBRANCH  16  17
ENDBRANCH  15  16
ENDBRANCH   2  15
BRANCH   5  23
ATOM     23  C   UNL     1      -1.919  -2.514  -1.453  0.00  0.00    +0.000 C 
BRANCH  23  24
ATOM     24  C   UNL     1      -3.224  -2.519  -0.737  0.00  0.00    +0.000 A 
ATOM     25  C   UNL     1      -4.238  -1.643  -1.056  0.00  0.00    +0.000 A 
ATOM     26  C   UNL     1      -5.453  -1.665  -0.372  0.00  0.00    +0.000 A 
ATOM     27  C   UNL     1      -5.679  -2.566   0.647  0.00  0.00    +0.000 A 
ATOM     28  C   UNL     1      -4.660  -3.440   0.962  0.00  0.00    +0.000 A 
ATOM     29  C   UNL     1      -3.457  -3.419   0.286  0.00  0.00    +0.000 A 
ENDBRANCH  23  24
ENDBRANCH   5  23
TORSDOF 10
