REMARK  Name = 
REMARK  7 active torsions:
REMARK  status: ('A' for Active; 'I' for Inactive)
REMARK    1  A    between atoms: C_2  and  C_3
REMARK    2  A    between atoms: C_6  and  N_7
REMARK    3  A    between atoms: N_7  and  C_8
REMARK    4  A    between atoms: C_9  and  S_10
REMARK    5  A    between atoms: S_10  and  C_11
REMARK    6  A    between atoms: N_20  and  C_21
REMARK    7  A    between atoms: C_21  and  C_22
REMARK                            x       y       z     vdW  Elec       q    Type
REMARK                         _______ _______ _______ _____ _____    ______ ____
ROOT
ATOM      1  C   UNL     1       0.435  -1.225  -0.379  0.00  0.00    +0.000 C 
ATOM      2  C   UNL     1       0.017   0.042  -0.193  0.00  0.00    +0.000 C 
ATOM      3  C   UNL     1       1.024   0.694   0.630  0.00  0.00    +0.000 C 
ATOM      4  O   UNL     1       1.038   1.870   1.041  0.00  0.00    +0.000 OA
ATOM      5  N   UNL     1       2.083  -0.232   0.942  0.00  0.00    +0.000 N 
ATOM      6  C   UNL     1       1.691  -1.429   0.298  0.00  0.00    +0.000 C 
ATOM      7  O   UNL     1       2.329  -2.519   0.304  0.00  0.00    +0.000 OA
ENDROOT
BRANCH   1   8
ATOM      8  N   UNL     1      -0.251  -2.219  -1.128  0.00  0.00    +0.000 NA
BRANCH   8  12
ATOM      9  C   UNL     1      -3.652  -4.056   0.654  0.00  0.00    +0.000 A 
ATOM     10  C   UNL     1      -2.929  -3.082   1.313  0.00  0.00    +0.000 A 
ATOM     11  C   UNL     1      -1.826  -2.484   0.739  0.00  0.00    +0.000 A 
ATOM     12  C   UNL     1      -1.397  -2.835  -0.523  0.00  0.00    +0.000 A 
ATOM     13  C   UNL     1      -2.122  -3.813  -1.185  0.00  0.00    +0.000 A 
ATOM     14  C   UNL     1      -3.226  -4.412  -0.611  0.00  0.00    +0.000 A 
BRANCH   9  16
ATOM     15  C   UNL     1      -6.094  -3.906   0.933  0.00  0.00    +0.000 C 
ATOM     16  C   UNL     1      -4.842  -4.695   1.284  0.00  0.00    +0.000 C 
ENDBRANCH   9  16
ENDBRANCH   8  12
ENDBRANCH   1   8
BRANCH   2  17
ATOM     17  S   UNL     1      -1.498   0.661  -0.882  0.00  0.00    +0.000 S 
BRANCH  17  18
ATOM     18  C   UNL     1      -1.849   2.339  -0.515  0.00  0.00    +0.000 A 
ATOM     19  C   UNL     1      -1.097   3.195   0.226  0.00  0.00    +0.000 A 
ATOM     20  C   UNL     1      -1.474   4.508   0.452  0.00  0.00    +0.000 A 
ATOM     21  C   UNL     1      -2.655   5.008  -0.079  0.00  0.00    +0.000 A 
ATOM     22  C   UNL     1      -3.007   6.417   0.194  0.00  0.00    +0.000 C 
ATOM     23  C   UNL     1      -3.417   4.148  -0.828  0.00  0.00    +0.000 A 
ATOM     24  C   UNL     1      -3.041   2.853  -1.048  0.00  0.00    +0.000 A 
ENDBRANCH  17  18
ENDBRANCH   2  17
BRANCH   5  25
ATOM     25  C   UNL     1       3.282  -0.030   1.725  0.00  0.00    +0.000 C 
BRANCH  25  26
ATOM     26  C   UNL     1       4.371   0.434   0.829  0.00  0.00    +0.000 A 
ATOM     27  C   UNL     1       5.604   0.686   1.382  0.00  0.00    +0.000 A 
ATOM     28  C   UNL     1       6.644   1.119   0.589  0.00  0.00    +0.000 A 
ATOM     29  C   UNL     1       6.459   1.303  -0.764  0.00  0.00    +0.000 A 
ATOM     30  C   UNL     1       5.226   1.046  -1.285  0.00  0.00    +0.000 A 
ATOM     31  C   UNL     1       4.172   0.614  -0.519  0.00  0.00    +0.000 A 
ENDBRANCH  25  26
ENDBRANCH   5  25
TORSDOF 7
