REMARK  Name = 
REMARK  6 active torsions:
REMARK  status: ('A' for Active; 'I' for Inactive)
REMARK    1  A    between atoms: C_9  and  C_10
REMARK    2  A    between atoms: C_16  and  C_17
REMARK    3  A    between atoms: N_23  and  C_24
REMARK    4  A    between atoms: C_24  and  C_25
REMARK    5  A    between atoms: C_25  and  C_27
REMARK    6  A    between atoms: C_27  and  N_28
REMARK                            x       y       z     vdW  Elec       q    Type
REMARK                         _______ _______ _______ _____ _____    ______ ____
ROOT
ATOM      1  C   UNL     1      -1.499  -5.341   1.718  0.00  0.00    +0.000 C 
ATOM      2  C   UNL     1      -0.980  -4.074   1.142  0.00  0.00    +0.000 A 
ATOM      3  C   UNL     1       0.350  -3.997   0.785  0.00  0.00    +0.000 A 
ATOM      4  C   UNL     1       0.814  -2.808   0.251  0.00  0.00    +0.000 A 
ATOM      5  C   UNL     1       2.236  -2.632  -0.164  0.00  0.00    +0.000 C 
ATOM      6  C   UNL     1      -0.019  -1.723   0.075  0.00  0.00    +0.000 A 
ATOM      7  C   UNL     1      -1.355  -1.850   0.451  0.00  0.00    +0.000 A 
ATOM      8  C   UNL     1      -1.863  -3.027   0.992  0.00  0.00    +0.000 A 
ATOM      9  C   UNL     1      -1.954  -0.637   0.171  0.00  0.00    +0.000 A 
ATOM     10  C   UNL     1      -0.989   0.187  -0.359  0.00  0.00    +0.000 A 
ATOM     11  N   UNL     1       0.177  -0.462  -0.419  0.00  0.00    +0.000 N 
ENDROOT
BRANCH   9  12
ATOM     12  C   UNL     1      -3.363  -0.369   0.426  0.00  0.00    +0.000 A 
ATOM     13  C   UNL     1      -3.796   0.599   1.308  0.00  0.00    +0.000 A 
ATOM     14  C   UNL     1      -5.168   0.800   1.502  0.00  0.00    +0.000 A 
ATOM     15  C   UNL     1      -6.119   0.065   0.843  0.00  0.00    +0.000 A 
ATOM     16  C   UNL     1      -5.679  -0.890  -0.028  0.00  0.00    +0.000 A 
ATOM     17  C   UNL     1      -4.338  -1.089  -0.220  0.00  0.00    +0.000 A 
ENDBRANCH   9  12
BRANCH  10  18
ATOM     18  C   UNL     1      -1.232   1.551  -0.802  0.00  0.00    +0.000 A 
ATOM     19  C   UNL     1      -1.752   2.505   0.039  0.00  0.00    +0.000 A 
ATOM     20  C   UNL     1      -1.992   3.781  -0.334  0.00  0.00    +0.000 A 
ATOM     21  C   UNL     1      -1.717   4.184  -1.603  0.00  0.00    +0.000 A 
ATOM     22  C   UNL     1      -1.197   3.276  -2.487  0.00  0.00    +0.000 A 
ATOM     23  C   UNL     1      -0.951   1.964  -2.101  0.00  0.00    +0.000 A 
ENDBRANCH  10  18
BRANCH  11  24
ATOM     24  C   UNL     1       1.449  -0.003  -0.892  0.00  0.00    +0.000 C 
BRANCH  24  25
ATOM     25  C   UNL     1       2.284   0.609   0.365  0.00  0.00    +0.000 C 
ATOM     26  O   UNL     1       1.264   1.665   0.676  0.00  0.00    +0.000 OA
BRANCH  25  27
ATOM     27  C   UNL     1       3.176   1.606  -0.579  0.00  0.00    +0.000 C 
BRANCH  27  28
ATOM     28  N   UNL     1       4.290   0.783  -1.034  0.00  0.00    +0.000 NA
ATOM     29  C   UNL     1       5.150   1.565  -1.885  0.00  0.00    +0.000 C 
ATOM     30  C   UNL     1       6.577   1.008  -1.861  0.00  0.00    +0.000 C 
ATOM     31  C   UNL     1       7.167   1.225  -0.455  0.00  0.00    +0.000 C 
ATOM     32  C   UNL     1       6.027   1.278   0.561  0.00  0.00    +0.000 C 
ATOM     33  C   UNL     1       5.001   0.249   0.109  0.00  0.00    +0.000 C 
ENDBRANCH  27  28
ENDBRANCH  25  27
ENDBRANCH  24  25
ENDBRANCH  11  24
TORSDOF 6
