REMARK  Name = 
REMARK  6 active torsions:
REMARK  status: ('A' for Active; 'I' for Inactive)
REMARK    1  A    between atoms: C_2  and  O_3
REMARK    2  A    between atoms: O_3  and  C_4
REMARK    3  A    between atoms: C_8  and  C_9
REMARK    4  A    between atoms: C_19  and  O_20
REMARK    5  A    between atoms: O_20  and  C_21
REMARK    6  A    between atoms: C_21  and  C_22
REMARK                            x       y       z     vdW  Elec       q    Type
REMARK                         _______ _______ _______ _____ _____    ______ ____
ROOT
ATOM      1  C   UNL     1       2.553  -0.361  -2.005  0.00  0.00    +0.000 C 
ATOM      2  N   UNL     1       2.522  -1.869  -1.472  0.00  0.00    +0.000 NA
ATOM      3  C   UNL     1       2.732  -1.899  -0.115  0.00  0.00    +0.000 C 
ATOM      4  C   UNL     1       1.615  -1.353   0.702  0.00  0.00    +0.000 C 
ATOM      5  C   UNL     1       0.782  -0.497  -0.183  0.00  0.00    +0.000 A 
ATOM      6  C   UNL     1       1.105  -0.020  -1.372  0.00  0.00    +0.000 A 
ATOM      7  N   UNL     1       0.144   0.706  -1.897  0.00  0.00    +0.000 NA
ATOM      8  C   UNL     1      -0.868   0.711  -1.012  0.00  0.00    +0.000 A 
ATOM      9  C   UNL     1      -2.135   1.300  -1.006  0.00  0.00    +0.000 A 
ATOM     10  C   UNL     1      -2.995   1.139   0.059  0.00  0.00    +0.000 A 
ATOM     11  C   UNL     1      -2.639   0.392   1.159  0.00  0.00    +0.000 A 
ATOM     12  C   UNL     1      -1.375  -0.191   1.144  0.00  0.00    +0.000 A 
ATOM     13  C   UNL     1      -0.498  -0.041   0.085  0.00  0.00    +0.000 A 
ENDROOT
BRANCH   1  18
ATOM     14  C   UNL     1       5.252   0.277   0.604  0.00  0.00    +0.000 A 
ATOM     15  C   UNL     1       4.873   1.514   1.090  0.00  0.00    +0.000 A 
ATOM     16  C   UNL     1       3.757   2.138   0.586  0.00  0.00    +0.000 A 
ATOM     17  C   UNL     1       3.028   1.490  -0.422  0.00  0.00    +0.000 A 
ATOM     18  C   UNL     1       3.434   0.290  -0.864  0.00  0.00    +0.000 A 
ATOM     19  C   UNL     1       4.520  -0.359  -0.400  0.00  0.00    +0.000 A 
BRANCH  14  20
ATOM     20  O   UNL     1       6.374  -0.344   1.114  0.00  0.00    +0.000 OA
BRANCH  20  22
ATOM     21  C   UNL     1       7.046  -1.495  -0.868  0.00  0.00    +0.000 C 
ATOM     22  C   UNL     1       6.764  -1.602   0.622  0.00  0.00    +0.000 C 
ENDBRANCH  20  22
ENDBRANCH  14  20
ENDBRANCH   1  18
BRANCH  11  23
ATOM     23  O   UNL     1      -3.498   0.225   2.235  0.00  0.00    +0.000 OA
BRANCH  23  24
ATOM     24  C   UNL     1      -4.767   0.839   2.185  0.00  0.00    +0.000 C 
BRANCH  24  25
ATOM     25  C   UNL     1      -5.535   0.316   1.030  0.00  0.00    +0.000 A 
ATOM     26  C   UNL     1      -6.729   0.916   0.657  0.00  0.00    +0.000 A 
ATOM     27  C   UNL     1      -7.465   0.441  -0.412  0.00  0.00    +0.000 A 
ATOM     28  C   UNL     1      -7.041  -0.640  -1.142  0.00  0.00    +0.000 A 
ATOM     29  C   UNL     1      -5.840  -1.255  -0.778  0.00  0.00    +0.000 A 
ATOM     30  C   UNL     1      -5.117  -0.769   0.291  0.00  0.00    +0.000 A 
ENDBRANCH  24  25
ENDBRANCH  23  24
ENDBRANCH  11  23
TORSDOF 6
