REMARK  Name = 
REMARK  6 active torsions:
REMARK  status: ('A' for Active; 'I' for Inactive)
REMARK    1  A    between atoms: C_2  and  C_3
REMARK    2  A    between atoms: C_5  and  C_6
REMARK    3  A    between atoms: C_15  and  O_16
REMARK    4  A    between atoms: O_16  and  C_17
REMARK    5  A    between atoms: C_17  and  C_18
REMARK    6  A    between atoms: C_22  and  C_23
REMARK                            x       y       z     vdW  Elec       q    Type
REMARK                         _______ _______ _______ _____ _____    ______ ____
ROOT
ATOM      1  C   UNL     1      -4.715   0.493  -2.702  0.00  0.00    +0.000 A 
ATOM      2  C   UNL     1      -5.074   0.804  -1.399  0.00  0.00    +0.000 A 
ATOM      3  C   UNL     1      -4.223   0.574  -0.335  0.00  0.00    +0.000 A 
ATOM      4  C   UNL     1      -2.984   0.023  -0.554  0.00  0.00    +0.000 A 
ATOM      5  C   UNL     1      -2.110  -0.229   0.478  0.00  0.00    +0.000 A 
ATOM      6  C   UNL     1      -0.855  -0.797   0.235  0.00  0.00    +0.000 A 
ATOM      7  C   UNL     1      -0.438  -1.127  -1.020  0.00  0.00    +0.000 A 
ATOM      8  C   UNL     1      -1.348  -0.859  -2.051  0.00  0.00    +0.000 A 
ATOM      9  C   UNL     1      -2.579  -0.305  -1.839  0.00  0.00    +0.000 A 
ATOM     10  C   UNL     1      -3.472  -0.054  -2.883  0.00  0.00    +0.000 A 
ENDROOT
BRANCH   3  11
ATOM     11  C   UNL     1      -4.691   0.883   1.018  0.00  0.00    +0.000 A 
ATOM     12  C   UNL     1      -6.048   0.723   1.278  0.00  0.00    +0.000 A 
ATOM     13  C   UNL     1      -6.526   0.955   2.540  0.00  0.00    +0.000 A 
ATOM     14  C   UNL     1      -5.661   1.341   3.527  0.00  0.00    +0.000 A 
ATOM     15  C   UNL     1      -4.290   1.510   3.293  0.00  0.00    +0.000 A 
ATOM     16  C   UNL     1      -3.830   1.270   2.012  0.00  0.00    +0.000 A 
ENDBRANCH   3  11
BRANCH   1  18
ATOM     17  O   UNL     1      -6.438  -0.456  -3.907  0.00  0.00    +0.000 OA
ATOM     18  C   UNL     1      -5.703   0.750  -3.764  0.00  0.00    +0.000 C 
ENDBRANCH   1  18
BRANCH   7  19
ATOM     19  O   UNL     1       0.783  -1.691  -1.292  0.00  0.00    +0.000 OA
BRANCH  19  20
ATOM     20  C   UNL     1       1.834  -2.080  -0.593  0.00  0.00    +0.000 C 
BRANCH  20  21
ATOM     21  C   UNL     1       2.637  -1.195   0.223  0.00  0.00    +0.000 A 
ATOM     22  C   UNL     1       2.186  -0.873   1.515  0.00  0.00    +0.000 A 
ATOM     23  C   UNL     1       2.960  -0.062   2.325  0.00  0.00    +0.000 A 
ATOM     24  C   UNL     1       4.146   0.409   1.861  0.00  0.00    +0.000 A 
ATOM     25  C   UNL     1       4.606   0.105   0.599  0.00  0.00    +0.000 A 
ATOM     26  C   UNL     1       3.866  -0.692  -0.230  0.00  0.00    +0.000 A 
BRANCH  25  27
ATOM     27  C   UNL     1       5.930   0.649   0.175  0.00  0.00    +0.000 C 
ATOM     28  O   UNL     1       5.754   1.781  -0.632  0.00  0.00    +0.000 OA
ATOM     29  C   UNL     1       6.646  -0.367  -0.653  0.00  0.00    +0.000 C 
ATOM     30  C   UNL     1       7.244  -1.504   0.122  0.00  0.00    +0.000 C 
ATOM     31  O   UNL     1       7.596  -1.172   1.420  0.00  0.00    +0.000 OA
ATOM     32  C   UNL     1       8.023   0.168   1.435  0.00  0.00    +0.000 C 
ATOM     33  C   UNL     1       6.776   1.023   1.360  0.00  0.00    +0.000 C 
ENDBRANCH  25  27
ENDBRANCH  20  21
ENDBRANCH  19  20
ENDBRANCH   7  19
TORSDOF 6
