REMARK  Name = 
REMARK  8 active torsions:
REMARK  status: ('A' for Active; 'I' for Inactive)
REMARK    1  A    between atoms: C_2  and  N_3
REMARK    2  A    between atoms: C_12  and  N_13
REMARK    3  A    between atoms: C_14  and  C_16
REMARK    4  A    between atoms: C_16  and  O_17
REMARK    5  A    between atoms: O_17  and  C_18
REMARK    6  A    between atoms: C_18  and  C_20
REMARK    7  A    between atoms: C_20  and  C_21
REMARK    8  A    between atoms: C_21  and  C_22
REMARK                            x       y       z     vdW  Elec       q    Type
REMARK                         _______ _______ _______ _____ _____    ______ ____
ROOT
ATOM      1  N   UNL     1      -5.242   0.279   0.935  0.00  0.00    +0.000 N 
ATOM      2  C   UNL     1      -5.134  -0.852   0.202  0.00  0.00    +0.000 A 
ATOM      3  C   UNL     1      -6.072  -1.745  -0.281  0.00  0.00    +0.000 A 
ATOM      4  C   UNL     1      -5.665  -2.835  -1.015  0.00  0.00    +0.000 A 
ATOM      5  C   UNL     1      -4.318  -3.003  -1.249  0.00  0.00    +0.000 A 
ATOM      6  C   UNL     1      -3.394  -2.104  -0.762  0.00  0.00    +0.000 A 
ATOM      7  C   UNL     1      -3.784  -1.005  -0.023  0.00  0.00    +0.000 A 
ATOM      8  C   UNL     1      -3.077   0.023   0.567  0.00  0.00    +0.000 A 
ATOM      9  C   UNL     1      -1.727   0.347   0.648  0.00  0.00    +0.000 A 
ATOM     10  C   UNL     1      -1.293   1.470   1.325  0.00  0.00    +0.000 A 
ATOM     11  C   UNL     1      -2.249   2.266   1.924  0.00  0.00    +0.000 A 
ATOM     12  C   UNL     1      -3.586   1.938   1.840  0.00  0.00    +0.000 A 
ATOM     13  C   UNL     1      -4.031   0.819   1.166  0.00  0.00    +0.000 A 
ENDROOT
BRANCH  10  14
ATOM     14  N   UNL     1       0.094   1.814   1.416  0.00  0.00    +0.000 NA
ATOM     15  C   UNL     1       1.030   0.956   0.777  0.00  0.00    +0.000 C 
ATOM     16  O   UNL     1       0.673  -0.072   0.151  0.00  0.00    +0.000 OA
BRANCH  15  17
ATOM     17  C   UNL     1       2.477   1.270   0.844  0.00  0.00    +0.000 C 
BRANCH  17  18
ATOM     18  O   UNL     1       3.237   0.309   0.142  0.00  0.00    +0.000 OA
BRANCH  18  19
ATOM     19  C   UNL     1       3.080   0.079  -1.204  0.00  0.00    +0.000 C 
ATOM     20  O   UNL     1       2.199   0.788  -1.801  0.00  0.00    +0.000 OA
BRANCH  19  21
ATOM     21  C   UNL     1       3.801  -0.883  -2.033  0.00  0.00    +0.000 C 
BRANCH  21  22
ATOM     22  C   UNL     1       4.842  -1.687  -1.341  0.00  0.00    +0.000 C 
BRANCH  22  23
ATOM     23  C   UNL     1       5.928  -0.887  -0.740  0.00  0.00    +0.000 A 
ATOM     24  C   UNL     1       5.833  -0.455   0.544  0.00  0.00    +0.000 A 
ATOM     25  C   UNL     1       6.826   0.293   1.140  0.00  0.00    +0.000 A 
ATOM     26  C   UNL     1       7.944   0.600   0.385  0.00  0.00    +0.000 A 
ATOM     27  C   UNL     1       8.084   0.190  -0.906  0.00  0.00    +0.000 A 
ATOM     28  C   UNL     1       7.072  -0.557  -1.472  0.00  0.00    +0.000 A 
ENDBRANCH  22  23
ENDBRANCH  21  22
ENDBRANCH  19  21
ENDBRANCH  18  19
ENDBRANCH  17  18
ENDBRANCH  15  17
ENDBRANCH  10  14
BRANCH   1  30
ATOM     29  C   UNL     1      -7.051   1.805   0.376  0.00  0.00    +0.000 C 
ATOM     30  C   UNL     1      -6.498   0.840   1.411  0.00  0.00    +0.000 C 
ENDBRANCH   1  30
TORSDOF 8
