REMARK  Name = 
REMARK  6 active torsions:
REMARK  status: ('A' for Active; 'I' for Inactive)
REMARK    1  A    between atoms: C_2  and  C_3
REMARK    2  A    between atoms: C_3  and  C_5
REMARK    3  A    between atoms: C_8  and  N_9
REMARK    4  A    between atoms: C_10  and  C_12
REMARK    5  A    between atoms: C_16  and  C_17
REMARK    6  A    between atoms: C_20  and  O_21
REMARK                            x       y       z     vdW  Elec       q    Type
REMARK                         _______ _______ _______ _____ _____    ______ ____
ROOT
ATOM      1  C   UNL     1      -0.743   0.450  -0.172  0.00  0.00    +0.000 A 
ATOM      2  S   UNL     1       0.356  -0.659   0.513  0.00  0.00    +0.000 S 
ATOM      3  C   UNL     1       1.825   0.087   0.050  0.00  0.00    +0.000 A 
ATOM      4  N   UNL     1       3.149  -0.230   0.244  0.00  0.00    +0.000 NA
ATOM      5  C   UNL     1       4.151   0.526  -0.224  0.00  0.00    +0.000 A 
ATOM      6  C   UNL     1       3.754   1.644  -0.915  0.00  0.00    +0.000 A 
ATOM      7  C   UNL     1       2.455   2.004  -1.137  0.00  0.00    +0.000 A 
ATOM      8  C   UNL     1       1.408   1.187  -0.630  0.00  0.00    +0.000 A 
ATOM      9  C   UNL     1       0.062   1.377  -0.746  0.00  0.00    +0.000 A 
ATOM     10  N   UNL     1      -0.559   2.509  -1.446  0.00  0.00    +0.000 NA
ENDROOT
BRANCH   5  11
ATOM     11  C   UNL     1       5.555   0.185  -0.015  0.00  0.00    +0.000 A 
ATOM     12  C   UNL     1       6.578   0.973  -0.503  0.00  0.00    +0.000 A 
ATOM     13  C   UNL     1       7.900   0.696  -0.333  0.00  0.00    +0.000 A 
ATOM     14  C   UNL     1       8.230  -0.443   0.371  0.00  0.00    +0.000 A 
ATOM     15  C   UNL     1       7.255  -1.274   0.886  0.00  0.00    +0.000 A 
ATOM     16  C   UNL     1       5.939  -0.945   0.684  0.00  0.00    +0.000 A 
BRANCH  14  17
ATOM     17  O   UNL     1       9.567  -0.806   0.594  0.00  0.00    +0.000 OA
ATOM     18  C   UNL     1      10.608   0.014   0.085  0.00  0.00    +0.000 C 
ENDBRANCH  14  17
ENDBRANCH   5  11
BRANCH   1  20
ATOM     19  N   UNL     1      -2.888  -0.672   0.525  0.00  0.00    +0.000 NA
ATOM     20  C   UNL     1      -2.203   0.375  -0.123  0.00  0.00    +0.000 C 
ATOM     21  O   UNL     1      -2.861   1.274  -0.679  0.00  0.00    +0.000 OA
BRANCH  19  25
ATOM     22  C   UNL     1      -7.114  -0.901   0.671  0.00  0.00    +0.000 A 
ATOM     23  C   UNL     1      -6.356  -1.844   1.254  0.00  0.00    +0.000 A 
ATOM     24  C   UNL     1      -4.955  -1.770   1.206  0.00  0.00    +0.000 A 
ATOM     25  C   UNL     1      -4.318  -0.733   0.564  0.00  0.00    +0.000 A 
ATOM     26  C   UNL     1      -5.104   0.228  -0.029  0.00  0.00    +0.000 A 
ATOM     27  C   UNL     1      -6.505   0.144   0.024  0.00  0.00    +0.000 A 
BRANCH  22  28
ATOM     28  C   UNL     1      -8.693  -0.951   0.709  0.00  0.00    +0.000 C 
ATOM     29  C   UNL     1      -8.816  -2.588   0.536  0.00  0.00    +0.000 C 
BRANCH  28  31
ATOM     30  C   UNL     1      -8.801   0.826  -1.056  0.00  0.00    +0.000 C 
ATOM     31  C   UNL     1      -8.877  -0.682  -0.909  0.00  0.00    +0.000 C 
ENDBRANCH  28  31
ENDBRANCH  22  28
ENDBRANCH  19  25
ENDBRANCH   1  20
TORSDOF 6
