REMARK  Name = 
REMARK  8 active torsions:
REMARK  status: ('A' for Active; 'I' for Inactive)
REMARK    1  A    between atoms: C_7  and  S_8
REMARK    2  A    between atoms: S_8  and  C_9
REMARK    3  A    between atoms: C_9  and  C_11
REMARK    4  A    between atoms: N_13  and  N_14
REMARK    5  A    between atoms: C_15  and  C_16
REMARK    6  A    between atoms: C_19  and  O_20
REMARK    7  A    between atoms: O_20  and  C_21
REMARK    8  A    between atoms: C_21  and  C_22
REMARK                            x       y       z     vdW  Elec       q    Type
REMARK                         _______ _______ _______ _____ _____    ______ ____
ROOT
ATOM      1  N   UNL     1      -0.175   1.807   0.133  0.00  0.00    +0.000 NA
ATOM      2  C   UNL     1       0.979   1.791   0.205  0.00  0.00    +0.000 C 
ENDROOT
BRANCH   2   3
ATOM      3  C   UNL     1       2.205   1.313   0.709  0.00  0.00    +0.000 A 
ATOM      4  C   UNL     1       3.443   1.815   0.308  0.00  0.00    +0.000 A 
ATOM      5  C   UNL     1       4.628   1.341   0.809  0.00  0.00    +0.000 A 
ATOM      6  C   UNL     1       4.671   0.335   1.743  0.00  0.00    +0.000 A 
ATOM      7  C   UNL     1       3.445  -0.185   2.161  0.00  0.00    +0.000 A 
ATOM      8  C   UNL     1       2.267   0.302   1.649  0.00  0.00    +0.000 A 
BRANCH   6   9
ATOM      9  O   UNL     1       5.822  -0.186   2.286  0.00  0.00    +0.000 OA
BRANCH   9  10
ATOM     10  C   UNL     1       7.138   0.210   1.986  0.00  0.00    +0.000 C 
BRANCH  10  11
ATOM     11  C   UNL     1       7.407  -0.003   0.548  0.00  0.00    +0.000 A 
ATOM     12  C   UNL     1       7.238   1.021  -0.353  0.00  0.00    +0.000 A 
ATOM     13  C   UNL     1       7.486   0.844  -1.716  0.00  0.00    +0.000 A 
ATOM     14  C   UNL     1       7.902  -0.378  -2.134  0.00  0.00    +0.000 A 
ATOM     15  C   UNL     1       8.087  -1.437  -1.275  0.00  0.00    +0.000 A 
ATOM     16  C   UNL     1       7.831  -1.222   0.066  0.00  0.00    +0.000 A 
ENDBRANCH  10  11
ENDBRANCH   9  10
ENDBRANCH   6   9
ENDBRANCH   2   3
BRANCH   1  19
ATOM     17  C   UNL     1      -2.297   0.558  -0.261  0.00  0.00    +0.000 C 
ATOM     18  O   UNL     1      -1.965   0.304  -1.412  0.00  0.00    +0.000 OA
ATOM     19  N   UNL     1      -1.383   1.323   0.522  0.00  0.00    +0.000 NA
BRANCH  17  20
ATOM     20  C   UNL     1      -3.618   0.115   0.397  0.00  0.00    +0.000 C 
ATOM     21  C   UNL     1      -4.366   1.501   0.233  0.00  0.00    +0.000 C 
BRANCH  20  22
ATOM     22  S   UNL     1      -4.396  -0.832  -1.038  0.00  0.00    +0.000 S 
BRANCH  22  29
ATOM     23  C   UNL     1      -9.287   0.718  -1.544  0.00  0.00    +0.000 C 
ATOM     24  C   UNL     1      -8.326  -0.287  -1.054  0.00  0.00    +0.000 A 
ATOM     25  C   UNL     1      -8.808  -1.393  -0.403  0.00  0.00    +0.000 A 
ATOM     26  C   UNL     1      -7.902  -2.329   0.052  0.00  0.00    +0.000 A 
ATOM     27  C   UNL     1      -8.344  -3.565   0.774  0.00  0.00    +0.000 C 
ATOM     28  N   UNL     1      -6.572  -2.194  -0.119  0.00  0.00    +0.000 NA
ATOM     29  C   UNL     1      -6.113  -1.100  -0.763  0.00  0.00    +0.000 A 
ATOM     30  N   UNL     1      -6.995  -0.187  -1.207  0.00  0.00    +0.000 NA
ENDBRANCH  22  29
ENDBRANCH  20  22
ENDBRANCH  17  20
ENDBRANCH   1  19
TORSDOF 8
