REMARK  Name = 
REMARK  7 active torsions:
REMARK  status: ('A' for Active; 'I' for Inactive)
REMARK    1  A    between atoms: C_2  and  O_3
REMARK    2  A    between atoms: O_3  and  C_4
REMARK    3  A    between atoms: C_16  and  C_17
REMARK    4  A    between atoms: C_21  and  O_22
REMARK    5  A    between atoms: C_24  and  O_25
REMARK    6  A    between atoms: O_25  and  C_26
REMARK    7  A    between atoms: C_26  and  C_27
REMARK                            x       y       z     vdW  Elec       q    Type
REMARK                         _______ _______ _______ _____ _____    ______ ____
ROOT
ATOM      1  C   UNL     1      -5.492   0.468   0.203  0.00  0.00    +0.000 A 
ATOM      2  C   UNL     1      -5.185   0.949  -1.052  0.00  0.00    +0.000 A 
ATOM      3  C   UNL     1      -3.869   1.115  -1.433  0.00  0.00    +0.000 A 
ATOM      4  C   UNL     1      -2.819   0.812  -0.585  0.00  0.00    +0.000 A 
ATOM      5  N   UNL     1      -1.460   0.867  -0.669  0.00  0.00    +0.000 NA
ATOM      6  C   UNL     1      -0.916   0.439   0.488  0.00  0.00    +0.000 A 
ATOM      7  C   UNL     1      -1.912   0.118   1.289  0.00  0.00    +0.000 A 
ATOM      8  C   UNL     1      -3.156   0.335   0.659  0.00  0.00    +0.000 A 
ATOM      9  C   UNL     1      -4.459   0.158   1.067  0.00  0.00    +0.000 A 
ATOM     10  C   UNL     1      -1.706  -0.395   2.666  0.00  0.00    +0.000 C 
ATOM     11  C   UNL     1      -0.266  -0.816   2.731  0.00  0.00    +0.000 C 
ATOM     12  N   UNL     1       0.593   0.216   2.333  0.00  0.00    +0.000 NA
ATOM     13  C   UNL     1       0.616   0.356   0.784  0.00  0.00    +0.000 C 
ENDROOT
BRANCH  13  14
ATOM     14  C   UNL     1       0.881  -1.175   0.472  0.00  0.00    +0.000 A 
ATOM     15  C   UNL     1       0.061  -2.150   0.850  0.00  0.00    +0.000 A 
ATOM     16  C   UNL     1       0.399  -3.456   0.512  0.00  0.00    +0.000 A 
ATOM     17  C   UNL     1       1.562  -3.672  -0.194  0.00  0.00    +0.000 A 
ATOM     18  C   UNL     1       2.399  -2.671  -0.579  0.00  0.00    +0.000 A 
ATOM     19  C   UNL     1       2.043  -1.359  -0.230  0.00  0.00    +0.000 A 
BRANCH  18  20
ATOM     20  O   UNL     1       3.569  -2.847  -1.285  0.00  0.00    +0.000 OA
ATOM     21  C   UNL     1       4.066  -4.081  -1.708  0.00  0.00    +0.000 C 
ENDBRANCH  18  20
BRANCH  19  22
ATOM     22  O   UNL     1       2.854  -0.310  -0.595  0.00  0.00    +0.000 OA
BRANCH  22  23
ATOM     23  C   UNL     1       3.903   0.207   0.182  0.00  0.00    +0.000 C 
BRANCH  23  24
ATOM     24  C   UNL     1       4.519   1.322  -0.585  0.00  0.00    +0.000 A 
ATOM     25  C   UNL     1       3.997   2.575  -0.606  0.00  0.00    +0.000 A 
ATOM     26  C   UNL     1       4.579   3.583  -1.312  0.00  0.00    +0.000 A 
ATOM     27  C   UNL     1       5.742   3.325  -2.032  0.00  0.00    +0.000 A 
ATOM     28  C   UNL     1       6.279   2.056  -2.014  0.00  0.00    +0.000 A 
ATOM     29  C   UNL     1       5.686   1.052  -1.303  0.00  0.00    +0.000 A 
ENDBRANCH  23  24
ENDBRANCH  22  23
ENDBRANCH  19  22
ENDBRANCH  13  14
BRANCH   1  30
ATOM     30  O   UNL     1      -6.835   0.298   0.591  0.00  0.00    +0.000 OA
BRANCH  30  32
ATOM     31  C   UNL     1      -7.795   2.067  -0.658  0.00  0.00    +0.000 C 
ATOM     32  C   UNL     1      -7.880   0.615  -0.291  0.00  0.00    +0.000 C 
ENDBRANCH  30  32
ENDBRANCH   1  30
TORSDOF 7
