REMARK  Name = 
REMARK  6 active torsions:
REMARK  status: ('A' for Active; 'I' for Inactive)
REMARK    1  A    between atoms: C_6  and  C_7
REMARK    2  A    between atoms: C_7  and  C_9
REMARK    3  A    between atoms: C_9  and  S_10
REMARK    4  A    between atoms: S_10  and  C_11
REMARK    5  A    between atoms: N_15  and  C_16
REMARK    6  A    between atoms: N_22  and  C_23
REMARK                            x       y       z     vdW  Elec       q    Type
REMARK                         _______ _______ _______ _____ _____    ______ ____
ROOT
ATOM      1  C   UNL     1      -0.312  -1.119  -1.465  0.00  0.00    +0.000 A 
ATOM      2  N   UNL     1      -0.327  -2.394  -1.112  0.00  0.00    +0.000 NA
ATOM      3  N   UNL     1      -1.408  -2.621  -0.431  0.00  0.00    +0.000 NA
ATOM      4  C   UNL     1      -2.160  -1.449  -0.318  0.00  0.00    +0.000 A 
ATOM      5  N   UNL     1      -3.362  -1.400   0.356  0.00  0.00    +0.000 NA
ATOM      6  N   UNL     1      -1.435  -0.559  -0.974  0.00  0.00    +0.000 N 
ENDROOT
BRANCH   5   7
ATOM      7  C   UNL     1      -4.329  -0.491   0.664  0.00  0.00    +0.000 A 
ATOM      8  C   UNL     1      -5.437  -0.952   1.418  0.00  0.00    +0.000 A 
ATOM      9  C   UNL     1      -6.458  -0.159   1.788  0.00  0.00    +0.000 A 
ATOM     10  C   UNL     1      -6.448   1.169   1.428  0.00  0.00    +0.000 A 
ATOM     11  C   UNL     1      -5.397   1.664   0.698  0.00  0.00    +0.000 A 
ATOM     12  C   UNL     1      -4.380   0.833   0.341  0.00  0.00    +0.000 A 
ENDBRANCH   5   7
BRANCH   6  13
ATOM     13  C   UNL     1      -1.715   0.826  -1.189  0.00  0.00    +0.000 A 
ATOM     14  C   UNL     1      -1.250   1.738  -0.275  0.00  0.00    +0.000 A 
ATOM     15  C   UNL     1      -1.481   3.077  -0.464  0.00  0.00    +0.000 A 
ATOM     16  C   UNL     1      -2.183   3.492  -1.578  0.00  0.00    +0.000 A 
ATOM     17  C   UNL     1      -2.647   2.575  -2.492  0.00  0.00    +0.000 A 
ATOM     18  C   UNL     1      -2.413   1.241  -2.296  0.00  0.00    +0.000 A 
ENDBRANCH   6  13
BRANCH   1  19
ATOM     19  S   UNL     1       0.969  -0.278  -2.426  0.00  0.00    +0.000 S 
BRANCH  19  20
ATOM     20  C   UNL     1       2.193   0.362  -1.283  0.00  0.00    +0.000 C 
BRANCH  20  21
ATOM     21  C   UNL     1       2.896  -0.764  -0.615  0.00  0.00    +0.000 C 
ATOM     22  O   UNL     1       2.590  -1.953  -0.894  0.00  0.00    +0.000 OA
BRANCH  21  28
ATOM     23  C   UNL     1       6.993   0.139   3.360  0.00  0.00    +0.000 C 
ATOM     24  C   UNL     1       5.937  -0.094   2.327  0.00  0.00    +0.000 A 
ATOM     25  C   UNL     1       6.244  -0.211   0.987  0.00  0.00    +0.000 A 
ATOM     26  C   UNL     1       5.277  -0.427   0.016  0.00  0.00    +0.000 A 
ATOM     27  C   UNL     1       5.662  -0.544  -1.399  0.00  0.00    +0.000 C 
ATOM     28  C   UNL     1       3.951  -0.536   0.373  0.00  0.00    +0.000 A 
ATOM     29  C   UNL     1       3.631  -0.421   1.709  0.00  0.00    +0.000 A 
ATOM     30  C   UNL     1       2.192  -0.541   2.076  0.00  0.00    +0.000 C 
ATOM     31  C   UNL     1       4.605  -0.204   2.674  0.00  0.00    +0.000 A 
ENDBRANCH  21  28
ENDBRANCH  20  21
ENDBRANCH  19  20
ENDBRANCH   1  19
TORSDOF 6
