REMARK  Name = 
REMARK  9 active torsions:
REMARK  status: ('A' for Active; 'I' for Inactive)
REMARK    1  A    between atoms: C_5  and  N_6
REMARK    2  A    between atoms: C_7  and  C_9
REMARK    3  A    between atoms: C_9  and  O_10
REMARK    4  A    between atoms: O_10  and  C_11
REMARK    5  A    between atoms: C_11  and  C_13
REMARK    6  A    between atoms: C_18  and  N_19
REMARK    7  A    between atoms: N_19  and  C_20
REMARK    8  A    between atoms: C_20  and  C_21
REMARK    9  A    between atoms: C_21  and  C_22
REMARK                            x       y       z     vdW  Elec       q    Type
REMARK                         _______ _______ _______ _____ _____    ______ ____
ROOT
ATOM      1  C   UNL     1      -1.111  -0.400   0.387  0.00  0.00    +0.000 A 
ATOM      2  C   UNL     1      -0.673   0.571   1.261  0.00  0.00    +0.000 A 
ATOM      3  C   UNL     1      -1.541   1.251   2.099  0.00  0.00    +0.000 A 
ATOM      4  C   UNL     1      -2.876   0.921   2.029  0.00  0.00    +0.000 A 
ATOM      5  C   UNL     1      -3.293  -0.039   1.160  0.00  0.00    +0.000 A 
ATOM      6  C   UNL     1      -2.469  -0.730   0.321  0.00  0.00    +0.000 A 
ENDROOT
BRANCH   1   7
ATOM      7  C   UNL     1      -0.169  -1.091  -0.476  0.00  0.00    +0.000 C 
ATOM      8  O   UNL     1      -0.566  -1.976  -1.274  0.00  0.00    +0.000 OA
BRANCH   7   9
ATOM      9  O   UNL     1       1.168  -0.801  -0.446  0.00  0.00    +0.000 OA
BRANCH   9  10
ATOM     10  C   UNL     1       2.076  -1.496  -1.306  0.00  0.00    +0.000 C 
BRANCH  10  12
ATOM     11  N   UNL     1       3.819  -0.007  -0.169  0.00  0.00    +0.000 NA
ATOM     12  C   UNL     1       3.464  -1.006  -1.087  0.00  0.00    +0.000 C 
ATOM     13  O   UNL     1       4.373  -1.529  -1.778  0.00  0.00    +0.000 OA
BRANCH  11  18
ATOM     14  C   UNL     1       9.136   1.933   0.729  0.00  0.00    +0.000 C 
ATOM     15  C   UNL     1       7.747   1.432   0.500  0.00  0.00    +0.000 A 
ATOM     16  C   UNL     1       6.667   1.930   1.198  0.00  0.00    +0.000 A 
ATOM     17  C   UNL     1       5.387   1.439   0.958  0.00  0.00    +0.000 A 
ATOM     18  C   UNL     1       5.152   0.450   0.027  0.00  0.00    +0.000 A 
ATOM     19  C   UNL     1       6.226  -0.050  -0.672  0.00  0.00    +0.000 A 
ATOM     20  C   UNL     1       7.502   0.443  -0.430  0.00  0.00    +0.000 A 
ENDBRANCH  11  18
ENDBRANCH  10  12
ENDBRANCH   9  10
ENDBRANCH   7   9
ENDBRANCH   1   7
BRANCH   6  21
ATOM     21  N   UNL     1      -2.922  -1.701  -0.542  0.00  0.00    +0.000 NA
BRANCH  21  22
ATOM     22  C   UNL     1      -4.133  -2.274  -0.894  0.00  0.00    +0.000 C 
BRANCH  22  23
ATOM     23  C   UNL     1      -5.205  -1.477  -1.511  0.00  0.00    +0.000 C 
BRANCH  23  24
ATOM     24  C   UNL     1      -5.772  -0.366  -0.701  0.00  0.00    +0.000 C 
ATOM     25  C   UNL     1      -5.623   0.871  -1.131  0.00  0.00    +0.000 C 
ATOM     26  C   UNL     1      -6.118   2.080  -0.459  0.00  0.00    +0.000 C 
ATOM     27  C   UNL     1      -7.123   1.720   0.644  0.00  0.00    +0.000 C 
ATOM     28  C   UNL     1      -6.589   0.553   1.445  0.00  0.00    +0.000 C 
ATOM     29  C   UNL     1      -6.532  -0.650   0.566  0.00  0.00    +0.000 C 
ENDBRANCH  23  24
ENDBRANCH  22  23
ENDBRANCH  21  22
ENDBRANCH   6  21
TORSDOF 9
