REMARK  Name = 
REMARK  7 active torsions:
REMARK  status: ('A' for Active; 'I' for Inactive)
REMARK    1  A    between atoms: O_2  and  C_3
REMARK    2  A    between atoms: C_6  and  C_7
REMARK    3  A    between atoms: C_9  and  C_10
REMARK    4  A    between atoms: N_12  and  C_13
REMARK    5  A    between atoms: C_13  and  C_14
REMARK    6  A    between atoms: C_14  and  C_15
REMARK    7  A    between atoms: C_28  and  O_29
REMARK                            x       y       z     vdW  Elec       q    Type
REMARK                         _______ _______ _______ _____ _____    ______ ____
ROOT
ATOM      1  C   UNL     1      -2.282   0.791   0.059  0.00  0.00    +0.000 A 
ATOM      2  C   UNL     1      -1.060   0.190   0.278  0.00  0.00    +0.000 A 
ATOM      3  C   UNL     1       0.120   0.859  -0.045  0.00  0.00    +0.000 A 
ATOM      4  C   UNL     1       0.092   2.128  -0.587  0.00  0.00    +0.000 A 
ATOM      5  C   UNL     1       1.276   2.761  -0.895  0.00  0.00    +0.000 A 
ATOM      6  C   UNL     1       1.191   4.030  -1.435  0.00  0.00    +0.000 A 
ATOM      7  C   UNL     1      -0.029   4.635  -1.656  0.00  0.00    +0.000 A 
ATOM      8  C   UNL     1      -1.195   3.973  -1.336  0.00  0.00    +0.000 A 
ATOM      9  C   UNL     1      -1.142   2.703  -0.794  0.00  0.00    +0.000 A 
ATOM     10  N   UNL     1      -2.275   2.026  -0.469  0.00  0.00    +0.000 NA
ENDROOT
BRANCH   1  14
ATOM     11  C   UNL     1      -5.926  -1.230   1.038  0.00  0.00    +0.000 A 
ATOM     12  C   UNL     1      -5.945   0.038   0.496  0.00  0.00    +0.000 A 
ATOM     13  C   UNL     1      -4.755   0.690   0.180  0.00  0.00    +0.000 A 
ATOM     14  C   UNL     1      -3.529   0.102   0.393  0.00  0.00    +0.000 A 
ATOM     15  C   UNL     1      -3.507  -1.164   0.934  0.00  0.00    +0.000 A 
ATOM     16  C   UNL     1      -4.700  -1.821   1.252  0.00  0.00    +0.000 A 
BRANCH  11  18
ATOM     17  C   UNL     1      -8.377  -1.300   1.145  0.00  0.00    +0.000 C 
ATOM     18  O   UNL     1      -7.117  -1.903   1.363  0.00  0.00    +0.000 OA
ENDBRANCH  11  18
BRANCH  15  19
ATOM     19  O   UNL     1      -2.267  -1.742   1.142  0.00  0.00    +0.000 OA
ATOM     20  C   UNL     1      -2.117  -3.038   1.692  0.00  0.00    +0.000 C 
ENDBRANCH  15  19
ENDBRANCH   1  14
BRANCH   3  21
ATOM     21  C   UNL     1       1.423   0.232   0.182  0.00  0.00    +0.000 C 
ATOM     22  O   UNL     1       1.462  -0.928   0.677  0.00  0.00    +0.000 OA
ATOM     23  N   UNL     1       2.627   0.909  -0.145  0.00  0.00    +0.000 NA
BRANCH  23  24
ATOM     24  C   UNL     1       3.925   0.304   0.073  0.00  0.00    +0.000 C 
BRANCH  24  25
ATOM     25  C   UNL     1       4.059  -0.989  -0.719  0.00  0.00    +0.000 C 
BRANCH  25  26
ATOM     26  C   UNL     1       5.404  -1.555  -0.454  0.00  0.00    +0.000 A 
ATOM     27  C   UNL     1       6.430  -1.168  -1.292  0.00  0.00    +0.000 A 
ATOM     28  C   UNL     1       7.712  -1.645  -1.119  0.00  0.00    +0.000 A 
ATOM     29  C   UNL     1       7.932  -2.524  -0.079  0.00  0.00    +0.000 A 
ATOM     30  C   UNL     1       6.924  -2.925   0.770  0.00  0.00    +0.000 A 
ATOM     31  C   UNL     1       5.647  -2.437   0.583  0.00  0.00    +0.000 A 
ENDBRANCH  25  26
ENDBRANCH  24  25
ENDBRANCH  23  24
ENDBRANCH   3  21
TORSDOF 7
