REMARK  Name = 
REMARK  7 active torsions:
REMARK  status: ('A' for Active; 'I' for Inactive)
REMARK    1  A    between atoms: C_5  and  C_6
REMARK    2  A    between atoms: C_6  and  O_7
REMARK    3  A    between atoms: O_7  and  C_8
REMARK    4  A    between atoms: C_11  and  C_12
REMARK    5  A    between atoms: N_14  and  N_15
REMARK    6  A    between atoms: C_16  and  C_17
REMARK    7  A    between atoms: C_20  and  N_21
REMARK                            x       y       z     vdW  Elec       q    Type
REMARK                         _______ _______ _______ _____ _____    ______ ____
ROOT
ATOM      1  C   UNL     1      -3.529  -2.212   0.275  0.00  0.00    +0.000 A 
ATOM      2  C   UNL     1      -2.538  -2.894  -0.434  0.00  0.00    +0.000 A 
ATOM      3  C   UNL     1      -1.271  -2.365  -0.545  0.00  0.00    +0.000 A 
ATOM      4  C   UNL     1      -0.915  -1.162   0.022  0.00  0.00    +0.000 A 
ATOM      5  C   UNL     1      -1.898  -0.492   0.722  0.00  0.00    +0.000 A 
ATOM      6  C   UNL     1      -3.169  -1.012   0.839  0.00  0.00    +0.000 A 
ENDROOT
BRANCH   4   7
ATOM      7  C   UNL     1       0.436  -0.621  -0.110  0.00  0.00    +0.000 C 
ATOM      8  O   UNL     1       1.276  -1.291  -0.762  0.00  0.00    +0.000 OA
ATOM      9  N   UNL     1       0.845   0.596   0.448  0.00  0.00    +0.000 NA
BRANCH   9  10
ATOM     10  N   UNL     1       2.155   1.051   0.282  0.00  0.00    +0.000 NA
ATOM     11  C   UNL     1       3.174   0.298   0.357  0.00  0.00    +0.000 C 
BRANCH  11  12
ATOM     12  C   UNL     1       4.548   0.732   0.191  0.00  0.00    +0.000 A 
ATOM     13  C   UNL     1       4.915   2.034  -0.074  0.00  0.00    +0.000 A 
ATOM     14  C   UNL     1       6.252   2.363  -0.219  0.00  0.00    +0.000 A 
ATOM     15  C   UNL     1       7.254   1.420  -0.107  0.00  0.00    +0.000 A 
ATOM     16  C   UNL     1       6.879   0.119   0.158  0.00  0.00    +0.000 A 
ATOM     17  C   UNL     1       5.549  -0.208   0.302  0.00  0.00    +0.000 A 
BRANCH  15  18
ATOM     18  N   UNL     1       8.605   1.822  -0.266  0.00  0.00    +0.000 N 
ATOM     19  C   UNL     1       9.409   2.262   0.852  0.00  0.00    +0.000 C 
ATOM     20  C   UNL     1       9.208   1.796  -1.582  0.00  0.00    +0.000 C 
ENDBRANCH  15  18
ENDBRANCH  11  12
ENDBRANCH   9  10
ENDBRANCH   4   7
BRANCH   1  21
ATOM     21  O   UNL     1      -4.773  -2.783   0.355  0.00  0.00    +0.000 OA
BRANCH  21  22
ATOM     22  C   UNL     1      -5.881  -2.260   1.011  0.00  0.00    +0.000 C 
BRANCH  22  27
ATOM     23  C   UNL     1      -7.210   2.929  -1.165  0.00  0.00    +0.000 C 
ATOM     24  C   UNL     1      -6.871   1.571  -0.611  0.00  0.00    +0.000 A 
ATOM     25  C   UNL     1      -7.338   0.421  -1.208  0.00  0.00    +0.000 A 
ATOM     26  C   UNL     1      -7.022  -0.817  -0.692  0.00  0.00    +0.000 A 
ATOM     27  C   UNL     1      -6.236  -0.951   0.428  0.00  0.00    +0.000 A 
ATOM     28  C   UNL     1      -5.770   0.195   1.024  0.00  0.00    +0.000 A 
ATOM     29  C   UNL     1      -6.085   1.433   0.510  0.00  0.00    +0.000 A 
ENDBRANCH  22  27
ENDBRANCH  21  22
ENDBRANCH   1  21
TORSDOF 7
