REMARK  Name = 
REMARK  11 active torsions:
REMARK  status: ('A' for Active; 'I' for Inactive)
REMARK    1  A    between atoms: C_2  and  C_3
REMARK    2  A    between atoms: C_3  and  C_4
REMARK    3  A    between atoms: C_4  and  C_5
REMARK    4  A    between atoms: C_5  and  C_6
REMARK    5  A    between atoms: C_6  and  C_7
REMARK    6  A    between atoms: C_8  and  C_9
REMARK    7  A    between atoms: N_11  and  C_12
REMARK    8  A    between atoms: C_12  and  C_13
REMARK    9  A    between atoms: C_13  and  O_14
REMARK   10  A    between atoms: O_14  and  C_15
REMARK   11  A    between atoms: C_21  and  C_22
REMARK                            x       y       z     vdW  Elec       q    Type
REMARK                         _______ _______ _______ _____ _____    ______ ____
ROOT
ATOM      1  C   UNL     1      -1.064   1.522   0.495  0.00  0.00    +0.000 C 
ATOM      2  C   UNL     1      -0.917   0.447   1.133  0.00  0.00    +0.000 C 
ATOM      3  C   UNL     1      -2.342  -0.295   1.283  0.00  0.00    +0.000 C 
ATOM      4  O   UNL     1      -3.156   0.962   0.913  0.00  0.00    +0.000 OA
ATOM      5  N   UNL     1      -2.381   1.602   0.146  0.00  0.00    +0.000 NA
ENDROOT
BRANCH   3   6
ATOM      6  C   UNL     1      -2.361  -0.924  -0.225  0.00  0.00    +0.000 A 
ATOM      7  C   UNL     1      -2.011  -0.152  -1.255  0.00  0.00    +0.000 A 
ATOM      8  C   UNL     1      -2.038  -0.723  -2.513  0.00  0.00    +0.000 A 
ATOM      9  C   UNL     1      -2.422  -2.061  -2.664  0.00  0.00    +0.000 A 
ATOM     10  C   UNL     1      -2.769  -2.797  -1.559  0.00  0.00    +0.000 A 
ATOM     11  C   UNL     1      -3.146  -4.107  -1.700  0.00  0.00    +0.000 A 
ATOM     12  C   UNL     1      -3.498  -4.867  -0.616  0.00  0.00    +0.000 A 
ATOM     13  C   UNL     1      -3.470  -4.300   0.622  0.00  0.00    +0.000 A 
ATOM     14  C   UNL     1      -3.099  -2.989   0.806  0.00  0.00    +0.000 A 
ATOM     15  C   UNL     1      -2.748  -2.237  -0.279  0.00  0.00    +0.000 A 
ENDBRANCH   3   6
BRANCH   2  16
ATOM     16  C   UNL     1       0.214  -0.220   1.750  0.00  0.00    +0.000 C 
ATOM     17  O   UNL     1       0.079  -1.296   2.329  0.00  0.00    +0.000 OA
ATOM     18  N   UNL     1       1.518   0.353   1.702  0.00  0.00    +0.000 NA
BRANCH  18  19
ATOM     19  C   UNL     1       2.610  -0.356   2.334  0.00  0.00    +0.000 C 
BRANCH  19  20
ATOM     20  C   UNL     1       2.762  -1.697   1.703  0.00  0.00    +0.000 C 
BRANCH  20  21
ATOM     21  O   UNL     1       3.033  -1.549   0.344  0.00  0.00    +0.000 OA
BRANCH  21  22
ATOM     22  C   UNL     1       4.117  -0.888  -0.184  0.00  0.00    +0.000 A 
ATOM     23  C   UNL     1       5.040  -0.309   0.651  0.00  0.00    +0.000 A 
ATOM     24  C   UNL     1       6.127   0.352   0.116  0.00  0.00    +0.000 A 
ATOM     25  C   UNL     1       6.236   0.401  -1.256  0.00  0.00    +0.000 A 
ATOM     26  C   UNL     1       5.311  -0.179  -2.084  0.00  0.00    +0.000 A 
ATOM     27  C   UNL     1       4.215  -0.847  -1.569  0.00  0.00    +0.000 A 
ENDBRANCH  21  22
ENDBRANCH  20  21
ENDBRANCH  19  20
ENDBRANCH  18  19
ENDBRANCH   2  16
BRANCH   1  28
ATOM     28  C   UNL     1       0.025   2.484   0.185  0.00  0.00    +0.000 C 
BRANCH  28  29
ATOM     29  C   UNL     1      -0.246   3.839   0.773  0.00  0.00    +0.000 C 
BRANCH  29  30
ATOM     30  C   UNL     1      -1.539   4.339   0.181  0.00  0.00    +0.000 C 
BRANCH  30  31
ATOM     31  C   UNL     1      -1.323   4.406  -1.329  0.00  0.00    +0.000 C 
BRANCH  31  33
ATOM     32  C   UNL     1      -0.587   6.711  -0.965  0.00  0.00    +0.000 C 
ATOM     33  C   UNL     1      -0.167   5.376  -1.542  0.00  0.00    +0.000 C 
ENDBRANCH  31  33
ENDBRANCH  30  31
ENDBRANCH  29  30
ENDBRANCH  28  29
ENDBRANCH   1  28
TORSDOF 11
