REMARK  Name = 
REMARK  8 active torsions:
REMARK  status: ('A' for Active; 'I' for Inactive)
REMARK    1  A    between atoms: C_2  and  C_3
REMARK    2  A    between atoms: C_3  and  C_4
REMARK    3  A    between atoms: C_4  and  C_5
REMARK    4  A    between atoms: C_5  and  C_6
REMARK    5  A    between atoms: C_6  and  N_7
REMARK    6  A    between atoms: C_10  and  C_11
REMARK    7  A    between atoms: N_13  and  C_14
REMARK    8  A    between atoms: C_14  and  C_15
REMARK                            x       y       z     vdW  Elec       q    Type
REMARK                         _______ _______ _______ _____ _____    ______ ____
ROOT
ATOM      1  N   UNL     1      -1.156  -1.550  -1.631  0.00  0.00    +0.000 N 
ATOM      2  C   UNL     1       0.073  -1.892  -1.143  0.00  0.00    +0.000 A 
ATOM      3  N   UNL     1       0.795  -3.064  -1.507  0.00  0.00    +0.000 NA
ATOM      4  C   UNL     1       0.420  -0.889  -0.268  0.00  0.00    +0.000 A 
ATOM      5  C   UNL     1      -0.571   0.073  -0.203  0.00  0.00    +0.000 A 
ATOM      6  N   UNL     1      -0.728   1.231   0.471  0.00  0.00    +0.000 NA
ATOM      7  C   UNL     1      -1.816   2.003   0.339  0.00  0.00    +0.000 A 
ATOM      8  C   UNL     1      -1.992   3.186   1.017  0.00  0.00    +0.000 A 
ATOM      9  C   UNL     1      -3.126   3.968   0.866  0.00  0.00    +0.000 A 
ATOM     10  C   UNL     1      -4.112   3.537  -0.001  0.00  0.00    +0.000 A 
ATOM     11  C   UNL     1      -3.937   2.349  -0.683  0.00  0.00    +0.000 A 
ATOM     12  C   UNL     1      -2.797   1.570  -0.525  0.00  0.00    +0.000 A 
ATOM     13  N   UNL     1      -2.641   0.417  -1.195  0.00  0.00    +0.000 NA
ATOM     14  C   UNL     1      -1.553  -0.378  -1.078  0.00  0.00    +0.000 A 
ENDROOT
BRANCH   4  15
ATOM     15  C   UNL     1       1.657  -0.830   0.495  0.00  0.00    +0.000 C 
ATOM     16  O   UNL     1       2.525  -1.752   0.386  0.00  0.00    +0.000 OA
ATOM     17  N   UNL     1       1.976   0.221   1.384  0.00  0.00    +0.000 NA
BRANCH  17  18
ATOM     18  C   UNL     1       3.207   0.284   2.146  0.00  0.00    +0.000 C 
BRANCH  18  19
ATOM     19  C   UNL     1       4.375   0.679   1.346  0.00  0.00    +0.000 A 
ATOM     20  C   UNL     1       4.710   2.004   1.213  0.00  0.00    +0.000 A 
ATOM     21  C   UNL     1       5.817   2.397   0.457  0.00  0.00    +0.000 A 
ATOM     22  C   UNL     1       6.589   1.431  -0.169  0.00  0.00    +0.000 A 
ATOM     23  C   UNL     1       6.260   0.102  -0.040  0.00  0.00    +0.000 A 
ATOM     24  C   UNL     1       5.148  -0.264   0.722  0.00  0.00    +0.000 A 
ENDBRANCH  18  19
ENDBRANCH  17  18
ENDBRANCH   4  15
BRANCH   1  25
ATOM     25  C   UNL     1      -1.875  -2.306  -2.611  0.00  0.00    +0.000 C 
BRANCH  25  26
ATOM     26  C   UNL     1      -2.688  -3.416  -2.136  0.00  0.00    +0.000 C 
BRANCH  26  27
ATOM     27  C   UNL     1      -3.737  -3.039  -1.158  0.00  0.00    +0.000 C 
BRANCH  27  28
ATOM     28  C   UNL     1      -3.142  -2.474   0.084  0.00  0.00    +0.000 C 
BRANCH  28  30
ATOM     29  C   UNL     1      -3.489  -1.518   2.320  0.00  0.00    +0.000 C 
ATOM     30  C   UNL     1      -4.193  -2.081   1.102  0.00  0.00    +0.000 C 
ENDBRANCH  28  30
ENDBRANCH  27  28
ENDBRANCH  26  27
ENDBRANCH  25  26
ENDBRANCH   1  25
TORSDOF 8
