REMARK  Name = 
REMARK  8 active torsions:
REMARK  status: ('A' for Active; 'I' for Inactive)
REMARK    1  A    between atoms: C_2  and  C_3
REMARK    2  A    between atoms: C_3  and  C_4
REMARK    3  A    between atoms: C_4  and  N_5
REMARK    4  A    between atoms: C_6  and  C_8
REMARK    5  A    between atoms: C_8  and  N_18
REMARK    6  A    between atoms: C_9  and  C_10
REMARK    7  A    between atoms: C_13  and  O_14
REMARK    8  A    between atoms: C_19  and  C_21
REMARK                            x       y       z     vdW  Elec       q    Type
REMARK                         _______ _______ _______ _____ _____    ______ ____
ROOT
ATOM      1  C   UNL     1       1.861   0.137  -0.293  0.00  0.00    +0.000 C 
ATOM      2  C   UNL     1       2.338   1.340  -0.646  0.00  0.00    +0.000 C 
ENDROOT
BRANCH   2   3
ATOM      3  C   UNL     1       1.509   2.521  -0.416  0.00  0.00    +0.000 A 
ATOM      4  C   UNL     1       0.849   2.734   0.784  0.00  0.00    +0.000 A 
ATOM      5  C   UNL     1       0.058   3.844   0.938  0.00  0.00    +0.000 A 
ATOM      6  C   UNL     1      -0.126   4.794  -0.066  0.00  0.00    +0.000 A 
ATOM      7  C   UNL     1       0.554   4.538  -1.246  0.00  0.00    +0.000 A 
ATOM      8  C   UNL     1       1.354   3.431  -1.426  0.00  0.00    +0.000 A 
BRANCH   6   9
ATOM      9  O   UNL     1      -0.910   5.912   0.055  0.00  0.00    +0.000 OA
ATOM     10  C   UNL     1      -1.624   6.199   1.257  0.00  0.00    +0.000 C 
ENDBRANCH   6   9
ENDBRANCH   2   3
BRANCH   1  12
ATOM     11  N   UNL     1       2.283  -2.363  -0.189  0.00  0.00    +0.000 NA
ATOM     12  C   UNL     1       2.676  -1.019  -0.517  0.00  0.00    +0.000 C 
ATOM     13  O   UNL     1       3.816  -0.890  -1.031  0.00  0.00    +0.000 OA
BRANCH  11  14
ATOM     14  C   UNL     1       3.198  -3.488  -0.446  0.00  0.00    +0.000 C 
BRANCH  14  15
ATOM     15  C   UNL     1       4.432  -3.160   0.402  0.00  0.00    +0.000 C 
BRANCH  15  17
ATOM     16  C   UNL     1       6.663  -3.809   1.141  0.00  0.00    +0.000 C 
ATOM     17  C   UNL     1       5.487  -4.219   0.270  0.00  0.00    +0.000 C 
ENDBRANCH  15  17
ENDBRANCH  14  15
ENDBRANCH  11  14
ENDBRANCH   1  12
BRANCH   1  18
ATOM     18  N   UNL     1       0.556   0.141   0.283  0.00  0.00    +0.000 NA
ATOM     19  C   UNL     1      -0.521  -0.521  -0.401  0.00  0.00    +0.000 C 
ATOM     20  O   UNL     1      -0.230  -1.072  -1.494  0.00  0.00    +0.000 OA
BRANCH  19  21
ATOM     21  C   UNL     1      -1.869  -0.533   0.163  0.00  0.00    +0.000 A 
ATOM     22  C   UNL     1      -2.251   0.475   1.024  0.00  0.00    +0.000 A 
ATOM     23  C   UNL     1      -3.504   0.511   1.590  0.00  0.00    +0.000 A 
ATOM     24  C   UNL     1      -4.401  -0.472   1.299  0.00  0.00    +0.000 A 
ATOM     25  C   UNL     1      -4.049  -1.489   0.446  0.00  0.00    +0.000 A 
ATOM     26  C   UNL     1      -4.960  -2.485   0.141  0.00  0.00    +0.000 A 
ATOM     27  C   UNL     1      -4.607  -3.482  -0.712  0.00  0.00    +0.000 A 
ATOM     28  C   UNL     1      -3.358  -3.521  -1.281  0.00  0.00    +0.000 A 
ATOM     29  C   UNL     1      -2.448  -2.531  -0.979  0.00  0.00    +0.000 A 
ATOM     30  C   UNL     1      -2.776  -1.523  -0.129  0.00  0.00    +0.000 A 
ENDBRANCH  19  21
ENDBRANCH   1  18
TORSDOF 8
