REMARK  Name = 
REMARK  8 active torsions:
REMARK  status: ('A' for Active; 'I' for Inactive)
REMARK    1  A    between atoms: C_2  and  C_3
REMARK    2  A    between atoms: C_4  and  C_5
REMARK    3  A    between atoms: C_18  and  C_19
REMARK    4  A    between atoms: N_21  and  C_22
REMARK    5  A    between atoms: C_22  and  C_23
REMARK    6  A    between atoms: C_23  and  C_24
REMARK    7  A    between atoms: C_27  and  O_28
REMARK    8  A    between atoms: C_30  and  O_31
REMARK                            x       y       z     vdW  Elec       q    Type
REMARK                         _______ _______ _______ _____ _____    ______ ____
ROOT
ATOM      1  C   UNL     1      -2.523   0.400  -0.104  0.00  0.00    +0.000 A 
ATOM      2  C   UNL     1      -3.850   0.072  -0.133  0.00  0.00    +0.000 A 
ATOM      3  N   UNL     1      -4.282  -1.116  -0.575  0.00  0.00    +0.000 NA
ATOM      4  C   UNL     1      -3.425  -2.044  -1.014  0.00  0.00    +0.000 A 
ATOM      5  C   UNL     1      -3.844  -3.273  -1.473  0.00  0.00    +0.000 A 
ATOM      6  C   UNL     1      -2.950  -4.219  -1.922  0.00  0.00    +0.000 A 
ATOM      7  C   UNL     1      -1.607  -3.917  -1.905  0.00  0.00    +0.000 A 
ATOM      8  C   UNL     1      -1.181  -2.692  -1.447  0.00  0.00    +0.000 A 
ATOM      9  C   UNL     1      -2.063  -1.744  -0.999  0.00  0.00    +0.000 A 
ATOM     10  C   UNL     1      -1.597  -0.537  -0.551  0.00  0.00    +0.000 A 
ENDROOT
BRANCH   2  11
ATOM     11  C   UNL     1      -4.845   1.028   0.307  0.00  0.00    +0.000 A 
ATOM     12  C   UNL     1      -4.792   1.770   1.454  0.00  0.00    +0.000 A 
ATOM     13  C   UNL     1      -5.752   2.670   1.844  0.00  0.00    +0.000 A 
ATOM     14  C   UNL     1      -6.852   2.830   1.005  0.00  0.00    +0.000 A 
ATOM     15  C   UNL     1      -6.950   2.110  -0.154  0.00  0.00    +0.000 A 
ATOM     16  C   UNL     1      -5.970   1.225  -0.501  0.00  0.00    +0.000 A 
ENDBRANCH   2  11
BRANCH  10  17
ATOM     17  C   UNL     1      -0.201  -0.196  -0.524  0.00  0.00    +0.000 C 
ATOM     18  O   UNL     1       0.624  -1.065  -0.935  0.00  0.00    +0.000 OA
ATOM     19  N   UNL     1       0.315   1.037  -0.071  0.00  0.00    +0.000 NA
BRANCH  19  20
ATOM     20  C   UNL     1       1.749   1.255  -0.095  0.00  0.00    +0.000 C 
BRANCH  20  21
ATOM     21  C   UNL     1       2.392   0.193   0.787  0.00  0.00    +0.000 C 
BRANCH  21  22
ATOM     22  C   UNL     1       3.869   0.343   0.817  0.00  0.00    +0.000 A 
ATOM     23  C   UNL     1       4.501   1.127   1.759  0.00  0.00    +0.000 A 
ATOM     24  C   UNL     1       5.872   1.259   1.776  0.00  0.00    +0.000 A 
ATOM     25  C   UNL     1       6.674   0.617   0.857  0.00  0.00    +0.000 A 
ATOM     26  C   UNL     1       6.044  -0.172  -0.092  0.00  0.00    +0.000 A 
ATOM     27  C   UNL     1       4.671  -0.299  -0.102  0.00  0.00    +0.000 A 
BRANCH  25  28
ATOM     28  O   UNL     1       8.068   0.751   0.875  0.00  0.00    +0.000 OA
ATOM     29  C   UNL     1       8.637   1.563   1.859  0.00  0.00    +0.000 C 
ENDBRANCH  25  28
BRANCH  26  30
ATOM     30  O   UNL     1       6.863  -0.810  -1.009  0.00  0.00    +0.000 OA
ATOM     31  C   UNL     1       6.402  -1.643  -2.033  0.00  0.00    +0.000 C 
ENDBRANCH  26  30
ENDBRANCH  21  22
ENDBRANCH  20  21
ENDBRANCH  19  20
ENDBRANCH  10  17
BRANCH   1  33
ATOM     32  C   UNL     1      -1.993   1.755   1.901  0.00  0.00    +0.000 C 
ATOM     33  C   UNL     1      -2.005   1.723   0.398  0.00  0.00    +0.000 C 
ENDBRANCH   1  33
TORSDOF 8
