REMARK  Name = 
REMARK  6 active torsions:
REMARK  status: ('A' for Active; 'I' for Inactive)
REMARK    1  A    between atoms: C_2  and  C_5
REMARK    2  A    between atoms: C_12  and  C_13
REMARK    3  A    between atoms: N_15  and  N_16
REMARK    4  A    between atoms: C_17  and  C_18
REMARK    5  A    between atoms: N_20  and  C_21
REMARK    6  A    between atoms: C_21  and  C_22
REMARK                            x       y       z     vdW  Elec       q    Type
REMARK                         _______ _______ _______ _____ _____    ______ ____
ROOT
ATOM      1  N   UNL     1       0.089   1.323   1.405  0.00  0.00    +0.000 NA
ATOM      2  C   UNL     1       1.204   1.095   1.793  0.00  0.00    +0.000 C 
ENDROOT
BRANCH   2   3
ATOM      3  C   UNL     1       2.251   0.336   1.169  0.00  0.00    +0.000 A 
ATOM      4  C   UNL     1       3.439  -0.041   1.801  0.00  0.00    +0.000 A 
ATOM      5  N   UNL     1       4.191  -0.812   1.022  0.00  0.00    +0.000 N 
ATOM      6  C   UNL     1       3.495  -0.941  -0.137  0.00  0.00    +0.000 A 
ATOM      7  C   UNL     1       3.820  -1.654  -1.314  0.00  0.00    +0.000 A 
ATOM      8  C   UNL     1       2.995  -1.682  -2.370  0.00  0.00    +0.000 A 
ATOM      9  C   UNL     1       1.771  -0.992  -2.330  0.00  0.00    +0.000 A 
ATOM     10  C   UNL     1       1.487  -0.307  -1.178  0.00  0.00    +0.000 A 
ATOM     11  C   UNL     1       2.298  -0.249  -0.074  0.00  0.00    +0.000 A 
BRANCH   5  12
ATOM     12  C   UNL     1       5.494  -1.494   1.261  0.00  0.00    +0.000 C 
BRANCH  12  13
ATOM     13  C   UNL     1       6.590  -0.585   0.722  0.00  0.00    +0.000 A 
ATOM     14  C   UNL     1       6.321   0.294  -0.259  0.00  0.00    +0.000 A 
ATOM     15  C   UNL     1       7.351   1.139  -0.798  0.00  0.00    +0.000 A 
ATOM     16  C   UNL     1       8.597   1.033  -0.294  0.00  0.00    +0.000 A 
ATOM     17  C   UNL     1       8.877   0.118   0.724  0.00  0.00    +0.000 A 
ATOM     18  C   UNL     1       7.852  -0.703   1.248  0.00  0.00    +0.000 A 
ENDBRANCH  12  13
ENDBRANCH   5  12
ENDBRANCH   2   3
BRANCH   1  21
ATOM     19  C   UNL     1      -1.330  -0.218   0.155  0.00  0.00    +0.000 C 
ATOM     20  O   UNL     1      -1.670  -0.886   1.136  0.00  0.00    +0.000 OA
ATOM     21  N   UNL     1      -0.483   0.897   0.255  0.00  0.00    +0.000 NA
BRANCH  19  29
ATOM     22  C   UNL     1      -6.494   0.294   0.072  0.00  0.00    +0.000 A 
ATOM     23  C   UNL     1      -6.327   1.691  -0.069  0.00  0.00    +0.000 A 
ATOM     24  C   UNL     1      -5.093   2.117  -0.489  0.00  0.00    +0.000 A 
ATOM     25  C   UNL     1      -4.060   1.248  -0.774  0.00  0.00    +0.000 A 
ATOM     26  C   UNL     1      -4.226  -0.148  -0.635  0.00  0.00    +0.000 A 
ATOM     27  C   UNL     1      -5.503  -0.565  -0.200  0.00  0.00    +0.000 A 
ATOM     28  O   UNL     1      -3.285  -1.060  -0.889  0.00  0.00    +0.000 OA
ATOM     29  C   UNL     1      -1.879  -0.655  -1.258  0.00  0.00    +0.000 C 
ATOM     30  C   UNL     1      -2.144   0.728  -2.020  0.00  0.00    +0.000 C 
ATOM     31  O   UNL     1      -2.822   1.646  -1.212  0.00  0.00    +0.000 OA
BRANCH  22  33
ATOM     32  C   UNL     1      -8.585   1.039   1.191  0.00  0.00    +0.000 C 
ATOM     33  C   UNL     1      -7.841  -0.161   0.544  0.00  0.00    +0.000 C 
ATOM     34  C   UNL     1      -7.739  -1.342   1.421  0.00  0.00    +0.000 C 
ATOM     35  C   UNL     1      -8.640  -0.503  -0.756  0.00  0.00    +0.000 C 
ENDBRANCH  22  33
ENDBRANCH  19  29
ENDBRANCH   1  21
TORSDOF 6
