REMARK  Name = 
REMARK  7 active torsions:
REMARK  status: ('A' for Active; 'I' for Inactive)
REMARK    1  A    between atoms: C_5  and  C_6
REMARK    2  A    between atoms: C_11  and  C_12
REMARK    3  A    between atoms: C_12  and  O_14
REMARK    4  A    between atoms: O_14  and  C_15
REMARK    5  A    between atoms: C_15  and  C_16
REMARK    6  A    between atoms: N_18  and  C_19
REMARK    7  A    between atoms: C_22  and  C_23
REMARK                            x       y       z     vdW  Elec       q    Type
REMARK                         _______ _______ _______ _____ _____    ______ ____
ROOT
ATOM      1  C   UNL     1      -2.722  -0.465  -2.129  0.00  0.00    +0.000 C 
ATOM      2  O   UNL     1      -2.422  -0.681  -3.364  0.00  0.00    +0.000 OA
ENDROOT
BRANCH   1   8
ATOM      3  C   UNL     1      -4.540  -0.218  -0.485  0.00  0.00    +0.000 A 
ATOM      4  C   UNL     1      -5.935  -0.294  -0.226  0.00  0.00    +0.000 A 
ATOM      5  C   UNL     1      -6.797  -0.631  -1.242  0.00  0.00    +0.000 A 
ATOM      6  C   UNL     1      -6.337  -0.896  -2.511  0.00  0.00    +0.000 A 
ATOM      7  C   UNL     1      -4.999  -0.823  -2.764  0.00  0.00    +0.000 A 
ATOM      8  C   UNL     1      -4.102  -0.478  -1.726  0.00  0.00    +0.000 A 
BRANCH   3  13
ATOM      9  C   UNL     1      -1.304   1.272   4.075  0.00  0.00    +0.000 C 
ATOM     10  C   UNL     1      -2.116   0.897   2.870  0.00  0.00    +0.000 A 
ATOM     11  C   UNL     1      -3.016  -0.142   2.937  0.00  0.00    +0.000 A 
ATOM     12  C   UNL     1      -3.770  -0.497   1.841  0.00  0.00    +0.000 A 
ATOM     13  C   UNL     1      -3.662   0.177   0.604  0.00  0.00    +0.000 A 
ATOM     14  C   UNL     1      -2.763   1.204   0.561  0.00  0.00    +0.000 A 
ATOM     15  C   UNL     1      -2.002   1.559   1.675  0.00  0.00    +0.000 A 
ENDBRANCH   3  13
ENDBRANCH   1   8
BRANCH   1  16
ATOM     16  O   UNL     1      -1.605  -0.232  -1.294  0.00  0.00    +0.000 OA
BRANCH  16  17
ATOM     17  C   UNL     1      -0.395  -0.253  -1.911  0.00  0.00    +0.000 C 
BRANCH  17  18
ATOM     18  C   UNL     1       0.864  -0.112  -1.298  0.00  0.00    +0.000 C 
ATOM     19  O   UNL     1       1.880   0.029  -2.174  0.00  0.00    +0.000 OA
ATOM     20  N   UNL     1       1.344  -0.083   0.030  0.00  0.00    +0.000 NA
BRANCH  20  21
ATOM     21  C   UNL     1       2.766   0.090   0.272  0.00  0.00    +0.000 A 
ATOM     22  C   UNL     1       3.403  -0.542   1.324  0.00  0.00    +0.000 A 
ATOM     23  C   UNL     1       4.787  -0.369   1.532  0.00  0.00    +0.000 A 
ATOM     24  C   UNL     1       5.544   0.426   0.712  0.00  0.00    +0.000 A 
ATOM     25  C   UNL     1       4.903   1.071  -0.347  0.00  0.00    +0.000 A 
ATOM     26  C   UNL     1       3.536   0.893  -0.550  0.00  0.00    +0.000 A 
BRANCH  24  27
ATOM     27  C   UNL     1       7.020   0.635   0.863  0.00  0.00    +0.000 C 
ATOM     28  C   UNL     1       7.740   0.235  -0.416  0.00  0.00    +0.000 C 
ATOM     29  C   UNL     1       7.225   2.123   1.121  0.00  0.00    +0.000 C 
ATOM     30  C   UNL     1       7.474  -0.232   2.019  0.00  0.00    +0.000 C 
ENDBRANCH  24  27
ENDBRANCH  20  21
ENDBRANCH  17  18
ENDBRANCH  16  17
ENDBRANCH   1  16
TORSDOF 7
