REMARK  Name = 
REMARK  8 active torsions:
REMARK  status: ('A' for Active; 'I' for Inactive)
REMARK    1  A    between atoms: C_2  and  C_5
REMARK    2  A    between atoms: C_8  and  C_9
REMARK    3  A    between atoms: C_9  and  N_10
REMARK    4  A    between atoms: N_13  and  C_14
REMARK    5  A    between atoms: C_14  and  C_15
REMARK    6  A    between atoms: C_15  and  C_17
REMARK    7  A    between atoms: C_17  and  O_18
REMARK    8  A    between atoms: O_18  and  C_19
REMARK                            x       y       z     vdW  Elec       q    Type
REMARK                         _______ _______ _______ _____ _____    ______ ____
ROOT
ATOM      1  N   UNL     1       0.902   1.446   1.151  0.00  0.00    +0.000 N 
ATOM      2  C   UNL     1      -0.352   0.931   1.120  0.00  0.00    +0.000 A 
ATOM      3  N   UNL     1      -0.833  -0.131   1.986  0.00  0.00    +0.000 NA
ATOM      4  N   UNL     1      -1.032   1.561   0.170  0.00  0.00    +0.000 N 
ATOM      5  C   UNL     1      -0.211   2.466  -0.400  0.00  0.00    +0.000 A 
ATOM      6  C   UNL     1      -0.382   3.392  -1.432  0.00  0.00    +0.000 A 
ATOM      7  C   UNL     1       0.613   4.226  -1.849  0.00  0.00    +0.000 A 
ATOM      8  C   UNL     1       1.828   4.146  -1.237  0.00  0.00    +0.000 A 
ATOM      9  C   UNL     1       2.043   3.248  -0.214  0.00  0.00    +0.000 A 
ATOM     10  C   UNL     1       0.996   2.407   0.203  0.00  0.00    +0.000 A 
ENDROOT
BRANCH   1  11
ATOM     11  C   UNL     1       1.929   1.007   2.061  0.00  0.00    +0.000 C 
BRANCH  11  15
ATOM     12  C   UNL     1       4.559  -1.878   0.234  0.00  0.00    +0.000 A 
ATOM     13  C   UNL     1       3.366  -2.268   0.793  0.00  0.00    +0.000 A 
ATOM     14  C   UNL     1       2.498  -1.362   1.372  0.00  0.00    +0.000 A 
ATOM     15  C   UNL     1       2.780  -0.020   1.421  0.00  0.00    +0.000 A 
ATOM     16  C   UNL     1       3.997   0.386   0.848  0.00  0.00    +0.000 A 
ATOM     17  C   UNL     1       4.832  -0.530   0.289  0.00  0.00    +0.000 A 
BRANCH  12  19
ATOM     18  C   UNL     1       6.525  -2.043  -1.188  0.00  0.00    +0.000 C 
ATOM     19  C   UNL     1       5.518  -2.854  -0.389  0.00  0.00    +0.000 C 
ATOM     20  C   UNL     1       6.266  -3.580   0.749  0.00  0.00    +0.000 C 
ATOM     21  C   UNL     1       4.700  -3.821  -1.199  0.00  0.00    +0.000 C 
ENDBRANCH  12  19
ENDBRANCH  11  15
ENDBRANCH   1  11
BRANCH   4  22
ATOM     22  C   UNL     1      -2.401   1.415  -0.171  0.00  0.00    +0.000 C 
BRANCH  22  23
ATOM     23  C   UNL     1      -2.609   0.131  -1.157  0.00  0.00    +0.000 C 
ATOM     24  O   UNL     1      -1.673   0.589  -2.277  0.00  0.00    +0.000 OA
BRANCH  23  25
ATOM     25  C   UNL     1      -3.938   0.830  -1.923  0.00  0.00    +0.000 C 
BRANCH  25  26
ATOM     26  O   UNL     1      -4.928   0.663  -0.983  0.00  0.00    +0.000 OA
BRANCH  26  27
ATOM     27  C   UNL     1      -5.330  -0.539  -0.490  0.00  0.00    +0.000 A 
ATOM     28  C   UNL     1      -4.828  -1.771  -0.834  0.00  0.00    +0.000 A 
ATOM     29  C   UNL     1      -5.311  -2.952  -0.267  0.00  0.00    +0.000 A 
ATOM     30  C   UNL     1      -6.315  -2.895   0.653  0.00  0.00    +0.000 A 
ATOM     31  C   UNL     1      -6.861  -1.677   1.033  0.00  0.00    +0.000 A 
ATOM     32  C   UNL     1      -6.351  -0.525   0.447  0.00  0.00    +0.000 A 
ENDBRANCH  26  27
ENDBRANCH  25  26
ENDBRANCH  23  25
ENDBRANCH  22  23
ENDBRANCH   4  22
TORSDOF 8
