REMARK  Name = 
REMARK  7 active torsions:
REMARK  status: ('A' for Active; 'I' for Inactive)
REMARK    1  A    between atoms: C_2  and  C_3
REMARK    2  A    between atoms: C_3  and  C_4
REMARK    3  A    between atoms: C_4  and  O_5
REMARK    4  A    between atoms: O_5  and  C_6
REMARK    5  A    between atoms: C_9  and  C_10
REMARK    6  A    between atoms: N_12  and  C_13
REMARK    7  A    between atoms: C_16  and  C_17
REMARK                            x       y       z     vdW  Elec       q    Type
REMARK                         _______ _______ _______ _____ _____    ______ ____
ROOT
ATOM      1  C   UNL     1      -0.047   0.961   0.204  0.00  0.00    +0.000 A 
ATOM      2  C   UNL     1      -0.944   1.852   0.770  0.00  0.00    +0.000 A 
ATOM      3  C   UNL     1      -2.297   1.587   0.803  0.00  0.00    +0.000 A 
ATOM      4  C   UNL     1      -2.762   0.424   0.269  0.00  0.00    +0.000 A 
ATOM      5  C   UNL     1      -1.903  -0.474  -0.295  0.00  0.00    +0.000 A 
ATOM      6  C   UNL     1      -0.557  -0.200  -0.323  0.00  0.00    +0.000 A 
ENDROOT
BRANCH   4   7
ATOM      7  C   UNL     1      -4.199   0.089   0.277  0.00  0.00    +0.000 A 
ATOM      8  N   UNL     1      -4.805  -0.983  -0.193  0.00  0.00    +0.000 NA
ATOM      9  C   UNL     1      -6.097  -1.100  -0.092  0.00  0.00    +0.000 A 
ATOM     10  C   UNL     1      -6.869  -2.188  -0.550  0.00  0.00    +0.000 A 
ATOM     11  C   UNL     1      -8.207  -2.201  -0.390  0.00  0.00    +0.000 A 
ATOM     12  C   UNL     1      -8.912  -1.193   0.210  0.00  0.00    +0.000 A 
ATOM     13  C   UNL     1     -10.375  -1.291   0.343  0.00  0.00    +0.000 C 
ATOM     14  C   UNL     1      -8.181  -0.116   0.668  0.00  0.00    +0.000 A 
ATOM     15  C   UNL     1      -6.785  -0.085   0.510  0.00  0.00    +0.000 A 
ATOM     16  S   UNL     1      -5.521   0.995   0.903  0.00  0.00    +0.000 S 
ENDBRANCH   4   7
BRANCH   1  19
ATOM     17  C   UNL     1       2.209   0.260  -0.432  0.00  0.00    +0.000 C 
ATOM     18  O   UNL     1       1.746  -0.794  -0.912  0.00  0.00    +0.000 OA
ATOM     19  N   UNL     1       1.337   1.197   0.153  0.00  0.00    +0.000 NA
BRANCH  17  23
ATOM     20  C   UNL     1       6.373   1.095  -0.525  0.00  0.00    +0.000 A 
ATOM     21  C   UNL     1       5.891  -0.067  -1.057  0.00  0.00    +0.000 A 
ATOM     22  C   UNL     1       4.543  -0.353  -1.035  0.00  0.00    +0.000 A 
ATOM     23  C   UNL     1       3.630   0.523  -0.476  0.00  0.00    +0.000 A 
ATOM     24  C   UNL     1       4.147   1.690   0.054  0.00  0.00    +0.000 A 
ATOM     25  C   UNL     1       5.484   1.982   0.036  0.00  0.00    +0.000 A 
BRANCH  20  26
ATOM     26  O   UNL     1       7.742   1.414  -0.533  0.00  0.00    +0.000 OA
BRANCH  26  27
ATOM     27  C   UNL     1       8.659   0.522  -1.101  0.00  0.00    +0.000 C 
BRANCH  27  28
ATOM     28  C   UNL     1       8.661  -0.817  -0.440  0.00  0.00    +0.000 C 
BRANCH  28  30
ATOM     29  C   UNL     1       9.020  -2.046   1.690  0.00  0.00    +0.000 C 
ATOM     30  C   UNL     1       9.020  -0.685   1.026  0.00  0.00    +0.000 C 
ENDBRANCH  28  30
ENDBRANCH  27  28
ENDBRANCH  26  27
ENDBRANCH  20  26
ENDBRANCH  17  23
ENDBRANCH   1  19
TORSDOF 7
