REMARK  Name = 
REMARK  9 active torsions:
REMARK  status: ('A' for Active; 'I' for Inactive)
REMARK    1  A    between atoms: C_2  and  C_3
REMARK    2  A    between atoms: C_3  and  C_4
REMARK    3  A    between atoms: C_4  and  O_5
REMARK    4  A    between atoms: O_5  and  C_6
REMARK    5  A    between atoms: C_10  and  C_11
REMARK    6  A    between atoms: C_17  and  O_18
REMARK    7  A    between atoms: C_20  and  O_21
REMARK    8  A    between atoms: O_21  and  C_22
REMARK    9  A    between atoms: C_22  and  C_23
REMARK                            x       y       z     vdW  Elec       q    Type
REMARK                         _______ _______ _______ _____ _____    ______ ____
ROOT
ATOM      1  C   UNL     1      -0.039  -0.749   1.161  0.00  0.00    +0.000 C 
ATOM      2  N   UNL     1      -0.157  -2.151   0.485  0.00  0.00    +0.000 NA
ATOM      3  C   UNL     1       0.835  -2.273  -0.521  0.00  0.00    +0.000 C 
ATOM      4  C   UNL     1       0.992  -1.105  -1.427  0.00  0.00    +0.000 C 
ATOM      5  C   UNL     1      -0.175  -0.190  -1.200  0.00  0.00    +0.000 A 
ATOM      6  C   UNL     1      -0.743   0.483  -2.299  0.00  0.00    +0.000 A 
ATOM      7  C   UNL     1      -1.814   1.333  -2.137  0.00  0.00    +0.000 A 
ATOM      8  C   UNL     1      -2.344   1.531  -0.877  0.00  0.00    +0.000 A 
ATOM      9  C   UNL     1      -1.785   0.868   0.204  0.00  0.00    +0.000 A 
ATOM     10  C   UNL     1      -0.748   0.055  -0.003  0.00  0.00    +0.000 A 
ENDROOT
BRANCH   1  15
ATOM     11  C   UNL     1       3.706  -1.278   0.906  0.00  0.00    +0.000 A 
ATOM     12  C   UNL     1       4.133  -0.042   0.493  0.00  0.00    +0.000 A 
ATOM     13  C   UNL     1       3.282   1.009   0.273  0.00  0.00    +0.000 A 
ATOM     14  C   UNL     1       1.919   0.759   0.493  0.00  0.00    +0.000 A 
ATOM     15  C   UNL     1       1.457  -0.446   0.901  0.00  0.00    +0.000 A 
ATOM     16  C   UNL     1       2.330  -1.460   1.108  0.00  0.00    +0.000 A 
BRANCH  11  17
ATOM     17  O   UNL     1       4.624  -2.274   1.104  0.00  0.00    +0.000 OA
BRANCH  17  18
ATOM     18  C   UNL     1       6.000  -2.058   0.892  0.00  0.00    +0.000 C 
BRANCH  18  19
ATOM     19  C   UNL     1       6.241  -1.652  -0.559  0.00  0.00    +0.000 C 
BRANCH  19  21
ATOM     20  C   UNL     1       7.900  -1.022  -2.229  0.00  0.00    +0.000 C 
ATOM     21  C   UNL     1       7.716  -1.423  -0.776  0.00  0.00    +0.000 C 
ENDBRANCH  19  21
ENDBRANCH  18  19
ENDBRANCH  17  18
ENDBRANCH  11  17
ENDBRANCH   1  15
BRANCH   7  22
ATOM     22  O   UNL     1      -2.396   2.014  -3.218  0.00  0.00    +0.000 OA
ATOM     23  C   UNL     1      -1.923   1.874  -4.537  0.00  0.00    +0.000 C 
ENDBRANCH   7  22
BRANCH   8  24
ATOM     24  O   UNL     1      -3.405   2.379  -0.746  0.00  0.00    +0.000 OA
BRANCH  24  25
ATOM     25  C   UNL     1      -4.092   2.726   0.405  0.00  0.00    +0.000 C 
BRANCH  25  26
ATOM     26  C   UNL     1      -4.728   1.587   1.112  0.00  0.00    +0.000 A 
ATOM     27  C   UNL     1      -5.994   1.143   0.856  0.00  0.00    +0.000 A 
ATOM     28  C   UNL     1      -6.500   0.083   1.558  0.00  0.00    +0.000 A 
ATOM     29  C   UNL     1      -5.789  -0.580   2.534  0.00  0.00    +0.000 A 
ATOM     30  C   UNL     1      -4.517  -0.101   2.761  0.00  0.00    +0.000 A 
ATOM     31  C   UNL     1      -3.985   0.959   2.072  0.00  0.00    +0.000 A 
ENDBRANCH  25  26
ENDBRANCH  24  25
ENDBRANCH   8  24
TORSDOF 9
