REMARK  Name = 
REMARK  9 active torsions:
REMARK  status: ('A' for Active; 'I' for Inactive)
REMARK    1  A    between atoms: C_2  and  C_5
REMARK    2  A    between atoms: C_8  and  C_9
REMARK    3  A    between atoms: C_9  and  N_10
REMARK    4  A    between atoms: N_10  and  C_11
REMARK    5  A    between atoms: N_10  and  C_18
REMARK    6  A    between atoms: C_11  and  C_12
REMARK    7  A    between atoms: C_18  and  C_19
REMARK    8  A    between atoms: C_22  and  C_23
REMARK    9  A    between atoms: N_25  and  C_26
REMARK                            x       y       z     vdW  Elec       q    Type
REMARK                         _______ _______ _______ _____ _____    ______ ____
ROOT
ATOM      1  N   UNL     1      -0.441   0.470   0.417  0.00  0.00    +0.000 NA
ENDROOT
BRANCH   1   2
ATOM      2  C   UNL     1      -0.868  -0.109  -0.788  0.00  0.00    +0.000 C 
BRANCH   2   6
ATOM      3  C   UNL     1      -4.484  -2.114  -0.051  0.00  0.00    +0.000 A 
ATOM      4  C   UNL     1      -4.533  -0.828  -0.520  0.00  0.00    +0.000 A 
ATOM      5  C   UNL     1      -3.331  -0.178  -0.762  0.00  0.00    +0.000 A 
ATOM      6  C   UNL     1      -2.140  -0.826  -0.531  0.00  0.00    +0.000 A 
ATOM      7  C   UNL     1      -2.127  -2.128  -0.056  0.00  0.00    +0.000 A 
ATOM      8  C   UNL     1      -3.309  -2.787   0.190  0.00  0.00    +0.000 A 
BRANCH   3  10
ATOM      9  C   UNL     1      -6.622  -2.712  -1.022  0.00  0.00    +0.000 C 
ATOM     10  C   UNL     1      -5.781  -2.809   0.226  0.00  0.00    +0.000 C 
ATOM     11  C   UNL     1      -5.509  -4.274   0.589  0.00  0.00    +0.000 C 
ATOM     12  C   UNL     1      -6.468  -2.091   1.365  0.00  0.00    +0.000 C 
ENDBRANCH   3  10
ENDBRANCH   2   6
ENDBRANCH   1   2
BRANCH   1  13
ATOM     13  C   UNL     1      -1.222   1.463   1.030  0.00  0.00    +0.000 C 
BRANCH  13  14
ATOM     14  C   UNL     1      -1.369   2.709   0.258  0.00  0.00    +0.000 A 
ATOM     15  C   UNL     1      -0.762   2.930  -0.978  0.00  0.00    +0.000 A 
ATOM     16  C   UNL     1      -0.942   4.147  -1.634  0.00  0.00    +0.000 A 
ATOM     17  C   UNL     1      -1.708   5.151  -1.095  0.00  0.00    +0.000 A 
ATOM     18  C   UNL     1      -2.299   4.936   0.108  0.00  0.00    +0.000 A 
ATOM     19  C   UNL     1      -2.127   3.732   0.768  0.00  0.00    +0.000 A 
ENDBRANCH  13  14
ENDBRANCH   1  13
BRANCH   1  20
ATOM     20  C   UNL     1       0.719   0.005   1.056  0.00  0.00    +0.000 C 
BRANCH  20  21
ATOM     21  C   UNL     1       1.937   0.184   0.181  0.00  0.00    +0.000 A 
ATOM     22  C   UNL     1       2.016   0.770  -1.067  0.00  0.00    +0.000 A 
ATOM     23  C   UNL     1       3.326   0.704  -1.474  0.00  0.00    +0.000 A 
ATOM     24  C   UNL     1       4.021   0.070  -0.450  0.00  0.00    +0.000 A 
ATOM     25  O   UNL     1       3.149  -0.197   0.468  0.00  0.00    +0.000 OA
BRANCH  24  26
ATOM     26  C   UNL     1       5.466  -0.220  -0.448  0.00  0.00    +0.000 C 
ATOM     27  O   UNL     1       6.132   0.090  -1.447  0.00  0.00    +0.000 OA
ATOM     28  N   UNL     1       6.079  -0.833   0.663  0.00  0.00    +0.000 NA
BRANCH  28  29
ATOM     29  C   UNL     1       7.505  -1.133   0.704  0.00  0.00    +0.000 C 
ATOM     30  C   UNL     1       7.937  -1.518   2.141  0.00  0.00    +0.000 C 
ATOM     31  C   UNL     1       7.754  -2.604   1.085  0.00  0.00    +0.000 C 
ENDBRANCH  28  29
ENDBRANCH  24  26
ENDBRANCH  20  21
ENDBRANCH   1  20
TORSDOF 9
