REMARK  Name = 
REMARK  8 active torsions:
REMARK  status: ('A' for Active; 'I' for Inactive)
REMARK    1  A    between atoms: C_2  and  N_3
REMARK    2  A    between atoms: N_3  and  C_4
REMARK    3  A    between atoms: N_3  and  C_6
REMARK    4  A    between atoms: C_6  and  C_7
REMARK    5  A    between atoms: C_7  and  C_9
REMARK    6  A    between atoms: C_9  and  N_10
REMARK    7  A    between atoms: C_11  and  C_12
REMARK    8  A    between atoms: C_18  and  C_19
REMARK                            x       y       z     vdW  Elec       q    Type
REMARK                         _______ _______ _______ _____ _____    ______ ____
ROOT
ATOM      1  N   UNL     1      -0.173  -0.086  -1.093  0.00  0.00    +0.000 N 
ATOM      2  C   UNL     1      -0.779   0.706  -0.196  0.00  0.00    +0.000 A 
ATOM      3  C   UNL     1      -1.564  -0.112   0.639  0.00  0.00    +0.000 A 
ATOM      4  C   UNL     1      -1.416  -1.405   0.221  0.00  0.00    +0.000 A 
ATOM      5  C   UNL     1      -1.965  -2.589   0.702  0.00  0.00    +0.000 A 
ATOM      6  C   UNL     1      -1.605  -3.749   0.052  0.00  0.00    +0.000 A 
ATOM      7  C   UNL     1      -0.742  -3.752  -1.027  0.00  0.00    +0.000 A 
ATOM      8  C   UNL     1      -0.372  -4.907  -1.690  0.00  0.00    +0.000 A 
ATOM      9  C   UNL     1       0.487  -4.930  -2.769  0.00  0.00    +0.000 A 
ATOM     10  C   UNL     1       1.009  -3.733  -3.215  0.00  0.00    +0.000 A 
ATOM     11  C   UNL     1       0.660  -2.562  -2.575  0.00  0.00    +0.000 A 
ATOM     12  C   UNL     1      -0.213  -2.552  -1.481  0.00  0.00    +0.000 A 
ATOM     13  C   UNL     1      -0.553  -1.379  -0.852  0.00  0.00    +0.000 A 
ENDROOT
BRANCH   2  14
ATOM     14  C   UNL     1      -0.815   2.148  -0.022  0.00  0.00    +0.000 A 
ATOM     15  C   UNL     1      -1.995   2.865  -0.257  0.00  0.00    +0.000 A 
ATOM     16  C   UNL     1      -2.106   4.215  -0.097  0.00  0.00    +0.000 A 
ATOM     17  C   UNL     1      -1.012   4.930   0.317  0.00  0.00    +0.000 A 
ATOM     18  C   UNL     1       0.183   4.287   0.566  0.00  0.00    +0.000 A 
ATOM     19  C   UNL     1       0.219   2.928   0.384  0.00  0.00    +0.000 A 
ENDBRANCH   2  14
BRANCH   3  20
ATOM     20  C   UNL     1      -2.376   0.356   1.741  0.00  0.00    +0.000 A 
ATOM     21  C   UNL     1      -3.497   1.155   1.546  0.00  0.00    +0.000 A 
ATOM     22  C   UNL     1      -4.248   1.597   2.611  0.00  0.00    +0.000 A 
ATOM     23  C   UNL     1      -3.896   1.252   3.905  0.00  0.00    +0.000 A 
ATOM     24  C   UNL     1      -2.801   0.471   4.114  0.00  0.00    +0.000 A 
ATOM     25  C   UNL     1      -2.072   0.044   3.046  0.00  0.00    +0.000 A 
ENDBRANCH   3  20
BRANCH   1  26
ATOM     26  C   UNL     1       0.782   0.223  -2.090  0.00  0.00    +0.000 C 
BRANCH  26  27
ATOM     27  C   UNL     1       2.258  -0.303  -1.575  0.00  0.00    +0.000 C 
ATOM     28  O   UNL     1       3.026   0.708  -2.426  0.00  0.00    +0.000 OA
BRANCH  27  29
ATOM     29  C   UNL     1       2.312   0.594  -0.214  0.00  0.00    +0.000 C 
BRANCH  29  30
ATOM     30  N   UNL     1       3.653   0.784   0.153  0.00  0.00    +0.000 NA
BRANCH  30  32
ATOM     31  C   UNL     1       5.845   0.941  -0.938  0.00  0.00    +0.000 C 
ATOM     32  C   UNL     1       4.498   1.579  -0.646  0.00  0.00    +0.000 C 
ENDBRANCH  30  32
BRANCH  30  33
ATOM     33  C   UNL     1       4.020   0.562   1.502  0.00  0.00    +0.000 C 
ATOM     34  C   UNL     1       5.245  -0.286   1.662  0.00  0.00    +0.000 C 
ENDBRANCH  30  33
ENDBRANCH  29  30
ENDBRANCH  27  29
ENDBRANCH  26  27
ENDBRANCH   1  26
TORSDOF 8
