REMARK  Name = 
REMARK  7 active torsions:
REMARK  status: ('A' for Active; 'I' for Inactive)
REMARK    1  A    between atoms: C_5  and  C_6
REMARK    2  A    between atoms: C_9  and  S_10
REMARK    3  A    between atoms: S_10  and  C_11
REMARK    4  A    between atoms: C_11  and  C_12
REMARK    5  A    between atoms: C_16  and  C_17
REMARK    6  A    between atoms: N_19  and  C_20
REMARK    7  A    between atoms: C_20  and  C_22
REMARK                            x       y       z     vdW  Elec       q    Type
REMARK                         _______ _______ _______ _____ _____    ______ ____
ROOT
ATOM      1  C   UNL     1       0.688  -0.904   0.437  0.00  0.00    +0.000 C 
ENDROOT
BRANCH   1   2
ATOM      2  C   UNL     1       1.696  -0.039  -0.246  0.00  0.00    +0.000 A 
ATOM      3  C   UNL     1       1.378   0.914  -1.120  0.00  0.00    +0.000 A 
ATOM      4  C   UNL     1       2.369   1.679  -1.766  0.00  0.00    +0.000 A 
ATOM      5  C   UNL     1       3.728   1.395  -1.446  0.00  0.00    +0.000 A 
ATOM      6  C   UNL     1       4.067   0.437  -0.564  0.00  0.00    +0.000 A 
ATOM      7  C   UNL     1       3.059  -0.281   0.036  0.00  0.00    +0.000 A 
BRANCH   6   8
ATOM      8  C   UNL     1       5.481   0.176  -0.302  0.00  0.00    +0.000 C 
ATOM      9  O   UNL     1       6.297   1.141  -0.517  0.00  0.00    +0.000 OA
ATOM     10  N   UNL     1       5.982  -1.021   0.145  0.00  0.00    +0.000 NA
BRANCH  10  11
ATOM     11  C   UNL     1       7.475  -1.317   0.408  0.00  0.00    +0.000 C 
ATOM     12  C   UNL     1       7.838   0.195   0.926  0.00  0.00    +0.000 C 
BRANCH  11  13
ATOM     13  C   UNL     1       8.000  -1.000  -1.134  0.00  0.00    +0.000 C 
ATOM     14  C   UNL     1       7.207  -2.019  -1.927  0.00  0.00    +0.000 C 
ATOM     15  C   UNL     1       9.463  -1.298  -1.045  0.00  0.00    +0.000 C 
ENDBRANCH  11  13
ENDBRANCH  10  11
ENDBRANCH   6   8
ENDBRANCH   1   2
BRANCH   1  16
ATOM     16  S   UNL     1      -0.174  -0.281   1.806  0.00  0.00    +0.000 S 
BRANCH  16  20
ATOM     17  C   UNL     1      -4.646   0.231   0.733  0.00  0.00    +0.000 A 
ATOM     18  C   UNL     1      -3.970   1.229   1.376  0.00  0.00    +0.000 A 
ATOM     19  C   UNL     1      -2.598   1.169   1.692  0.00  0.00    +0.000 A 
ATOM     20  C   UNL     1      -1.887   0.059   1.348  0.00  0.00    +0.000 A 
ATOM     21  N   UNL     1      -2.593  -0.930   0.702  0.00  0.00    +0.000 NA
ATOM     22  N   UNL     1      -3.871  -0.836   0.424  0.00  0.00    +0.000 NA
BRANCH  17  27
ATOM     23  C   UNL     1     -10.274   0.455  -0.540  0.00  0.00    +0.000 C 
ATOM     24  C   UNL     1      -8.819   0.323  -0.223  0.00  0.00    +0.000 A 
ATOM     25  C   UNL     1      -8.047  -0.764  -0.567  0.00  0.00    +0.000 A 
ATOM     26  C   UNL     1      -6.678  -0.775  -0.242  0.00  0.00    +0.000 A 
ATOM     27  C   UNL     1      -6.063   0.269   0.419  0.00  0.00    +0.000 A 
ATOM     28  C   UNL     1      -6.890   1.351   0.751  0.00  0.00    +0.000 A 
ATOM     29  C   UNL     1      -8.219   1.366   0.435  0.00  0.00    +0.000 A 
ENDBRANCH  17  27
ENDBRANCH  16  20
ENDBRANCH   1  16
TORSDOF 7
