REMARK  Name = 
REMARK  7 active torsions:
REMARK  status: ('A' for Active; 'I' for Inactive)
REMARK    1  A    between atoms: C_2  and  C_3
REMARK    2  A    between atoms: C_3  and  N_5
REMARK    3  A    between atoms: C_6  and  C_8
REMARK    4  A    between atoms: N_11  and  C_12
REMARK    5  A    between atoms: C_12  and  C_13
REMARK    6  A    between atoms: C_13  and  C_14
REMARK    7  A    between atoms: C_17  and  O_18
REMARK                            x       y       z     vdW  Elec       q    Type
REMARK                         _______ _______ _______ _____ _____    ______ ____
ROOT
ATOM      1  C   UNL     1      -1.744   0.883   0.847  0.00  0.00    +0.000 A 
ATOM      2  C   UNL     1      -0.486   1.363   0.579  0.00  0.00    +0.000 A 
ATOM      3  N   UNL     1      -0.107   2.740   0.530  0.00  0.00    +0.000 NA
ATOM      4  N   UNL     1       0.365   0.330   0.361  0.00  0.00    +0.000 N 
ATOM      5  C   UNL     1      -0.370  -0.785   0.497  0.00  0.00    +0.000 A 
ATOM      6  N   UNL     1      -0.053  -2.087   0.393  0.00  0.00    +0.000 NA
ATOM      7  C   UNL     1      -0.940  -3.085   0.566  0.00  0.00    +0.000 A 
ATOM      8  C   UNL     1      -0.592  -4.415   0.455  0.00  0.00    +0.000 A 
ATOM      9  C   UNL     1      -1.480  -5.455   0.628  0.00  0.00    +0.000 A 
ATOM     10  C   UNL     1      -2.799  -5.145   0.931  0.00  0.00    +0.000 A 
ATOM     11  C   UNL     1      -3.163  -3.813   1.045  0.00  0.00    +0.000 A 
ATOM     12  C   UNL     1      -2.251  -2.780   0.867  0.00  0.00    +0.000 A 
ATOM     13  N   UNL     1      -2.599  -1.486   0.978  0.00  0.00    +0.000 NA
ATOM     14  C   UNL     1      -1.689  -0.490   0.800  0.00  0.00    +0.000 A 
ENDROOT
BRANCH   1  16
ATOM     15  N   UNL     1      -4.186   1.043   1.394  0.00  0.00    +0.000 NA
ATOM     16  C   UNL     1      -2.962   1.681   1.139  0.00  0.00    +0.000 C 
ATOM     17  O   UNL     1      -2.917   2.927   1.162  0.00  0.00    +0.000 OA
BRANCH  15  18
ATOM     18  C   UNL     1      -5.387   1.988   1.685  0.00  0.00    +0.000 C 
ATOM     19  C   UNL     1      -4.578   2.955   2.743  0.00  0.00    +0.000 C 
BRANCH  18  21
ATOM     20  C   UNL     1      -5.816   2.216  -0.714  0.00  0.00    +0.000 C 
ATOM     21  C   UNL     1      -5.114   2.979   0.397  0.00  0.00    +0.000 C 
ENDBRANCH  18  21
ENDBRANCH  15  18
ENDBRANCH   1  16
BRANCH   4  22
ATOM     22  C   UNL     1       1.780   0.479   0.044  0.00  0.00    +0.000 C 
BRANCH  22  23
ATOM     23  C   UNL     1       2.005   0.563  -1.438  0.00  0.00    +0.000 C 
BRANCH  23  24
ATOM     24  C   UNL     1       3.465   0.715  -1.655  0.00  0.00    +0.000 A 
ATOM     25  C   UNL     1       3.998   1.999  -1.699  0.00  0.00    +0.000 A 
ATOM     26  C   UNL     1       5.343   2.230  -1.900  0.00  0.00    +0.000 A 
ATOM     27  C   UNL     1       6.221   1.185  -2.069  0.00  0.00    +0.000 A 
ATOM     28  C   UNL     1       5.695  -0.090  -2.026  0.00  0.00    +0.000 A 
ATOM     29  C   UNL     1       4.347  -0.319  -1.824  0.00  0.00    +0.000 A 
BRANCH  27  30
ATOM     30  O   UNL     1       7.594   1.404  -2.275  0.00  0.00    +0.000 OA
ATOM     31  C   UNL     1       8.419   0.268  -2.439  0.00  0.00    +0.000 C 
ENDBRANCH  27  30
ENDBRANCH  23  24
ENDBRANCH  22  23
ENDBRANCH   4  22
TORSDOF 7
