REMARK  Name = 
REMARK  6 active torsions:
REMARK  status: ('A' for Active; 'I' for Inactive)
REMARK    1  A    between atoms: C_2  and  N_3
REMARK    2  A    between atoms: C_2  and  C_25
REMARK    3  A    between atoms: C_4  and  C_6
REMARK    4  A    between atoms: C_11  and  N_12
REMARK    5  A    between atoms: C_13  and  C_15
REMARK    6  A    between atoms: C_18  and  C_19
REMARK                            x       y       z     vdW  Elec       q    Type
REMARK                         _______ _______ _______ _____ _____    ______ ____
ROOT
ATOM      1  C   UNL     1      -1.479   0.244   1.687  0.00  0.00    +0.000 A 
ATOM      2  C   UNL     1      -2.405   0.358   2.730  0.00  0.00    +0.000 A 
ATOM      3  C   UNL     1      -1.964   0.436   4.041  0.00  0.00    +0.000 A 
ATOM      4  C   UNL     1      -0.647   0.406   4.329  0.00  0.00    +0.000 A 
ATOM      5  C   UNL     1       0.238   0.295   3.284  0.00  0.00    +0.000 A 
ATOM      6  C   UNL     1      -0.142   0.212   1.970  0.00  0.00    +0.000 A 
ENDROOT
BRANCH   1   8
ATOM      7  N   UNL     1      -3.317   0.239   0.044  0.00  0.00    +0.000 NA
ATOM      8  C   UNL     1      -1.954   0.161   0.309  0.00  0.00    +0.000 C 
ATOM      9  O   UNL     1      -1.137   0.026  -0.614  0.00  0.00    +0.000 OA
BRANCH   7  11
ATOM     10  C   UNL     1      -3.841  -1.516  -1.433  0.00  0.00    +0.000 C 
ATOM     11  C   UNL     1      -3.743   0.145  -1.484  0.00  0.00    +0.000 C 
BRANCH  11  12
ATOM     12  C   UNL     1      -5.305   0.405  -1.135  0.00  0.00    +0.000 A 
ATOM     13  C   UNL     1      -5.907  -0.321  -0.215  0.00  0.00    +0.000 A 
ATOM     14  C   UNL     1      -7.256  -0.026   0.062  0.00  0.00    +0.000 A 
ATOM     15  C   UNL     1      -7.893   0.978  -0.615  0.00  0.00    +0.000 A 
ATOM     16  C   UNL     1      -7.232   1.736  -1.586  0.00  0.00    +0.000 A 
ATOM     17  C   UNL     1      -5.938   1.414  -1.814  0.00  0.00    +0.000 A 
ENDBRANCH  11  12
ENDBRANCH   7  11
ENDBRANCH   1   8
BRANCH   6  18
ATOM     18  N   UNL     1       0.884   0.101   0.989  0.00  0.00    +0.000 NA
ATOM     19  C   UNL     1       2.268   0.111   1.321  0.00  0.00    +0.000 C 
ATOM     20  O   UNL     1       2.474   0.223   2.569  0.00  0.00    +0.000 OA
BRANCH  19  21
ATOM     21  C   UNL     1       3.341   0.008   0.327  0.00  0.00    +0.000 A 
ATOM     22  C   UNL     1       3.522  -1.004  -0.590  0.00  0.00    +0.000 A 
ATOM     23  C   UNL     1       4.591  -0.984  -1.496  0.00  0.00    +0.000 A 
ATOM     24  C   UNL     1       5.503   0.037  -1.522  0.00  0.00    +0.000 A 
ATOM     25  C   UNL     1       5.330   1.070  -0.599  0.00  0.00    +0.000 A 
ATOM     26  C   UNL     1       4.279   1.013   0.276  0.00  0.00    +0.000 A 
BRANCH  24  27
ATOM     27  C   UNL     1       6.650   0.098  -2.472  0.00  0.00    +0.000 C 
ATOM     28  C   UNL     1       7.268  -1.253  -2.579  0.00  0.00    +0.000 C 
ATOM     29  C   UNL     1       6.110   0.541  -3.797  0.00  0.00    +0.000 C 
ATOM     30  C   UNL     1       7.698   1.095  -1.985  0.00  0.00    +0.000 C 
ENDBRANCH  24  27
ENDBRANCH  19  21
ENDBRANCH   6  18
TORSDOF 6
