REMARK  Name = 
REMARK  7 active torsions:
REMARK  status: ('A' for Active; 'I' for Inactive)
REMARK    1  A    between atoms: C_5  and  C_6
REMARK    2  A    between atoms: N_8  and  C_9
REMARK    3  A    between atoms: C_9  and  C_16
REMARK    4  A    between atoms: C_10  and  C_11
REMARK    5  A    between atoms: N_18  and  C_19
REMARK    6  A    between atoms: C_19  and  C_20
REMARK    7  A    between atoms: C_20  and  C_21
REMARK                            x       y       z     vdW  Elec       q    Type
REMARK                         _______ _______ _______ _____ _____    ______ ____
ROOT
ATOM      1  C   UNL     1       0.668  -1.498  -0.088  0.00  0.00    +0.000 C 
ATOM      2  C   UNL     1       0.816  -2.785  -0.110  0.00  0.00    +0.000 C 
ENDROOT
BRANCH   2   3
ATOM      3  C   UNL     1      -0.161  -3.810   0.214  0.00  0.00    +0.000 A 
ATOM      4  C   UNL     1      -1.034  -3.962   1.228  0.00  0.00    +0.000 A 
ATOM      5  C   UNL     1      -1.825  -5.027   1.259  0.00  0.00    +0.000 A 
ATOM      6  C   UNL     1      -1.708  -5.931   0.242  0.00  0.00    +0.000 A 
ATOM      7  S   UNL     1      -0.484  -5.237  -0.719  0.00  0.00    +0.000 S 
ENDBRANCH   2   3
BRANCH   1  10
ATOM      8  C   UNL     1       2.330   0.305   0.448  0.00  0.00    +0.000 C 
ATOM      9  O   UNL     1       1.872   0.389   1.611  0.00  0.00    +0.000 OA
ATOM     10  N   UNL     1       1.775  -0.616  -0.443  0.00  0.00    +0.000 NA
BRANCH   8  15
ATOM     11  C   UNL     1       6.630   3.567  -1.495  0.00  0.00    +0.000 C 
ATOM     12  C   UNL     1       5.528   2.727  -0.966  0.00  0.00    +0.000 A 
ATOM     13  C   UNL     1       4.578   2.202  -1.835  0.00  0.00    +0.000 A 
ATOM     14  C   UNL     1       3.555   1.427  -1.363  0.00  0.00    +0.000 A 
ATOM     15  C   UNL     1       3.445   1.151  -0.022  0.00  0.00    +0.000 A 
ATOM     16  C   UNL     1       4.373   1.657   0.875  0.00  0.00    +0.000 A 
ATOM     17  C   UNL     1       5.396   2.437   0.370  0.00  0.00    +0.000 A 
ATOM     18  C   UNL     1       6.423   2.997   1.317  0.00  0.00    +0.000 C 
ENDBRANCH   8  15
ENDBRANCH   1  10
BRANCH   1  19
ATOM     19  C   UNL     1      -0.621  -0.927   0.256  0.00  0.00    +0.000 C 
ATOM     20  O   UNL     1      -1.637  -1.535   0.566  0.00  0.00    +0.000 OA
ATOM     21  N   UNL     1      -0.734   0.518   0.235  0.00  0.00    +0.000 NA
BRANCH  21  22
ATOM     22  C   UNL     1      -2.035   1.130   0.573  0.00  0.00    +0.000 C 
BRANCH  22  23
ATOM     23  C   UNL     1      -3.084   0.637  -0.405  0.00  0.00    +0.000 C 
BRANCH  23  24
ATOM     24  C   UNL     1      -4.421   1.186  -0.154  0.00  0.00    +0.000 A 
ATOM     25  C   UNL     1      -4.806   2.353  -0.748  0.00  0.00    +0.000 A 
ATOM     26  C   UNL     1      -6.072   2.874  -0.517  0.00  0.00    +0.000 A 
ATOM     27  C   UNL     1      -6.940   2.203   0.318  0.00  0.00    +0.000 A 
ATOM     28  C   UNL     1      -6.538   1.038   0.903  0.00  0.00    +0.000 A 
ATOM     29  C   UNL     1      -5.289   0.529   0.672  0.00  0.00    +0.000 A 
ENDBRANCH  23  24
ENDBRANCH  22  23
ENDBRANCH  21  22
ENDBRANCH   1  19
TORSDOF 7
