REMARK  Name = 
REMARK  6 active torsions:
REMARK  status: ('A' for Active; 'I' for Inactive)
REMARK    1  A    between atoms: O_2  and  C_3
REMARK    2  A    between atoms: C_8  and  N_9
REMARK    3  A    between atoms: C_10  and  C_12
REMARK    4  A    between atoms: C_13  and  N_14
REMARK    5  A    between atoms: C_15  and  C_17
REMARK    6  A    between atoms: C_17  and  C_18
REMARK                            x       y       z     vdW  Elec       q    Type
REMARK                         _______ _______ _______ _____ _____    ______ ____
ROOT
ATOM      1  C   UNL     1      -0.150   1.400  -0.051  0.00  0.00    +0.000 A 
ATOM      2  C   UNL     1       1.102   1.498  -0.508  0.00  0.00    +0.000 A 
ATOM      3  S   UNL     1       1.528   3.158  -0.017  0.00  0.00    +0.000 S 
ATOM      4  C   UNL     1       0.074   3.574   0.735  0.00  0.00    +0.000 A 
ATOM      5  C   UNL     1      -0.686   2.469   0.597  0.00  0.00    +0.000 A 
ATOM      6  C   UNL     1      -2.052   2.646   1.220  0.00  0.00    +0.000 C 
ATOM      7  C   UNL     1      -2.694   3.879   0.669  0.00  0.00    +0.000 C 
ATOM      8  C   UNL     1      -1.856   5.112   0.892  0.00  0.00    +0.000 C 
ATOM      9  C   UNL     1      -0.493   4.782   1.446  0.00  0.00    +0.000 C 
ENDROOT
BRANCH   1  11
ATOM     10  N   UNL     1      -2.300   0.078   0.223  0.00  0.00    +0.000 NA
ATOM     11  C   UNL     1      -1.030   0.253  -0.394  0.00  0.00    +0.000 C 
ATOM     12  O   UNL     1      -0.709  -0.601  -1.221  0.00  0.00    +0.000 OA
BRANCH  10  18
ATOM     13  C   UNL     1      -4.323  -1.209   0.550  0.00  0.00    +0.000 A 
ATOM     14  C   UNL     1      -5.142  -2.249   0.208  0.00  0.00    +0.000 A 
ATOM     15  C   UNL     1      -4.823  -3.130  -0.791  0.00  0.00    +0.000 A 
ATOM     16  C   UNL     1      -3.646  -2.974  -1.479  0.00  0.00    +0.000 A 
ATOM     17  C   UNL     1      -2.827  -1.926  -1.128  0.00  0.00    +0.000 A 
ATOM     18  C   UNL     1      -3.110  -1.024  -0.136  0.00  0.00    +0.000 A 
BRANCH  13  20
ATOM     19  C   UNL     1      -5.841  -0.475   2.262  0.00  0.00    +0.000 C 
ATOM     20  O   UNL     1      -4.639  -0.306   1.568  0.00  0.00    +0.000 OA
ENDBRANCH  13  20
ENDBRANCH  10  18
ENDBRANCH   1  11
BRANCH   2  21
ATOM     21  N   UNL     1       2.107   0.721  -1.039  0.00  0.00    +0.000 NA
ATOM     22  C   UNL     1       2.484  -0.563  -1.197  0.00  0.00    +0.000 C 
ATOM     23  O   UNL     1       1.794  -1.489  -0.744  0.00  0.00    +0.000 OA
BRANCH  22  24
ATOM     24  C   UNL     1       3.745  -1.006  -1.912  0.00  0.00    +0.000 C 
BRANCH  24  25
ATOM     25  C   UNL     1       4.700  -1.565  -0.911  0.00  0.00    +0.000 A 
ATOM     26  C   UNL     1       4.592  -2.884  -0.513  0.00  0.00    +0.000 A 
ATOM     27  C   UNL     1       5.467  -3.402   0.427  0.00  0.00    +0.000 A 
ATOM     28  C   UNL     1       6.446  -2.646   0.984  0.00  0.00    +0.000 A 
ATOM     29  C   UNL     1       6.579  -1.313   0.601  0.00  0.00    +0.000 A 
ATOM     30  C   UNL     1       5.702  -0.808  -0.338  0.00  0.00    +0.000 A 
ENDBRANCH  24  25
ENDBRANCH  22  24
ENDBRANCH   2  21
TORSDOF 6
