REMARK  Name = 
REMARK  8 active torsions:
REMARK  status: ('A' for Active; 'I' for Inactive)
REMARK    1  A    between atoms: O_2  and  C_3
REMARK    2  A    between atoms: C_8  and  O_9
REMARK    3  A    between atoms: O_9  and  C_10
REMARK    4  A    between atoms: C_10  and  C_11
REMARK    5  A    between atoms: C_11  and  N_12
REMARK    6  A    between atoms: C_14  and  C_15
REMARK    7  A    between atoms: C_15  and  O_16
REMARK    8  A    between atoms: O_16  and  C_17
REMARK                            x       y       z     vdW  Elec       q    Type
REMARK                         _______ _______ _______ _____ _____    ______ ____
ROOT
ATOM      1  N   UNL     1       0.591  -0.415   1.170  0.00  0.00    +0.000 N 
ATOM      2  C   UNL     1      -0.570  -1.283   1.094  0.00  0.00    +0.000 C 
ATOM      3  C   UNL     1      -1.306  -0.819   2.491  0.00  0.00    +0.000 C 
ATOM      4  O   UNL     1      -1.170   0.698   2.175  0.00  0.00    +0.000 OA
ATOM      5  C   UNL     1       0.102   0.820   1.679  0.00  0.00    +0.000 C 
ATOM      6  O   UNL     1       0.768   1.891   1.670  0.00  0.00    +0.000 OA
ENDROOT
BRANCH   1   7
ATOM      7  C   UNL     1       1.948  -0.760   0.799  0.00  0.00    +0.000 C 
BRANCH   7   8
ATOM      8  C   UNL     1       2.653  -1.330   2.022  0.00  0.00    +0.000 C 
BRANCH   8   9
ATOM      9  O   UNL     1       3.974  -1.689   1.744  0.00  0.00    +0.000 OA
BRANCH   9  15
ATOM     10  C   UNL     1       6.183  -1.137   1.037  0.00  0.00    +0.000 A 
ATOM     11  C   UNL     1       7.074  -0.185   0.598  0.00  0.00    +0.000 A 
ATOM     12  C   UNL     1       6.685   1.123   0.427  0.00  0.00    +0.000 A 
ATOM     13  C   UNL     1       5.376   1.526   0.692  0.00  0.00    +0.000 A 
ATOM     14  C   UNL     1       4.499   0.550   1.132  0.00  0.00    +0.000 A 
ATOM     15  C   UNL     1       4.878  -0.745   1.304  0.00  0.00    +0.000 A 
BRANCH  10  17
ATOM     16  C   UNL     1       7.872  -2.873   0.950  0.00  0.00    +0.000 C 
ATOM     17  O   UNL     1       6.553  -2.462   1.216  0.00  0.00    +0.000 OA
ENDBRANCH  10  17
ENDBRANCH   9  15
ENDBRANCH   8   9
ENDBRANCH   7   8
ENDBRANCH   1   7
BRANCH   3  18
ATOM     18  C   UNL     1      -2.835  -0.943   1.931  0.00  0.00    +0.000 C 
BRANCH  18  19
ATOM     19  O   UNL     1      -3.006  -0.637   0.685  0.00  0.00    +0.000 OA
BRANCH  19  20
ATOM     20  C   UNL     1      -2.798  -0.807  -0.609  0.00  0.00    +0.000 A 
ATOM     21  C   UNL     1      -2.017  -1.775  -1.203  0.00  0.00    +0.000 A 
ATOM     22  C   UNL     1      -1.811  -1.945  -2.535  0.00  0.00    +0.000 A 
ATOM     23  C   UNL     1      -2.436  -1.073  -3.396  0.00  0.00    +0.000 A 
ATOM     24  C   UNL     1      -3.234  -0.080  -2.871  0.00  0.00    +0.000 A 
ATOM     25  N   UNL     1      -3.945   0.885  -3.489  0.00  0.00    +0.000 NA
ATOM     26  C   UNL     1      -4.585   1.648  -2.587  0.00  0.00    +0.000 A 
ATOM     27  C   UNL     1      -5.424   2.744  -2.728  0.00  0.00    +0.000 A 
ATOM     28  C   UNL     1      -5.932   3.317  -1.586  0.00  0.00    +0.000 A 
ATOM     29  C   UNL     1      -5.618   2.820  -0.338  0.00  0.00    +0.000 A 
ATOM     30  C   UNL     1      -4.773   1.717  -0.185  0.00  0.00    +0.000 A 
ATOM     31  C   UNL     1      -4.269   1.148  -1.330  0.00  0.00    +0.000 A 
ATOM     32  C   UNL     1      -3.426   0.071  -1.520  0.00  0.00    +0.000 A 
ENDBRANCH  19  20
ENDBRANCH  18  19
ENDBRANCH   3  18
TORSDOF 8
