REMARK  Name = 
REMARK  7 active torsions:
REMARK  status: ('A' for Active; 'I' for Inactive)
REMARK    1  A    between atoms: C_5  and  S_6
REMARK    2  A    between atoms: S_6  and  N_9
REMARK    3  A    between atoms: N_9  and  C_10
REMARK    4  A    between atoms: C_10  and  C_11
REMARK    5  A    between atoms: C_11  and  C_12
REMARK    6  A    between atoms: N_15  and  C_16
REMARK    7  A    between atoms: C_16  and  C_17
REMARK                            x       y       z     vdW  Elec       q    Type
REMARK                         _______ _______ _______ _____ _____    ______ ____
ROOT
ATOM      1  C   UNL     1      -0.584   0.291   1.161  0.00  0.00    +0.000 A 
ATOM      2  C   UNL     1      -1.377  -0.004   0.073  0.00  0.00    +0.000 A 
ATOM      3  C   UNL     1      -1.132  -1.101  -0.892  0.00  0.00    +0.000 C 
ATOM      4  N   UNL     1      -2.405   0.856   0.023  0.00  0.00    +0.000 N 
ATOM      5  C   UNL     1      -2.269   1.691   1.068  0.00  0.00    +0.000 A 
ATOM      6  C   UNL     1      -3.059   2.753   1.466  0.00  0.00    +0.000 A 
ATOM      7  C   UNL     1      -2.730   3.485   2.581  0.00  0.00    +0.000 A 
ATOM      8  C   UNL     1      -1.614   3.156   3.299  0.00  0.00    +0.000 A 
ATOM      9  C   UNL     1      -0.823   2.110   2.918  0.00  0.00    +0.000 A 
ATOM     10  C   UNL     1      -1.148   1.377   1.804  0.00  0.00    +0.000 A 
ENDROOT
BRANCH   1  11
ATOM     11  C   UNL     1       0.656  -0.359   1.648  0.00  0.00    +0.000 C 
BRANCH  11  12
ATOM     12  C   UNL     1       1.847   0.024   0.798  0.00  0.00    +0.000 C 
BRANCH  12  13
ATOM     13  N   UNL     1       1.632  -0.386  -0.577  0.00  0.00    +0.000 NA
BRANCH  13  14
ATOM     14  S   UNL     1       2.967   0.032  -1.581  0.00  0.00    +0.000 S 
ATOM     15  O   UNL     1       2.634  -0.424  -2.978  0.00  0.00    +0.000 OA
ATOM     16  O   UNL     1       3.108   1.528  -1.566  0.00  0.00    +0.000 OA
BRANCH  14  21
ATOM     17  C   UNL     1       8.064  -2.722   0.249  0.00  0.00    +0.000 C 
ATOM     18  C   UNL     1       6.810  -2.040  -0.200  0.00  0.00    +0.000 A 
ATOM     19  C   UNL     1       5.971  -2.626  -1.125  0.00  0.00    +0.000 A 
ATOM     20  C   UNL     1       4.814  -2.002  -1.541  0.00  0.00    +0.000 A 
ATOM     21  C   UNL     1       4.437  -0.767  -1.058  0.00  0.00    +0.000 A 
ATOM     22  C   UNL     1       5.287  -0.181  -0.126  0.00  0.00    +0.000 A 
ATOM     23  C   UNL     1       6.443  -0.805   0.290  0.00  0.00    +0.000 A 
ENDBRANCH  14  21
ENDBRANCH  13  14
ENDBRANCH  12  13
ENDBRANCH  11  12
ENDBRANCH   1  11
BRANCH   4  24
ATOM     24  C   UNL     1      -3.459   0.882  -0.965  0.00  0.00    +0.000 C 
BRANCH  24  25
ATOM     25  C   UNL     1      -4.611   0.039  -0.567  0.00  0.00    +0.000 A 
ATOM     26  C   UNL     1      -4.654  -1.283  -0.951  0.00  0.00    +0.000 A 
ATOM     27  C   UNL     1      -5.706  -2.131  -0.609  0.00  0.00    +0.000 A 
ATOM     28  C   UNL     1      -6.758  -1.626   0.151  0.00  0.00    +0.000 A 
ATOM     29  C   UNL     1      -6.689  -0.302   0.521  0.00  0.00    +0.000 A 
ATOM     30  C   UNL     1      -5.650   0.535   0.184  0.00  0.00    +0.000 A 
ENDBRANCH  24  25
ENDBRANCH   4  24
TORSDOF 7
