REMARK  Name = 
REMARK  8 active torsions:
REMARK  status: ('A' for Active; 'I' for Inactive)
REMARK    1  A    between atoms: O_2  and  C_3
REMARK    2  A    between atoms: C_9  and  N_10
REMARK    3  A    between atoms: C_11  and  C_13
REMARK    4  A    between atoms: C_13  and  O_14
REMARK    5  A    between atoms: C_13  and  C_27
REMARK    6  A    between atoms: O_14  and  C_15
REMARK    7  A    between atoms: C_15  and  C_17
REMARK    8  A    between atoms: C_20  and  C_21
REMARK                            x       y       z     vdW  Elec       q    Type
REMARK                         _______ _______ _______ _____ _____    ______ ____
ROOT
ATOM      1  C   UNL     1      -0.574   1.068  -0.962  0.00  0.00    +0.000 C 
ENDROOT
BRANCH   1   2
ATOM      2  C   UNL     1      -0.644   2.259   0.040  0.00  0.00    +0.000 A 
ATOM      3  C   UNL     1      -1.137   2.179   1.244  0.00  0.00    +0.000 A 
ATOM      4  C   UNL     1      -1.212   3.285   2.081  0.00  0.00    +0.000 A 
ATOM      5  C   UNL     1      -0.735   4.517   1.603  0.00  0.00    +0.000 A 
ATOM      6  C   UNL     1      -0.224   4.539   0.318  0.00  0.00    +0.000 A 
ATOM      7  C   UNL     1      -0.169   3.443  -0.467  0.00  0.00    +0.000 A 
ENDBRANCH   1   2
BRANCH   1   9
ATOM      8  N   UNL     1      -2.901   0.004  -1.182  0.00  0.00    +0.000 NA
ATOM      9  C   UNL     1      -1.690   0.099  -0.601  0.00  0.00    +0.000 C 
ATOM     10  O   UNL     1      -1.348  -0.636   0.383  0.00  0.00    +0.000 OA
BRANCH   8  17
ATOM     11  C   UNL     1      -4.986  -1.233  -1.500  0.00  0.00    +0.000 A 
ATOM     12  C   UNL     1      -6.136  -1.822  -0.950  0.00  0.00    +0.000 A 
ATOM     13  C   UNL     1      -6.236  -1.955   0.395  0.00  0.00    +0.000 A 
ATOM     14  C   UNL     1      -5.179  -1.497   1.215  0.00  0.00    +0.000 A 
ATOM     15  C   UNL     1      -5.306  -1.672   2.722  0.00  0.00    +0.000 C 
ATOM     16  C   UNL     1      -4.080  -0.926   0.661  0.00  0.00    +0.000 A 
ATOM     17  C   UNL     1      -3.975  -0.787  -0.742  0.00  0.00    +0.000 A 
BRANCH  11  19
ATOM     18  C   UNL     1      -5.882  -1.496  -3.799  0.00  0.00    +0.000 C 
ATOM     19  O   UNL     1      -4.880  -1.108  -2.899  0.00  0.00    +0.000 OA
ENDBRANCH  11  19
ENDBRANCH   8  17
ENDBRANCH   1   9
BRANCH   1  20
ATOM     20  O   UNL     1       0.689   0.362  -0.679  0.00  0.00    +0.000 OA
BRANCH  20  21
ATOM     21  C   UNL     1       1.710   0.800   0.086  0.00  0.00    +0.000 C 
ATOM     22  O   UNL     1       1.573   1.868   0.784  0.00  0.00    +0.000 OA
BRANCH  21  23
ATOM     23  C   UNL     1       3.017   0.113   0.128  0.00  0.00    +0.000 A 
ATOM     24  C   UNL     1       3.328  -0.552  -1.028  0.00  0.00    +0.000 A 
ATOM     25  C   UNL     1       4.549  -1.232  -1.097  0.00  0.00    +0.000 A 
ATOM     26  C   UNL     1       5.372  -1.201  -0.010  0.00  0.00    +0.000 A 
ATOM     27  C   UNL     1       5.025  -0.525   1.143  0.00  0.00    +0.000 A 
ATOM     28  C   UNL     1       3.802   0.143   1.187  0.00  0.00    +0.000 A 
BRANCH  26  29
ATOM     29  C   UNL     1       6.723  -1.827  -0.087  0.00  0.00    +0.000 C 
ATOM     30  C   UNL     1       7.417  -1.603   1.242  0.00  0.00    +0.000 C 
ATOM     31  C   UNL     1       7.573  -1.260  -1.191  0.00  0.00    +0.000 C 
ATOM     32  C   UNL     1       6.515  -3.346  -0.252  0.00  0.00    +0.000 C 
ENDBRANCH  26  29
ENDBRANCH  21  23
ENDBRANCH  20  21
ENDBRANCH   1  20
TORSDOF 8
