REMARK  Name = 
REMARK  6 active torsions:
REMARK  status: ('A' for Active; 'I' for Inactive)
REMARK    1  A    between atoms: C_2  and  C_3
REMARK    2  A    between atoms: C_8  and  C_9
REMARK    3  A    between atoms: N_11  and  C_12
REMARK    4  A    between atoms: C_17  and  C_18
REMARK    5  A    between atoms: C_18  and  C_19
REMARK    6  A    between atoms: C_28  and  C_29
REMARK                            x       y       z     vdW  Elec       q    Type
REMARK                         _______ _______ _______ _____ _____    ______ ____
ROOT
ATOM      1  C   UNL     1       0.585   1.493   0.191  0.00  0.00    +0.000 C 
ATOM      2  O   UNL     1       0.617   2.481   0.932  0.00  0.00    +0.000 OA
ATOM      3  N   UNL     1       1.718   1.148  -0.567  0.00  0.00    +0.000 NA
ENDROOT
BRANCH   1   9
ATOM      4  C   UNL     1      -5.104  -1.493   0.408  0.00  0.00    +0.000 A 
ATOM      5  N   UNL     1      -3.998  -1.747  -0.290  0.00  0.00    +0.000 NA
ATOM      6  C   UNL     1      -2.892  -0.975  -0.181  0.00  0.00    +0.000 A 
ATOM      7  C   UNL     1      -1.756  -1.244  -0.906  0.00  0.00    +0.000 A 
ATOM      8  C   UNL     1      -0.651  -0.436  -0.769  0.00  0.00    +0.000 A 
ATOM      9  C   UNL     1      -0.609   0.654   0.071  0.00  0.00    +0.000 A 
ATOM     10  C   UNL     1      -1.758   0.916   0.797  0.00  0.00    +0.000 A 
ATOM     11  C   UNL     1      -2.882   0.127   0.683  0.00  0.00    +0.000 A 
ATOM     12  N   UNL     1      -3.997   0.369   1.376  0.00  0.00    +0.000 NA
ATOM     13  C   UNL     1      -5.098  -0.393   1.272  0.00  0.00    +0.000 A 
BRANCH   4  15
ATOM     14  C   UNL     1      -6.423  -3.242   1.512  0.00  0.00    +0.000 C 
ATOM     15  C   UNL     1      -6.330  -2.349   0.285  0.00  0.00    +0.000 C 
ENDBRANCH   4  15
BRANCH  13  16
ATOM     16  C   UNL     1      -6.349  -0.147   2.033  0.00  0.00    +0.000 C 
ATOM     17  C   UNL     1      -7.439   0.465   1.215  0.00  0.00    +0.000 C 
ENDBRANCH  13  16
ENDBRANCH   1   9
BRANCH   3  18
ATOM     18  C   UNL     1       2.934   1.848  -0.565  0.00  0.00    +0.000 A 
ATOM     19  C   UNL     1       3.089   2.981   0.227  0.00  0.00    +0.000 A 
ATOM     20  C   UNL     1       4.299   3.666   0.216  0.00  0.00    +0.000 A 
ATOM     21  C   UNL     1       5.357   3.250  -0.563  0.00  0.00    +0.000 A 
ATOM     22  C   UNL     1       5.219   2.138  -1.347  0.00  0.00    +0.000 A 
ATOM     23  C   UNL     1       3.999   1.451  -1.333  0.00  0.00    +0.000 A 
BRANCH  23  24
ATOM     24  C   UNL     1       3.813   0.227  -2.176  0.00  0.00    +0.000 C 
BRANCH  24  25
ATOM     25  C   UNL     1       3.897  -0.948  -1.277  0.00  0.00    +0.000 A 
ATOM     26  C   UNL     1       5.117  -1.576  -0.997  0.00  0.00    +0.000 A 
ATOM     27  C   UNL     1       5.125  -2.668  -0.149  0.00  0.00    +0.000 A 
ATOM     28  C   UNL     1       3.981  -3.175   0.440  0.00  0.00    +0.000 A 
ATOM     29  C   UNL     1       2.775  -2.541   0.154  0.00  0.00    +0.000 A 
ATOM     30  C   UNL     1       2.758  -1.451  -0.691  0.00  0.00    +0.000 A 
ENDBRANCH  24  25
ENDBRANCH  23  24
ENDBRANCH   3  18
TORSDOF 6
