REMARK  Name = 
REMARK  6 active torsions:
REMARK  status: ('A' for Active; 'I' for Inactive)
REMARK    1  A    between atoms: C_2  and  N_3
REMARK    2  A    between atoms: C_2  and  C_27
REMARK    3  A    between atoms: C_4  and  C_6
REMARK    4  A    between atoms: C_7  and  N_8
REMARK    5  A    between atoms: C_9  and  C_11
REMARK    6  A    between atoms: C_21  and  C_22
REMARK                            x       y       z     vdW  Elec       q    Type
REMARK                         _______ _______ _______ _____ _____    ______ ____
ROOT
ATOM      1  C   UNL     1      -0.651  -0.227  -0.481  0.00  0.00    +0.000 A 
ATOM      2  C   UNL     1      -1.809  -0.879  -0.784  0.00  0.00    +0.000 A 
ATOM      3  S   UNL     1      -2.814   0.463  -1.406  0.00  0.00    +0.000 S 
ATOM      4  C   UNL     1      -1.726   1.716  -1.234  0.00  0.00    +0.000 A 
ATOM      5  C   UNL     1      -0.616   1.111  -0.712  0.00  0.00    +0.000 A 
ATOM      6  C   UNL     1       0.482   2.170  -0.492  0.00  0.00    +0.000 C 
ATOM      7  C   UNL     1      -0.108   3.115   0.447  0.00  0.00    +0.000 C 
ATOM      8  C   UNL     1      -1.373   3.905  -0.059  0.00  0.00    +0.000 C 
ATOM      9  C   UNL     1      -1.627   3.226  -1.476  0.00  0.00    +0.000 C 
ENDROOT
BRANCH   8  10
ATOM     10  C   UNL     1      -0.566   5.188  -0.645  0.00  0.00    +0.000 C 
ATOM     11  C   UNL     1       0.168   5.776   0.535  0.00  0.00    +0.000 C 
ATOM     12  C   UNL     1      -1.570   6.114  -1.245  0.00  0.00    +0.000 C 
ATOM     13  C   UNL     1       0.366   4.704  -1.721  0.00  0.00    +0.000 C 
ENDBRANCH   8  10
BRANCH   1  15
ATOM     14  N   UNL     1       1.752  -0.222   0.352  0.00  0.00    +0.000 NA
ATOM     15  C   UNL     1       0.605  -0.945  -0.044  0.00  0.00    +0.000 C 
ATOM     16  O   UNL     1       0.669  -2.161  -0.019  0.00  0.00    +0.000 OA
BRANCH  14  18
ATOM     17  C   UNL     1       2.378  -1.363   2.305  0.00  0.00    +0.000 C 
ATOM     18  C   UNL     1       2.900  -1.206   0.752  0.00  0.00    +0.000 C 
BRANCH  18  19
ATOM     19  C   UNL     1       3.979  -0.076   1.079  0.00  0.00    +0.000 A 
ATOM     20  C   UNL     1       3.685   1.002   1.795  0.00  0.00    +0.000 A 
ATOM     21  C   UNL     1       4.641   1.948   2.051  0.00  0.00    +0.000 A 
ATOM     22  C   UNL     1       5.898   1.755   1.554  0.00  0.00    +0.000 A 
ATOM     23  C   UNL     1       6.208   0.641   0.813  0.00  0.00    +0.000 A 
ATOM     24  C   UNL     1       5.226  -0.322   0.555  0.00  0.00    +0.000 A 
ENDBRANCH  18  19
ENDBRANCH  14  18
ENDBRANCH   1  15
BRANCH   2  25
ATOM     25  N   UNL     1      -2.376  -2.123  -0.621  0.00  0.00    +0.000 NA
ATOM     26  C   UNL     1      -2.322  -3.308  -0.012  0.00  0.00    +0.000 C 
ATOM     27  O   UNL     1      -1.432  -3.535   0.820  0.00  0.00    +0.000 OA
BRANCH  26  28
ATOM     28  C   UNL     1      -3.273  -4.444  -0.241  0.00  0.00    +0.000 A 
ATOM     29  C   UNL     1      -3.251  -5.656   0.369  0.00  0.00    +0.000 A 
ATOM     30  C   UNL     1      -4.290  -6.395  -0.127  0.00  0.00    +0.000 A 
ATOM     31  C   UNL     1      -4.887  -5.554  -1.032  0.00  0.00    +0.000 A 
ATOM     32  O   UNL     1      -4.267  -4.415  -1.076  0.00  0.00    +0.000 OA
ENDBRANCH  26  28
ENDBRANCH   2  25
TORSDOF 6
