REMARK  Name = 
REMARK  7 active torsions:
REMARK  status: ('A' for Active; 'I' for Inactive)
REMARK    1  A    between atoms: C_2  and  C_3
REMARK    2  A    between atoms: C_8  and  N_9
REMARK    3  A    between atoms: N_9  and  C_10
REMARK    4  A    between atoms: C_11  and  S_12
REMARK    5  A    between atoms: S_12  and  C_13
REMARK    6  A    between atoms: N_21  and  C_22
REMARK    7  A    between atoms: C_25  and  C_26
REMARK                            x       y       z     vdW  Elec       q    Type
REMARK                         _______ _______ _______ _____ _____    ______ ____
ROOT
ATOM      1  C   UNL     1      -1.124  -0.908  -0.705  0.00  0.00    +0.000 C 
ATOM      2  C   UNL     1      -1.095   0.409  -0.620  0.00  0.00    +0.000 C 
ATOM      3  C   UNL     1       0.268   0.872  -0.357  0.00  0.00    +0.000 C 
ATOM      4  O   UNL     1       0.624   2.095  -0.220  0.00  0.00    +0.000 OA
ATOM      5  N   UNL     1       1.113  -0.264  -0.281  0.00  0.00    +0.000 N 
ATOM      6  C   UNL     1       0.238  -1.383  -0.500  0.00  0.00    +0.000 C 
ATOM      7  O   UNL     1       0.644  -2.567  -0.503  0.00  0.00    +0.000 OA
ENDROOT
BRANCH   5   8
ATOM      8  C   UNL     1       2.506  -0.283  -0.038  0.00  0.00    +0.000 A 
ATOM      9  C   UNL     1       3.101   0.739   0.659  0.00  0.00    +0.000 A 
ATOM     10  C   UNL     1       4.462   0.720   0.900  0.00  0.00    +0.000 A 
ATOM     11  C   UNL     1       5.227  -0.312   0.448  0.00  0.00    +0.000 A 
ATOM     12  C   UNL     1       4.646  -1.341  -0.250  0.00  0.00    +0.000 A 
ATOM     13  C   UNL     1       3.270  -1.329  -0.497  0.00  0.00    +0.000 A 
BRANCH  11  14
ATOM     14  C   UNL     1       6.689  -0.339   0.707  0.00  0.00    +0.000 C 
ATOM     15  C   UNL     1       7.156   1.009   1.204  0.00  0.00    +0.000 C 
ATOM     16  C   UNL     1       7.439  -0.648  -0.554  0.00  0.00    +0.000 C 
ENDBRANCH  11  14
ENDBRANCH   5   8
BRANCH   1  17
ATOM     17  N   UNL     1      -2.287  -1.727  -0.951  0.00  0.00    +0.000 NA
BRANCH  17  23
ATOM     18  C   UNL     1      -3.998  -3.177  -0.002  0.00  0.00    +0.000 A 
ATOM     19  C   UNL     1      -4.560  -3.800   1.077  0.00  0.00    +0.000 A 
ATOM     20  C   UNL     1      -4.060  -3.677   2.353  0.00  0.00    +0.000 A 
ATOM     21  C   UNL     1      -2.940  -2.878   2.499  0.00  0.00    +0.000 A 
ATOM     22  C   UNL     1      -2.352  -2.237   1.430  0.00  0.00    +0.000 A 
ATOM     23  C   UNL     1      -2.885  -2.383   0.149  0.00  0.00    +0.000 A 
BRANCH  18  25
ATOM     24  C   UNL     1      -5.307  -2.047  -1.710  0.00  0.00    +0.000 C 
ATOM     25  C   UNL     1      -4.559  -3.325  -1.380  0.00  0.00    +0.000 C 
ENDBRANCH  18  25
ENDBRANCH  17  23
ENDBRANCH   1  17
BRANCH   2  26
ATOM     26  S   UNL     1      -2.489   1.523  -0.787  0.00  0.00    +0.000 S 
BRANCH  26  27
ATOM     27  C   UNL     1      -1.996   3.221  -0.584  0.00  0.00    +0.000 A 
ATOM     28  C   UNL     1      -1.597   4.042  -1.619  0.00  0.00    +0.000 A 
ATOM     29  C   UNL     1      -1.226   5.345  -1.389  0.00  0.00    +0.000 A 
ATOM     30  C   UNL     1      -1.249   5.856  -0.105  0.00  0.00    +0.000 A 
ATOM     31  C   UNL     1      -1.645   5.044   0.928  0.00  0.00    +0.000 A 
ATOM     32  C   UNL     1      -2.012   3.753   0.698  0.00  0.00    +0.000 A 
ENDBRANCH  26  27
ENDBRANCH   2  26
TORSDOF 7
