REMARK  Name = 
REMARK  4 active torsions:
REMARK  status: ('A' for Active; 'I' for Inactive)
REMARK    1  A    between atoms: O_2  and  C_3
REMARK    2  A    between atoms: C_8  and  C_9
REMARK    3  A    between atoms: C_11  and  C_12
REMARK    4  A    between atoms: C_22  and  C_23
REMARK                            x       y       z     vdW  Elec       q    Type
REMARK                         _______ _______ _______ _____ _____    ______ ____
ROOT
ATOM      1  C   UNL     1      -0.650   0.999   0.149  0.00  0.00    +0.000 A 
ATOM      2  C   UNL     1      -1.832   0.321  -0.055  0.00  0.00    +0.000 A 
ATOM      3  C   UNL     1      -1.954  -1.043  -0.152  0.00  0.00    +0.000 A 
ATOM      4  N   UNL     1      -0.803  -1.722  -0.032  0.00  0.00    +0.000 NA
ATOM      5  C   UNL     1       0.396  -1.093   0.171  0.00  0.00    +0.000 A 
ATOM      6  S   UNL     1       1.987  -1.689   0.343  0.00  0.00    +0.000 S 
ATOM      7  C   UNL     1       2.811  -0.216   0.535  0.00  0.00    +0.000 A 
ATOM      8  C   UNL     1       1.813   0.715   0.460  0.00  0.00    +0.000 A 
ATOM      9  N   UNL     1       2.163   2.128   0.570  0.00  0.00    +0.000 NA
ATOM     10  C   UNL     1       0.552   0.265   0.272  0.00  0.00    +0.000 A 
ENDROOT
BRANCH   3  11
ATOM     11  C   UNL     1      -3.225  -1.715  -0.370  0.00  0.00    +0.000 A 
ATOM     12  C   UNL     1      -4.418  -1.030  -0.494  0.00  0.00    +0.000 A 
ATOM     13  C   UNL     1      -5.594  -1.718  -0.701  0.00  0.00    +0.000 A 
ATOM     14  C   UNL     1      -5.620  -3.101  -0.791  0.00  0.00    +0.000 A 
ATOM     15  C   UNL     1      -6.896  -3.846  -1.017  0.00  0.00    +0.000 C 
ATOM     16  C   UNL     1      -4.427  -3.771  -0.667  0.00  0.00    +0.000 A 
ATOM     17  C   UNL     1      -3.251  -3.071  -0.459  0.00  0.00    +0.000 A 
ENDBRANCH   3  11
BRANCH   7  18
ATOM     18  C   UNL     1       4.261   0.029   0.737  0.00  0.00    +0.000 C 
ATOM     19  O   UNL     1       4.709   1.185   0.864  0.00  0.00    +0.000 OA
ATOM     20  N   UNL     1       5.114  -1.098   0.781  0.00  0.00    +0.000 N 
ATOM     21  C   UNL     1       4.702  -2.490   0.646  0.00  0.00    +0.000 C 
ATOM     22  C   UNL     1       5.937  -3.208   0.155  0.00  0.00    +0.000 C 
ATOM     23  C   UNL     1       7.111  -2.303   0.379  0.00  0.00    +0.000 C 
ATOM     24  C   UNL     1       6.543  -1.026   0.964  0.00  0.00    +0.000 C 
ENDBRANCH   7  18
BRANCH   1  30
ATOM     25  C   UNL     1      -1.373   3.176  -0.713  0.00  0.00    +0.000 A 
ATOM     26  C   UNL     1      -1.457   4.548  -0.553  0.00  0.00    +0.000 A 
ATOM     27  C   UNL     1      -0.922   5.207   0.531  0.00  0.00    +0.000 A 
ATOM     28  C   UNL     1      -0.280   4.449   1.488  0.00  0.00    +0.000 A 
ATOM     29  C   UNL     1      -0.195   3.088   1.331  0.00  0.00    +0.000 A 
ATOM     30  C   UNL     1      -0.722   2.442   0.265  0.00  0.00    +0.000 A 
BRANCH  25  32
ATOM     31  C   UNL     1      -2.583   3.090  -2.856  0.00  0.00    +0.000 C 
ATOM     32  O   UNL     1      -1.897   2.499  -1.782  0.00  0.00    +0.000 OA
ENDBRANCH  25  32
ENDBRANCH   1  30
TORSDOF 4
