REMARK  Name = 
REMARK  7 active torsions:
REMARK  status: ('A' for Active; 'I' for Inactive)
REMARK    1  A    between atoms: C_6  and  C_7
REMARK    2  A    between atoms: N_8  and  N_9
REMARK    3  A    between atoms: C_10  and  C_12
REMARK    4  A    between atoms: C_12  and  S_13
REMARK    5  A    between atoms: S_13  and  C_14
REMARK    6  A    between atoms: N_22  and  C_23
REMARK    7  A    between atoms: C_23  and  C_24
REMARK                            x       y       z     vdW  Elec       q    Type
REMARK                         _______ _______ _______ _____ _____    ______ ____
ROOT
ATOM      1  C   UNL     1      -1.837  -0.918   1.520  0.00  0.00    +0.000 A 
ATOM      2  N   UNL     1      -2.315  -2.193   1.656  0.00  0.00    +0.000 NA
ATOM      3  C   UNL     1      -2.674  -2.686   0.478  0.00  0.00    +0.000 A 
ATOM      4  C   UNL     1      -3.203  -3.889   0.036  0.00  0.00    +0.000 A 
ATOM      5  C   UNL     1      -3.467  -4.081  -1.300  0.00  0.00    +0.000 A 
ATOM      6  C   UNL     1      -3.212  -3.094  -2.207  0.00  0.00    +0.000 A 
ATOM      7  C   UNL     1      -2.687  -1.888  -1.805  0.00  0.00    +0.000 A 
ATOM      8  C   UNL     1      -2.430  -1.719  -0.452  0.00  0.00    +0.000 A 
ATOM      9  N   UNL     1      -1.919  -0.651   0.223  0.00  0.00    +0.000 N 
ENDROOT
BRANCH   1  10
ATOM     10  S   UNL     1      -1.250   0.050   2.904  0.00  0.00    +0.000 S 
BRANCH  10  11
ATOM     11  C   UNL     1      -0.608   1.645   2.400  0.00  0.00    +0.000 C 
BRANCH  11  13
ATOM     12  N   UNL     1       1.224   0.186   1.341  0.00  0.00    +0.000 NA
ATOM     13  C   UNL     1       0.647   1.453   1.604  0.00  0.00    +0.000 C 
ATOM     14  O   UNL     1       1.242   2.467   1.132  0.00  0.00    +0.000 OA
BRANCH  12  16
ATOM     15  C   UNL     1       3.559   0.391   1.025  0.00  0.00    +0.000 C 
ATOM     16  N   UNL     1       2.397   0.130   0.588  0.00  0.00    +0.000 NA
BRANCH  15  22
ATOM     17  C   UNL     1       5.828  -0.486  -3.342  0.00  0.00    +0.000 C 
ATOM     18  C   UNL     1       5.864  -0.104  -1.915  0.00  0.00    +0.000 A 
ATOM     19  C   UNL     1       7.091   0.197  -1.357  0.00  0.00    +0.000 A 
ATOM     20  C   UNL     1       7.164   0.560  -0.021  0.00  0.00    +0.000 A 
ATOM     21  C   UNL     1       6.004   0.615   0.728  0.00  0.00    +0.000 A 
ATOM     22  C   UNL     1       4.765   0.322   0.202  0.00  0.00    +0.000 A 
ATOM     23  C   UNL     1       4.710  -0.038  -1.128  0.00  0.00    +0.000 A 
ENDBRANCH  15  22
ENDBRANCH  12  16
ENDBRANCH  11  13
ENDBRANCH  10  11
ENDBRANCH   1  10
BRANCH   9  24
ATOM     24  C   UNL     1      -1.518   0.603  -0.401  0.00  0.00    +0.000 C 
BRANCH  24  25
ATOM     25  C   UNL     1      -2.740   1.457  -0.509  0.00  0.00    +0.000 A 
ATOM     26  C   UNL     1      -3.472   1.301  -1.679  0.00  0.00    +0.000 A 
ATOM     27  C   UNL     1      -4.609   2.023  -1.905  0.00  0.00    +0.000 A 
ATOM     28  C   UNL     1      -5.061   2.930  -0.969  0.00  0.00    +0.000 A 
ATOM     29  C   UNL     1      -4.321   3.068   0.183  0.00  0.00    +0.000 A 
ATOM     30  C   UNL     1      -3.171   2.350   0.431  0.00  0.00    +0.000 A 
ENDBRANCH  24  25
ENDBRANCH   9  24
TORSDOF 7
