REMARK  Name = 
REMARK  6 active torsions:
REMARK  status: ('A' for Active; 'I' for Inactive)
REMARK    1  A    between atoms: C_9  and  C_10
REMARK    2  A    between atoms: C_16  and  C_17
REMARK    3  A    between atoms: N_23  and  C_24
REMARK    4  A    between atoms: C_24  and  C_25
REMARK    5  A    between atoms: C_25  and  C_27
REMARK    6  A    between atoms: C_27  and  N_28
REMARK                            x       y       z     vdW  Elec       q    Type
REMARK                         _______ _______ _______ _____ _____    ______ ____
ROOT
ATOM      1  C   UNL     1      -1.839  -5.307  -0.880  0.00  0.00    +0.000 C 
ATOM      2  C   UNL     1      -1.302  -3.920  -0.834  0.00  0.00    +0.000 A 
ATOM      3  C   UNL     1      -0.022  -3.659  -1.302  0.00  0.00    +0.000 A 
ATOM      4  C   UNL     1       0.485  -2.376  -1.264  0.00  0.00    +0.000 A 
ATOM      5  C   UNL     1       1.816  -2.207  -1.874  0.00  0.00    +0.000 C 
ATOM      6  C   UNL     1      -0.218  -1.293  -0.771  0.00  0.00    +0.000 A 
ATOM      7  C   UNL     1      -1.517  -1.556  -0.299  0.00  0.00    +0.000 A 
ATOM      8  C   UNL     1      -1.996  -2.848  -0.351  0.00  0.00    +0.000 A 
ATOM      9  C   UNL     1      -2.056  -0.347   0.109  0.00  0.00    +0.000 A 
ATOM     10  C   UNL     1      -1.128   0.630  -0.097  0.00  0.00    +0.000 A 
ATOM     11  N   UNL     1      -0.026   0.002  -0.631  0.00  0.00    +0.000 N 
ENDROOT
BRANCH   9  12
ATOM     12  C   UNL     1      -3.392  -0.161   0.671  0.00  0.00    +0.000 A 
ATOM     13  C   UNL     1      -4.343   0.663   0.065  0.00  0.00    +0.000 A 
ATOM     14  C   UNL     1      -5.601   0.823   0.621  0.00  0.00    +0.000 A 
ATOM     15  C   UNL     1      -5.951   0.182   1.778  0.00  0.00    +0.000 A 
ATOM     16  C   UNL     1      -5.031  -0.639   2.401  0.00  0.00    +0.000 A 
ATOM     17  C   UNL     1      -3.768  -0.792   1.831  0.00  0.00    +0.000 A 
ENDBRANCH   9  12
BRANCH  10  18
ATOM     18  C   UNL     1      -1.229   2.083   0.179  0.00  0.00    +0.000 A 
ATOM     19  C   UNL     1      -1.396   2.558   1.451  0.00  0.00    +0.000 A 
ATOM     20  C   UNL     1      -1.488   3.908   1.712  0.00  0.00    +0.000 A 
ATOM     21  C   UNL     1      -1.408   4.789   0.646  0.00  0.00    +0.000 A 
ATOM     22  C   UNL     1      -1.240   4.362  -0.653  0.00  0.00    +0.000 A 
ATOM     23  C   UNL     1      -1.155   3.002  -0.844  0.00  0.00    +0.000 A 
ENDBRANCH  10  18
BRANCH  11  24
ATOM     24  C   UNL     1       1.159   0.777  -1.021  0.00  0.00    +0.000 C 
BRANCH  24  25
ATOM     25  C   UNL     1       1.796   1.239   0.360  0.00  0.00    +0.000 C 
ATOM     26  O   UNL     1       2.916   2.076  -0.171  0.00  0.00    +0.000 OA
BRANCH  25  27
ATOM     27  C   UNL     1       2.703   0.048   0.833  0.00  0.00    +0.000 C 
BRANCH  27  28
ATOM     28  N   UNL     1       3.558  -0.462  -0.102  0.00  0.00    +0.000 NA
ATOM     29  C   UNL     1       4.306  -1.602   0.282  0.00  0.00    +0.000 C 
ATOM     30  C   UNL     1       5.747  -1.612   0.141  0.00  0.00    +0.000 C 
ATOM     31  C   UNL     1       6.506  -0.434   0.635  0.00  0.00    +0.000 C 
ATOM     32  C   UNL     1       5.803   0.876   0.358  0.00  0.00    +0.000 C 
ATOM     33  C   UNL     1       5.323   0.923  -1.067  0.00  0.00    +0.000 C 
ATOM     34  C   UNL     1       3.991   0.275  -1.193  0.00  0.00    +0.000 C 
ENDBRANCH  27  28
ENDBRANCH  25  27
ENDBRANCH  24  25
ENDBRANCH  11  24
TORSDOF 6
