REMARK  Name = 
REMARK  7 active torsions:
REMARK  status: ('A' for Active; 'I' for Inactive)
REMARK    1  A    between atoms: C_6  and  C_7
REMARK    2  A    between atoms: C_10  and  N_11
REMARK    3  A    between atoms: C_12  and  C_14
REMARK    4  A    between atoms: C_14  and  C_15
REMARK    5  A    between atoms: C_15  and  N_16
REMARK    6  A    between atoms: C_15  and  C_25
REMARK    7  A    between atoms: C_17  and  C_19
REMARK                            x       y       z     vdW  Elec       q    Type
REMARK                         _______ _______ _______ _____ _____    ______ ____
ROOT
ATOM      1  C   UNL     1      -1.224  -1.139  -0.252  0.00  0.00    +0.000 C 
ENDROOT
BRANCH   1   2
ATOM      2  C   UNL     1      -1.085  -0.614  -1.763  0.00  0.00    +0.000 A 
ATOM      3  C   UNL     1      -1.464   0.619  -2.103  0.00  0.00    +0.000 A 
ATOM      4  C   UNL     1      -1.350   1.046  -3.406  0.00  0.00    +0.000 A 
ATOM      5  C   UNL     1      -0.833   0.177  -4.372  0.00  0.00    +0.000 A 
ATOM      6  C   UNL     1      -0.450  -1.091  -3.986  0.00  0.00    +0.000 A 
ATOM      7  C   UNL     1      -0.565  -1.521  -2.674  0.00  0.00    +0.000 A 
ENDBRANCH   1   2
BRANCH   1   8
ATOM      8  N   UNL     1      -2.660  -0.535  -0.042  0.00  0.00    +0.000 NA
ATOM      9  C   UNL     1      -2.960  -0.111   1.275  0.00  0.00    +0.000 C 
ATOM     10  O   UNL     1      -2.079  -0.240   2.167  0.00  0.00    +0.000 OA
BRANCH   9  11
ATOM     11  C   UNL     1      -4.263   0.454   1.562  0.00  0.00    +0.000 A 
ATOM     12  C   UNL     1      -5.371  -0.078   0.954  0.00  0.00    +0.000 A 
ATOM     13  C   UNL     1      -6.594   0.442   1.202  0.00  0.00    +0.000 A 
ATOM     14  C   UNL     1      -6.795   1.517   2.066  0.00  0.00    +0.000 A 
ATOM     15  C   UNL     1      -5.642   2.026   2.661  0.00  0.00    +0.000 A 
ATOM     16  C   UNL     1      -4.395   1.507   2.417  0.00  0.00    +0.000 A 
ENDBRANCH   9  11
ENDBRANCH   1   8
BRANCH   1  17
ATOM     17  C   UNL     1      -0.431   0.124   0.421  0.00  0.00    +0.000 C 
BRANCH  17  19
ATOM     18  N   UNL     1       2.051   0.515   0.745  0.00  0.00    +0.000 NA
ATOM     19  C   UNL     1       1.018  -0.293   0.329  0.00  0.00    +0.000 C 
ATOM     20  O   UNL     1       1.254  -1.402  -0.139  0.00  0.00    +0.000 OA
BRANCH  18  27
ATOM     21  C   UNL     1       3.348   2.016   2.620  0.00  0.00    +0.000 C 
ATOM     22  C   UNL     1       4.102   1.093   1.698  0.00  0.00    +0.000 A 
ATOM     23  C   UNL     1       5.457   1.034   1.827  0.00  0.00    +0.000 A 
ATOM     24  C   UNL     1       6.202   0.224   1.030  0.00  0.00    +0.000 A 
ATOM     25  C   UNL     1       5.564  -0.527   0.100  0.00  0.00    +0.000 A 
ATOM     26  C   UNL     1       4.194  -0.477  -0.041  0.00  0.00    +0.000 A 
ATOM     27  C   UNL     1       3.407   0.316   0.734  0.00  0.00    +0.000 A 
BRANCH  26  28
ATOM     28  C   UNL     1       3.611  -1.277  -1.115  0.00  0.00    +0.000 C 
ATOM     29  C   UNL     1       4.615  -2.273  -1.662  0.00  0.00    +0.000 C 
ATOM     30  C   UNL     1       3.339  -0.262  -2.252  0.00  0.00    +0.000 C 
ENDBRANCH  26  28
ENDBRANCH  18  27
ENDBRANCH  17  19
ENDBRANCH   1  17
TORSDOF 7
