REMARK  Name = 
REMARK  6 active torsions:
REMARK  status: ('A' for Active; 'I' for Inactive)
REMARK    1  A    between atoms: O_2  and  C_3
REMARK    2  A    between atoms: C_8  and  N_9
REMARK    3  A    between atoms: C_10  and  C_12
REMARK    4  A    between atoms: C_12  and  O_13
REMARK    5  A    between atoms: O_13  and  C_14
REMARK    6  A    between atoms: C_17  and  C_18
REMARK                            x       y       z     vdW  Elec       q    Type
REMARK                         _______ _______ _______ _____ _____    ______ ____
ROOT
ATOM      1  N   UNL     1      -0.905   0.102   0.201  0.00  0.00    +0.000 NA
ATOM      2  C   UNL     1      -0.139  -0.759  -0.622  0.00  0.00    +0.000 C 
ATOM      3  O   UNL     1      -0.761  -1.459  -1.460  0.00  0.00    +0.000 OA
ENDROOT
BRANCH   1   9
ATOM      4  C   UNL     1      -2.998   1.047   0.932  0.00  0.00    +0.000 A 
ATOM      5  C   UNL     1      -4.380   1.139   0.843  0.00  0.00    +0.000 A 
ATOM      6  C   UNL     1      -5.030   0.353  -0.091  0.00  0.00    +0.000 A 
ATOM      7  C   UNL     1      -4.372  -0.513  -0.934  0.00  0.00    +0.000 A 
ATOM      8  C   UNL     1      -2.983  -0.573  -0.809  0.00  0.00    +0.000 A 
ATOM      9  C   UNL     1      -2.310   0.194   0.108  0.00  0.00    +0.000 A 
ATOM     10  O   UNL     1      -5.232  -1.121  -1.705  0.00  0.00    +0.000 OA
ATOM     11  C   UNL     1      -6.420  -0.697  -1.411  0.00  0.00    +0.000 A 
ATOM     12  C   UNL     1      -7.632  -1.059  -1.966  0.00  0.00    +0.000 A 
ATOM     13  C   UNL     1      -8.764  -0.454  -1.468  0.00  0.00    +0.000 A 
ATOM     14  C   UNL     1      -8.744   0.484  -0.456  0.00  0.00    +0.000 A 
ATOM     15  C   UNL     1      -7.522   0.844   0.097  0.00  0.00    +0.000 A 
ATOM     16  C   UNL     1      -6.381   0.238  -0.399  0.00  0.00    +0.000 A 
BRANCH   4  18
ATOM     17  C   UNL     1      -2.984   2.688   2.701  0.00  0.00    +0.000 C 
ATOM     18  O   UNL     1      -2.281   1.815   1.858  0.00  0.00    +0.000 OA
ENDBRANCH   4  18
ENDBRANCH   1   9
BRANCH   2  19
ATOM     19  C   UNL     1       1.321  -0.885  -0.558  0.00  0.00    +0.000 C 
BRANCH  19  20
ATOM     20  O   UNL     1       1.899  -0.046   0.424  0.00  0.00    +0.000 OA
BRANCH  20  21
ATOM     21  C   UNL     1       3.283  -0.069   0.587  0.00  0.00    +0.000 A 
ATOM     22  C   UNL     1       4.080  -0.888  -0.186  0.00  0.00    +0.000 A 
ATOM     23  C   UNL     1       5.450  -0.907  -0.019  0.00  0.00    +0.000 A 
ATOM     24  C   UNL     1       6.090  -0.118   0.917  0.00  0.00    +0.000 A 
ATOM     25  C   UNL     1       5.291   0.702   1.690  0.00  0.00    +0.000 A 
ATOM     26  C   UNL     1       3.921   0.719   1.523  0.00  0.00    +0.000 A 
BRANCH  24  27
ATOM     27  C   UNL     1       7.569  -0.158   1.075  0.00  0.00    +0.000 C 
ATOM     28  C   UNL     1       8.167  -0.731  -0.189  0.00  0.00    +0.000 C 
ATOM     29  C   UNL     1       7.997   0.195  -1.361  0.00  0.00    +0.000 C 
ATOM     30  C   UNL     1       8.630   1.535  -1.006  0.00  0.00    +0.000 C 
ATOM     31  C   UNL     1       8.005   2.104   0.254  0.00  0.00    +0.000 C 
ATOM     32  C   UNL     1       8.136   1.183   1.433  0.00  0.00    +0.000 C 
ENDBRANCH  24  27
ENDBRANCH  20  21
ENDBRANCH  19  20
ENDBRANCH   2  19
TORSDOF 6
