REMARK  Name = 
REMARK  6 active torsions:
REMARK  status: ('A' for Active; 'I' for Inactive)
REMARK    1  A    between atoms: C_2  and  N_3
REMARK    2  A    between atoms: N_3  and  C_4
REMARK    3  A    between atoms: C_6  and  C_8
REMARK    4  A    between atoms: C_12  and  C_13
REMARK    5  A    between atoms: C_20  and  C_21
REMARK    6  A    between atoms: C_24  and  O_25
REMARK                            x       y       z     vdW  Elec       q    Type
REMARK                         _______ _______ _______ _____ _____    ______ ____
ROOT
ATOM      1  C   UNL     1       2.605  -0.607   0.065  0.00  0.00    +0.000 A 
ATOM      2  S   UNL     1       1.857  -2.006  -0.527  0.00  0.00    +0.000 S 
ATOM      3  C   UNL     1       0.225  -1.467  -0.510  0.00  0.00    +0.000 A 
ATOM      4  N   UNL     1      -0.955  -2.068  -0.867  0.00  0.00    +0.000 NA
ATOM      5  C   UNL     1      -2.135  -1.439  -0.775  0.00  0.00    +0.000 A 
ATOM      6  C   UNL     1      -2.058  -0.160  -0.298  0.00  0.00    +0.000 A 
ATOM      7  C   UNL     1      -0.898   0.494   0.076  0.00  0.00    +0.000 A 
ATOM      8  C   UNL     1       0.325  -0.193  -0.033  0.00  0.00    +0.000 A 
ATOM      9  C   UNL     1       1.569   0.257   0.267  0.00  0.00    +0.000 A 
ATOM     10  N   UNL     1       1.898   1.589   0.770  0.00  0.00    +0.000 NA
ENDROOT
BRANCH   5  11
ATOM     11  C   UNL     1      -3.392  -2.077  -1.155  0.00  0.00    +0.000 A 
ATOM     12  C   UNL     1      -3.444  -3.368  -1.633  0.00  0.00    +0.000 A 
ATOM     13  C   UNL     1      -4.636  -3.967  -1.991  0.00  0.00    +0.000 A 
ATOM     14  C   UNL     1      -5.829  -3.284  -1.881  0.00  0.00    +0.000 A 
ATOM     15  C   UNL     1      -5.777  -1.992  -1.403  0.00  0.00    +0.000 A 
ATOM     16  C   UNL     1      -4.585  -1.395  -1.045  0.00  0.00    +0.000 A 
ENDBRANCH   5  11
BRANCH   7  17
ATOM     17  C   UNL     1      -0.961   1.855   0.604  0.00  0.00    +0.000 A 
ATOM     18  C   UNL     1      -1.614   2.771  -0.233  0.00  0.00    +0.000 A 
ATOM     19  C   UNL     1      -1.739   4.051   0.211  0.00  0.00    +0.000 A 
ATOM     20  C   UNL     1      -1.264   4.475   1.418  0.00  0.00    +0.000 A 
ATOM     21  C   UNL     1      -0.618   3.546   2.232  0.00  0.00    +0.000 A 
ATOM     22  C   UNL     1      -0.469   2.241   1.824  0.00  0.00    +0.000 A 
BRANCH  20  23
ATOM     23  O   UNL     1      -1.418   5.790   1.822  0.00  0.00    +0.000 OA
ATOM     24  C   UNL     1      -2.079   6.681   0.953  0.00  0.00    +0.000 C 
ENDBRANCH  20  23
ENDBRANCH   7  17
BRANCH   1  26
ATOM     25  N   UNL     1       4.953  -1.487   0.001  0.00  0.00    +0.000 N 
ATOM     26  C   UNL     1       4.046  -0.433   0.286  0.00  0.00    +0.000 C 
ATOM     27  O   UNL     1       4.478   0.658   0.732  0.00  0.00    +0.000 OA
BRANCH  25  29
ATOM     28  C   UNL     1       4.388  -2.761  -2.022  0.00  0.00    +0.000 C 
ATOM     29  C   UNL     1       4.449  -2.733  -0.509  0.00  0.00    +0.000 C 
ENDBRANCH  25  29
BRANCH  25  30
ATOM     30  C   UNL     1       6.361  -1.281   0.230  0.00  0.00    +0.000 C 
ATOM     31  C   UNL     1       6.717  -1.693   1.642  0.00  0.00    +0.000 C 
ENDBRANCH  25  30
ENDBRANCH   1  26
TORSDOF 6
