REMARK  Name = 
REMARK  9 active torsions:
REMARK  status: ('A' for Active; 'I' for Inactive)
REMARK    1  A    between atoms: C_2  and  C_3
REMARK    2  A    between atoms: C_3  and  C_5
REMARK    3  A    between atoms: C_10  and  N_11
REMARK    4  A    between atoms: C_12  and  C_14
REMARK    5  A    between atoms: C_14  and  O_15
REMARK    6  A    between atoms: O_15  and  C_16
REMARK    7  A    between atoms: C_16  and  C_18
REMARK    8  A    between atoms: C_18  and  C_19
REMARK    9  A    between atoms: C_18  and  C_25
REMARK                            x       y       z     vdW  Elec       q    Type
REMARK                         _______ _______ _______ _____ _____    ______ ____
ROOT
ATOM      1  O   UNL     1      -0.818   1.964   0.439  0.00  0.00    +0.000 OA
ENDROOT
BRANCH   1   2
ATOM      2  C   UNL     1      -1.512   1.268  -0.543  0.00  0.00    +0.000 C 
ATOM      3  O   UNL     1      -0.838   0.796  -1.495  0.00  0.00    +0.000 OA
BRANCH   2   4
ATOM      4  C   UNL     1      -2.959   1.151  -0.376  0.00  0.00    +0.000 C 
BRANCH   4   5
ATOM      5  C   UNL     1      -3.331   0.458   0.874  0.00  0.00    +0.000 A 
ATOM      6  C   UNL     1      -2.596  -0.671   1.251  0.00  0.00    +0.000 A 
ATOM      7  C   UNL     1      -2.960  -1.297   2.413  0.00  0.00    +0.000 A 
ATOM      8  C   UNL     1      -3.997  -0.876   3.217  0.00  0.00    +0.000 A 
ATOM      9  C   UNL     1      -4.714   0.239   2.833  0.00  0.00    +0.000 A 
ATOM     10  C   UNL     1      -4.371   0.892   1.665  0.00  0.00    +0.000 A 
ENDBRANCH   4   5
BRANCH   4  11
ATOM     11  C   UNL     1      -3.680   0.605  -1.526  0.00  0.00    +0.000 A 
ATOM     12  C   UNL     1      -3.186  -0.446  -2.273  0.00  0.00    +0.000 A 
ATOM     13  C   UNL     1      -3.864  -0.969  -3.366  0.00  0.00    +0.000 A 
ATOM     14  C   UNL     1      -5.076  -0.435  -3.740  0.00  0.00    +0.000 A 
ATOM     15  C   UNL     1      -5.593   0.619  -3.008  0.00  0.00    +0.000 A 
ATOM     16  C   UNL     1      -4.903   1.111  -1.939  0.00  0.00    +0.000 A 
ENDBRANCH   4  11
ENDBRANCH   2   4
ENDBRANCH   1   2
BRANCH   1  17
ATOM     17  C   UNL     1       0.561   2.171   0.438  0.00  0.00    +0.000 C 
BRANCH  17  19
ATOM     18  N   UNL     1       2.681   0.750   0.460  0.00  0.00    +0.000 NA
ATOM     19  C   UNL     1       1.269   0.843   0.456  0.00  0.00    +0.000 C 
ATOM     20  O   UNL     1       0.623  -0.236   0.469  0.00  0.00    +0.000 OA
BRANCH  18  26
ATOM     21  C   UNL     1       4.746  -0.544   0.481  0.00  0.00    +0.000 A 
ATOM     22  C   UNL     1       5.364  -1.724   0.498  0.00  0.00    +0.000 A 
ATOM     23  C   UNL     1       4.663  -2.899   0.510  0.00  0.00    +0.000 A 
ATOM     24  C   UNL     1       3.293  -2.850   0.506  0.00  0.00    +0.000 A 
ATOM     25  C   UNL     1       2.602  -1.650   0.489  0.00  0.00    +0.000 A 
ATOM     26  C   UNL     1       3.389  -0.485   0.477  0.00  0.00    +0.000 A 
BRANCH  21  27
ATOM     27  C   UNL     1       5.445   0.852   0.466  0.00  0.00    +0.000 C 
ATOM     28  C   UNL     1       5.462   1.041  -1.182  0.00  0.00    +0.000 C 
BRANCH  27  30
ATOM     29  C   UNL     1       7.319   0.019   1.918  0.00  0.00    +0.000 C 
ATOM     30  C   UNL     1       6.984   0.306   0.487  0.00  0.00    +0.000 C 
ENDBRANCH  27  30
ENDBRANCH  21  27
ENDBRANCH  18  26
ENDBRANCH  17  19
ENDBRANCH   1  17
TORSDOF 9
