REMARK  Name = 
REMARK  8 active torsions:
REMARK  status: ('A' for Active; 'I' for Inactive)
REMARK    1  A    between atoms: C_2  and  C_3
REMARK    2  A    between atoms: C_2  and  C_17
REMARK    3  A    between atoms: C_3  and  O_4
REMARK    4  A    between atoms: O_4  and  C_5
REMARK    5  A    between atoms: C_8  and  C_9
REMARK    6  A    between atoms: C_17  and  N_18
REMARK    7  A    between atoms: C_21  and  C_22
REMARK    8  A    between atoms: C_22  and  C_23
REMARK                            x       y       z     vdW  Elec       q    Type
REMARK                         _______ _______ _______ _____ _____    ______ ____
ROOT
ATOM      1  O   UNL     1      -0.146  -2.068   2.948  0.00  0.00    +0.000 OA
ATOM      2  C   UNL     1       0.576  -1.735   1.661  0.00  0.00    +0.000 C 
ENDROOT
BRANCH   2   3
ATOM      3  C   UNL     1      -0.128  -0.271   1.497  0.00  0.00    +0.000 C 
BRANCH   3   4
ATOM      4  O   UNL     1       0.413   0.277   0.317  0.00  0.00    +0.000 OA
BRANCH   4   5
ATOM      5  C   UNL     1       1.781   0.460   0.266  0.00  0.00    +0.000 A 
ATOM      6  C   UNL     1       2.322   0.993  -0.878  0.00  0.00    +0.000 A 
ATOM      7  C   UNL     1       3.701   1.187  -0.954  0.00  0.00    +0.000 A 
ATOM      8  C   UNL     1       4.518   0.857   0.087  0.00  0.00    +0.000 A 
ATOM      9  C   UNL     1       3.996   0.328   1.229  0.00  0.00    +0.000 A 
ATOM     10  C   UNL     1       2.613   0.134   1.302  0.00  0.00    +0.000 A 
BRANCH   8  11
ATOM     11  C   UNL     1       5.940   1.071  -0.024  0.00  0.00    +0.000 A 
ATOM     12  C   UNL     1       6.795   0.210   0.650  0.00  0.00    +0.000 A 
ATOM     13  C   UNL     1       8.158   0.398   0.557  0.00  0.00    +0.000 A 
ATOM     14  C   UNL     1       8.621   1.447  -0.214  0.00  0.00    +0.000 A 
ATOM     15  C   UNL     1       7.777   2.301  -0.883  0.00  0.00    +0.000 A 
ATOM     16  C   UNL     1       6.395   2.121  -0.795  0.00  0.00    +0.000 A 
ENDBRANCH   8  11
ENDBRANCH   4   5
ENDBRANCH   3   4
ENDBRANCH   2   3
BRANCH   2  17
ATOM     17  C   UNL     1      -0.485  -2.537   0.721  0.00  0.00    +0.000 C 
BRANCH  17  18
ATOM     18  N   UNL     1      -1.765  -2.035   0.864  0.00  0.00    +0.000 NA
ATOM     19  C   UNL     1      -2.118  -0.761   0.399  0.00  0.00    +0.000 C 
ATOM     20  C   UNL     1      -3.603  -0.518   0.703  0.00  0.00    +0.000 C 
ATOM     21  C   UNL     1      -4.361  -1.554  -0.044  0.00  0.00    +0.000 C 
ATOM     22  C   UNL     1      -3.887  -2.950   0.140  0.00  0.00    +0.000 C 
ATOM     23  C   UNL     1      -2.817  -2.921   1.214  0.00  0.00    +0.000 C 
BRANCH  21  24
ATOM     24  C   UNL     1      -5.830  -1.372  -0.087  0.00  0.00    +0.000 C 
BRANCH  24  25
ATOM     25  C   UNL     1      -6.133  -0.073  -0.738  0.00  0.00    +0.000 A 
ATOM     26  C   UNL     1      -6.228   1.029   0.086  0.00  0.00    +0.000 A 
ATOM     27  C   UNL     1      -6.506   2.263  -0.443  0.00  0.00    +0.000 A 
ATOM     28  C   UNL     1      -6.684   2.368  -1.798  0.00  0.00    +0.000 A 
ATOM     29  C   UNL     1      -6.596   1.289  -2.640  0.00  0.00    +0.000 A 
ATOM     30  C   UNL     1      -6.317   0.063  -2.096  0.00  0.00    +0.000 A 
ENDBRANCH  24  25
ENDBRANCH  21  24
ENDBRANCH  17  18
ENDBRANCH   2  17
TORSDOF 8
