REMARK  Name = 
REMARK  8 active torsions:
REMARK  status: ('A' for Active; 'I' for Inactive)
REMARK    1  A    between atoms: O_2  and  C_3
REMARK    2  A    between atoms: C_6  and  N_7
REMARK    3  A    between atoms: C_8  and  C_9
REMARK    4  A    between atoms: C_9  and  N_10
REMARK    5  A    between atoms: N_10  and  C_11
REMARK    6  A    between atoms: C_20  and  S_21
REMARK    7  A    between atoms: S_21  and  C_22
REMARK    8  A    between atoms: C_22  and  C_23
REMARK                            x       y       z     vdW  Elec       q    Type
REMARK                         _______ _______ _______ _____ _____    ______ ____
ROOT
ATOM      1  N   UNL     1       0.199   0.684   0.182  0.00  0.00    +0.000 N 
ATOM      2  C   UNL     1      -0.861   0.106   0.767  0.00  0.00    +0.000 A 
ATOM      3  N   UNL     1      -0.894  -1.218   0.516  0.00  0.00    +0.000 NA
ATOM      4  N   UNL     1       0.163  -1.462  -0.237  0.00  0.00    +0.000 NA
ATOM      5  C   UNL     1       0.841  -0.316  -0.451  0.00  0.00    +0.000 A 
ENDROOT
BRANCH   1   9
ATOM      6  C   UNL     1       1.258   4.684   0.304  0.00  0.00    +0.000 A 
ATOM      7  C   UNL     1       2.102   3.785  -0.300  0.00  0.00    +0.000 A 
ATOM      8  C   UNL     1       1.752   2.465  -0.340  0.00  0.00    +0.000 A 
ATOM      9  C   UNL     1       0.560   2.070   0.228  0.00  0.00    +0.000 A 
ATOM     10  C   UNL     1      -0.292   2.947   0.832  0.00  0.00    +0.000 A 
ATOM     11  C   UNL     1       0.072   4.274   0.866  0.00  0.00    +0.000 A 
BRANCH   6  13
ATOM     12  C   UNL     1       2.814   6.471  -0.219  0.00  0.00    +0.000 C 
ATOM     13  O   UNL     1       1.607   6.052   0.353  0.00  0.00    +0.000 OA
ENDBRANCH   6  13
ENDBRANCH   1   9
BRANCH   2  14
ATOM     14  C   UNL     1      -1.839   0.900   1.585  0.00  0.00    +0.000 C 
BRANCH  14  15
ATOM     15  N   UNL     1      -2.881   0.007   2.030  0.00  0.00    +0.000 NA
BRANCH  15  16
ATOM     16  C   UNL     1      -3.684  -0.656   1.077  0.00  0.00    +0.000 A 
ATOM     17  C   UNL     1      -3.464  -0.441  -0.258  0.00  0.00    +0.000 A 
ATOM     18  C   UNL     1      -4.212  -1.054  -1.230  0.00  0.00    +0.000 A 
ATOM     19  C   UNL     1      -5.220  -1.919  -0.850  0.00  0.00    +0.000 A 
ATOM     20  C   UNL     1      -6.032  -2.585  -1.923  0.00  0.00    +0.000 C 
ATOM     21  C   UNL     1      -5.465  -2.156   0.468  0.00  0.00    +0.000 A 
ATOM     22  C   UNL     1      -4.694  -1.522   1.418  0.00  0.00    +0.000 A 
ENDBRANCH  15  16
ENDBRANCH  14  15
ENDBRANCH   2  14
BRANCH   5  23
ATOM     23  S   UNL     1       2.335  -0.036  -1.388  0.00  0.00    +0.000 S 
BRANCH  23  24
ATOM     24  C   UNL     1       2.987  -1.528  -2.124  0.00  0.00    +0.000 C 
BRANCH  24  25
ATOM     25  C   UNL     1       3.432  -2.429  -1.008  0.00  0.00    +0.000 A 
ATOM     26  C   UNL     1       2.506  -3.327  -0.496  0.00  0.00    +0.000 A 
ATOM     27  C   UNL     1       2.919  -4.144   0.521  0.00  0.00    +0.000 A 
ATOM     28  C   UNL     1       4.189  -4.094   1.026  0.00  0.00    +0.000 A 
ATOM     29  C   UNL     1       5.085  -3.202   0.506  0.00  0.00    +0.000 A 
ATOM     30  C   UNL     1       4.717  -2.357  -0.519  0.00  0.00    +0.000 A 
ENDBRANCH  24  25
ENDBRANCH  23  24
ENDBRANCH   5  23
TORSDOF 8
