REMARK  Name = 
REMARK  5 active torsions:
REMARK  status: ('A' for Active; 'I' for Inactive)
REMARK    1  A    between atoms: C_3  and  C_4
REMARK    2  A    between atoms: N_6  and  C_7
REMARK    3  A    between atoms: C_7  and  C_8
REMARK    4  A    between atoms: N_24  and  C_25
REMARK    5  A    between atoms: C_25  and  C_26
REMARK                            x       y       z     vdW  Elec       q    Type
REMARK                         _______ _______ _______ _____ _____    ______ ____
ROOT
ATOM      1  N   UNL     1       0.004  -2.856  -1.635  0.00  0.00    +0.000 NA
ATOM      2  C   UNL     1      -0.358  -1.535  -1.243  0.00  0.00    +0.000 A 
ATOM      3  C   UNL     1       0.499  -0.469  -1.168  0.00  0.00    +0.000 A 
ATOM      4  C   UNL     1      -0.269   0.615  -0.748  0.00  0.00    +0.000 A 
ATOM      5  N   UNL     1       0.049   1.899  -0.511  0.00  0.00    +0.000 NA
ATOM      6  C   UNL     1      -0.955   2.717  -0.110  0.00  0.00    +0.000 A 
ATOM      7  C   UNL     1      -0.700   4.056   0.153  0.00  0.00    +0.000 A 
ATOM      8  C   UNL     1      -1.718   4.905   0.564  0.00  0.00    +0.000 A 
ATOM      9  C   UNL     1      -3.020   4.441   0.725  0.00  0.00    +0.000 A 
ATOM     10  C   UNL     1      -3.251   3.110   0.460  0.00  0.00    +0.000 A 
ATOM     11  C   UNL     1      -2.240   2.259   0.049  0.00  0.00    +0.000 A 
ATOM     12  N   UNL     1      -2.516   0.973  -0.197  0.00  0.00    +0.000 NA
ATOM     13  C   UNL     1      -1.550   0.121  -0.599  0.00  0.00    +0.000 A 
ATOM     14  N   UNL     1      -1.608  -1.178  -0.897  0.00  0.00    +0.000 N 
ENDROOT
BRANCH   3  15
ATOM     15  C   UNL     1       1.925  -0.476  -1.467  0.00  0.00    +0.000 C 
ATOM     16  O   UNL     1       2.472  -1.544  -1.838  0.00  0.00    +0.000 OA
ATOM     17  N   UNL     1       2.738   0.677  -1.361  0.00  0.00    +0.000 NA
BRANCH  17  18
ATOM     18  C   UNL     1       4.149   0.573  -1.682  0.00  0.00    +0.000 C 
BRANCH  18  19
ATOM     19  C   UNL     1       4.933  -0.096  -0.610  0.00  0.00    +0.000 A 
ATOM     20  C   UNL     1       5.123  -1.474  -0.590  0.00  0.00    +0.000 A 
ATOM     21  C   UNL     1       5.841  -2.093   0.386  0.00  0.00    +0.000 A 
ATOM     22  C   UNL     1       6.421  -1.355   1.414  0.00  0.00    +0.000 A 
ATOM     23  C   UNL     1       6.248   0.021   1.419  0.00  0.00    +0.000 A 
ATOM     24  C   UNL     1       5.515   0.609   0.415  0.00  0.00    +0.000 A 
ENDBRANCH  18  19
ENDBRANCH  17  18
ENDBRANCH   3  15
BRANCH  14  25
ATOM     25  C   UNL     1      -2.814  -1.997  -0.835  0.00  0.00    +0.000 C 
BRANCH  25  26
ATOM     26  C   UNL     1      -2.893  -2.586   0.551  0.00  0.00    +0.000 C 
ATOM     27  C   UNL     1      -2.959  -1.399   1.513  0.00  0.00    +0.000 C 
ATOM     28  C   UNL     1      -4.364  -0.942   1.760  0.00  0.00    +0.000 C 
ATOM     29  C   UNL     1      -5.178  -1.077   0.470  0.00  0.00    +0.000 C 
ATOM     30  C   UNL     1      -5.335  -2.547   0.102  0.00  0.00    +0.000 C 
ATOM     31  C   UNL     1      -4.188  -3.353   0.673  0.00  0.00    +0.000 C 
ENDBRANCH  25  26
ENDBRANCH  14  25
TORSDOF 5
