REMARK  Name = 
REMARK  8 active torsions:
REMARK  status: ('A' for Active; 'I' for Inactive)
REMARK    1  A    between atoms: C_2  and  O_3
REMARK    2  A    between atoms: O_3  and  C_4
REMARK    3  A    between atoms: C_7  and  N_8
REMARK    4  A    between atoms: N_8  and  C_9
REMARK    5  A    between atoms: C_10  and  S_11
REMARK    6  A    between atoms: S_11  and  C_12
REMARK    7  A    between atoms: N_21  and  C_22
REMARK    8  A    between atoms: C_22  and  C_23
REMARK                            x       y       z     vdW  Elec       q    Type
REMARK                         _______ _______ _______ _____ _____    ______ ____
ROOT
ATOM      1  C   UNL     1       0.147  -0.475  -1.757  0.00  0.00    +0.000 C 
ATOM      2  C   UNL     1      -0.848  -0.875  -0.930  0.00  0.00    +0.000 C 
ATOM      3  C   UNL     1      -1.900   0.128  -0.980  0.00  0.00    +0.000 C 
ATOM      4  O   UNL     1      -2.991   0.170  -0.385  0.00  0.00    +0.000 OA
ATOM      5  N   UNL     1      -1.476   1.161  -1.892  0.00  0.00    +0.000 N 
ATOM      6  C   UNL     1      -0.213   0.787  -2.370  0.00  0.00    +0.000 C 
ATOM      7  O   UNL     1       0.532   1.407  -3.197  0.00  0.00    +0.000 OA
ENDROOT
BRANCH   1   8
ATOM      8  N   UNL     1       1.366  -1.192  -1.988  0.00  0.00    +0.000 NA
BRANCH   8  12
ATOM      9  C   UNL     1       4.599  -0.450   0.602  0.00  0.00    +0.000 A 
ATOM     10  C   UNL     1       3.402   0.229   0.796  0.00  0.00    +0.000 A 
ATOM     11  C   UNL     1       2.359  -0.035  -0.068  0.00  0.00    +0.000 A 
ATOM     12  C   UNL     1       2.475  -0.938  -1.100  0.00  0.00    +0.000 A 
ATOM     13  C   UNL     1       3.677  -1.583  -1.252  0.00  0.00    +0.000 A 
ATOM     14  C   UNL     1       4.754  -1.361  -0.420  0.00  0.00    +0.000 A 
BRANCH   9  15
ATOM     15  O   UNL     1       5.619  -0.153   1.493  0.00  0.00    +0.000 OA
BRANCH  15  17
ATOM     16  C   UNL     1       7.866  -0.408   2.360  0.00  0.00    +0.000 C 
ATOM     17  C   UNL     1       6.852  -0.822   1.330  0.00  0.00    +0.000 C 
ENDBRANCH  15  17
ENDBRANCH   9  15
ENDBRANCH   8  12
ENDBRANCH   1   8
BRANCH   2  18
ATOM     18  S   UNL     1      -0.726  -2.388  -0.019  0.00  0.00    +0.000 S 
BRANCH  18  19
ATOM     19  C   UNL     1      -2.122  -2.728   0.997  0.00  0.00    +0.000 A 
ATOM     20  C   UNL     1      -2.096  -3.910   1.749  0.00  0.00    +0.000 A 
ATOM     21  C   UNL     1      -3.158  -4.215   2.552  0.00  0.00    +0.000 A 
ATOM     22  C   UNL     1      -4.271  -3.431   2.678  0.00  0.00    +0.000 A 
ATOM     23  C   UNL     1      -5.442  -3.716   3.530  0.00  0.00    +0.000 C 
ATOM     24  C   UNL     1      -4.266  -2.264   1.918  0.00  0.00    +0.000 A 
ATOM     25  C   UNL     1      -3.222  -1.943   1.115  0.00  0.00    +0.000 A 
ENDBRANCH  18  19
ENDBRANCH   2  18
BRANCH   5  26
ATOM     26  C   UNL     1      -2.193   2.360  -2.260  0.00  0.00    +0.000 C 
BRANCH  26  27
ATOM     27  C   UNL     1      -1.811   3.449  -1.301  0.00  0.00    +0.000 A 
ATOM     28  C   UNL     1      -2.348   4.715  -1.414  0.00  0.00    +0.000 A 
ATOM     29  C   UNL     1      -2.000   5.718  -0.536  0.00  0.00    +0.000 A 
ATOM     30  C   UNL     1      -1.099   5.415   0.458  0.00  0.00    +0.000 A 
ATOM     31  C   UNL     1      -0.553   4.163   0.589  0.00  0.00    +0.000 A 
ATOM     32  C   UNL     1      -0.914   3.181  -0.296  0.00  0.00    +0.000 A 
ENDBRANCH  26  27
ENDBRANCH   5  26
TORSDOF 8
