REMARK  Name = 
REMARK  7 active torsions:
REMARK  status: ('A' for Active; 'I' for Inactive)
REMARK    1  A    between atoms: C_2  and  C_5
REMARK    2  A    between atoms: C_8  and  O_9
REMARK    3  A    between atoms: O_9  and  C_10
REMARK    4  A    between atoms: C_10  and  C_11
REMARK    5  A    between atoms: C_14  and  C_15
REMARK    6  A    between atoms: N_17  and  N_18
REMARK    7  A    between atoms: C_19  and  C_21
REMARK                            x       y       z     vdW  Elec       q    Type
REMARK                         _______ _______ _______ _____ _____    ______ ____
ROOT
ATOM      1  C   UNL     1      -1.229   0.230   0.176  0.00  0.00    +0.000 A 
ATOM      2  C   UNL     1      -0.439   1.383   0.074  0.00  0.00    +0.000 A 
ATOM      3  C   UNL     1       0.880   1.375   0.426  0.00  0.00    +0.000 A 
ATOM      4  C   UNL     1       1.448   0.214   0.894  0.00  0.00    +0.000 A 
ATOM      5  C   UNL     1       0.664  -0.916   0.994  0.00  0.00    +0.000 A 
ATOM      6  C   UNL     1      -0.664  -0.934   0.644  0.00  0.00    +0.000 A 
ENDROOT
BRANCH   4   7
ATOM      7  C   UNL     1       2.849   0.108   1.268  0.00  0.00    +0.000 C 
ATOM      8  O   UNL     1       3.259  -0.936   1.804  0.00  0.00    +0.000 OA
ATOM      9  N   UNL     1       3.759   1.204   1.028  0.00  0.00    +0.000 NA
BRANCH   9  10
ATOM     10  N   UNL     1       5.100   0.962   1.441  0.00  0.00    +0.000 NA
ATOM     11  C   UNL     1       5.962   0.316   0.515  0.00  0.00    +0.000 C 
ATOM     12  O   UNL     1       5.442   0.015  -0.625  0.00  0.00    +0.000 OA
BRANCH  11  13
ATOM     13  C   UNL     1       7.359  -0.027   0.756  0.00  0.00    +0.000 A 
ATOM     14  C   UNL     1       8.070   0.301   1.881  0.00  0.00    +0.000 A 
ATOM     15  C   UNL     1       9.400  -0.046   2.085  0.00  0.00    +0.000 A 
ATOM     16  C   UNL     1      10.083  -0.768   1.109  0.00  0.00    +0.000 A 
ATOM     17  C   UNL     1       9.390  -1.113  -0.031  0.00  0.00    +0.000 A 
ATOM     18  C   UNL     1       8.081  -0.759  -0.206  0.00  0.00    +0.000 A 
ENDBRANCH  11  13
ENDBRANCH   9  10
ENDBRANCH   4   7
BRANCH   1  19
ATOM     19  C   UNL     1      -2.621   0.405  -0.265  0.00  0.00    +0.000 C 
BRANCH  19  20
ATOM     20  O   UNL     1      -3.426  -0.729  -0.157  0.00  0.00    +0.000 OA
BRANCH  20  24
ATOM     21  C   UNL     1      -7.431  -0.188  -1.428  0.00  0.00    +0.000 A 
ATOM     22  C   UNL     1      -6.975  -1.395  -0.944  0.00  0.00    +0.000 A 
ATOM     23  C   UNL     1      -5.674  -1.608  -0.519  0.00  0.00    +0.000 A 
ATOM     24  C   UNL     1      -4.757  -0.586  -0.565  0.00  0.00    +0.000 A 
ATOM     25  C   UNL     1      -5.211   0.639  -1.054  0.00  0.00    +0.000 A 
ATOM     26  C   UNL     1      -6.504   0.842  -1.474  0.00  0.00    +0.000 A 
BRANCH  21  28
ATOM     27  C   UNL     1      -8.979  -0.147  -3.355  0.00  0.00    +0.000 C 
ATOM     28  C   UNL     1      -8.844  -0.001  -1.850  0.00  0.00    +0.000 C 
ATOM     29  C   UNL     1      -9.824  -0.845  -1.074  0.00  0.00    +0.000 C 
ATOM     30  C   UNL     1      -9.170   1.487  -1.549  0.00  0.00    +0.000 C 
ENDBRANCH  21  28
ENDBRANCH  20  24
ENDBRANCH  19  20
ENDBRANCH   1  19
TORSDOF 7
