REMARK  Name = 
REMARK  9 active torsions:
REMARK  status: ('A' for Active; 'I' for Inactive)
REMARK    1  A    between atoms: C_2  and  O_4
REMARK    2  A    between atoms: O_4  and  C_5
REMARK    3  A    between atoms: C_8  and  C_9
REMARK    4  A    between atoms: C_9  and  C_10
REMARK    5  A    between atoms: C_9  and  C_21
REMARK    6  A    between atoms: C_10  and  C_11
REMARK    7  A    between atoms: C_11  and  N_12
REMARK    8  A    between atoms: N_12  and  C_13
REMARK    9  A    between atoms: C_13  and  C_14
REMARK                            x       y       z     vdW  Elec       q    Type
REMARK                         _______ _______ _______ _____ _____    ______ ____
ROOT
ATOM      1  C   UNL     1      -0.534  -0.135   0.234  0.00  0.00    +0.000 C 
ENDROOT
BRANCH   1   5
ATOM      2  C   UNL     1      -4.557   1.176  -0.467  0.00  0.00    +0.000 A 
ATOM      3  C   UNL     1      -4.205   0.001  -0.979  0.00  0.00    +0.000 A 
ATOM      4  C   UNL     1      -2.892  -0.460  -0.644  0.00  0.00    +0.000 A 
ATOM      5  C   UNL     1      -2.108   0.186   0.137  0.00  0.00    +0.000 A 
ATOM      6  C   UNL     1      -2.497   1.387   0.697  0.00  0.00    +0.000 A 
ATOM      7  C   UNL     1      -3.713   1.897   0.390  0.00  0.00    +0.000 A 
BRANCH   2   8
ATOM      8  O   UNL     1      -5.805   1.863  -0.744  0.00  0.00    +0.000 OA
BRANCH   8  10
ATOM      9  C   UNL     1      -5.876   4.340  -0.696  0.00  0.00    +0.000 C 
ATOM     10  C   UNL     1      -5.767   3.046   0.036  0.00  0.00    +0.000 C 
ATOM     11  C   UNL     1      -6.577   2.901   1.243  0.00  0.00    +0.000 C 
ENDBRANCH   8  10
ENDBRANCH   2   8
ENDBRANCH   1   5
BRANCH   1  12
ATOM     12  C   UNL     1      -0.414  -1.617   0.542  0.00  0.00    +0.000 A 
ATOM     13  C   UNL     1      -1.288  -2.566   0.542  0.00  0.00    +0.000 A 
ATOM     14  C   UNL     1      -1.025  -3.831   0.882  0.00  0.00    +0.000 A 
ATOM     15  C   UNL     1       0.234  -4.172   1.272  0.00  0.00    +0.000 A 
ATOM     16  C   UNL     1       1.230  -3.232   1.308  0.00  0.00    +0.000 A 
ATOM     17  C   UNL     1       0.930  -1.966   0.948  0.00  0.00    +0.000 A 
ENDBRANCH   1  12
BRANCH   1  18
ATOM     18  C   UNL     1      -0.364  -0.257  -1.451  0.00  0.00    +0.000 C 
BRANCH  18  19
ATOM     19  C   UNL     1       0.986  -0.795  -1.552  0.00  0.00    +0.000 C 
BRANCH  19  20
ATOM     20  N   UNL     1       2.075  -0.298  -1.033  0.00  0.00    +0.000 NA
BRANCH  20  21
ATOM     21  C   UNL     1       3.278  -0.983  -1.458  0.00  0.00    +0.000 C 
BRANCH  21  22
ATOM     22  C   UNL     1       4.383  -0.339  -0.676  0.00  0.00    +0.000 A 
ATOM     23  C   UNL     1       3.984   0.725   0.174  0.00  0.00    +0.000 A 
ATOM     24  C   UNL     1       4.907   1.338   0.942  0.00  0.00    +0.000 A 
ATOM     25  C   UNL     1       6.245   0.934   0.912  0.00  0.00    +0.000 A 
ATOM     26  O   UNL     1       7.100   1.674   1.754  0.00  0.00    +0.000 OA
ATOM     27  C   UNL     1       6.628  -0.120   0.130  0.00  0.00    +0.000 A 
ATOM     28  C   UNL     1       5.642  -0.698  -0.634  0.00  0.00    +0.000 A 
ENDBRANCH  21  22
ENDBRANCH  20  21
ENDBRANCH  19  20
ENDBRANCH  18  19
ENDBRANCH   1  18
TORSDOF 9
