REMARK  Name = 
REMARK  7 active torsions:
REMARK  status: ('A' for Active; 'I' for Inactive)
REMARK    1  A    between atoms: C_2  and  C_5
REMARK    2  A    between atoms: C_8  and  C_9
REMARK    3  A    between atoms: N_11  and  C_12
REMARK    4  A    between atoms: C_12  and  C_19
REMARK    5  A    between atoms: C_13  and  C_14
REMARK    6  A    between atoms: N_21  and  C_22
REMARK    7  A    between atoms: C_22  and  C_23
REMARK                            x       y       z     vdW  Elec       q    Type
REMARK                         _______ _______ _______ _____ _____    ______ ____
ROOT
ATOM      1  C   UNL     1      -1.170  -1.586   0.519  0.00  0.00    +0.000 C 
ATOM      2  C   UNL     1      -1.165  -2.896   0.346  0.00  0.00    +0.000 C 
ENDROOT
BRANCH   2   3
ATOM      3  C   UNL     1      -2.295  -3.700  -0.062  0.00  0.00    +0.000 A 
ATOM      4  C   UNL     1      -3.584  -3.844   0.333  0.00  0.00    +0.000 A 
ATOM      5  C   UNL     1      -4.373  -4.698  -0.294  0.00  0.00    +0.000 A 
ATOM      6  C   UNL     1      -3.850  -5.410  -1.330  0.00  0.00    +0.000 A 
ATOM      7  S   UNL     1      -2.246  -4.858  -1.405  0.00  0.00    +0.000 S 
ENDBRANCH   2   3
BRANCH   1  10
ATOM      8  C   UNL     1       0.875  -0.350   0.009  0.00  0.00    +0.000 C 
ATOM      9  O   UNL     1       0.272  -0.097  -1.101  0.00  0.00    +0.000 OA
ATOM     10  N   UNL     1       0.144  -1.116   0.922  0.00  0.00    +0.000 NA
BRANCH   8  14
ATOM     11  C   UNL     1       4.928   1.005   0.234  0.00  0.00    +0.000 A 
ATOM     12  C   UNL     1       4.225   0.746   1.377  0.00  0.00    +0.000 A 
ATOM     13  C   UNL     1       2.882   0.334   1.350  0.00  0.00    +0.000 A 
ATOM     14  C   UNL     1       2.231   0.171   0.166  0.00  0.00    +0.000 A 
ATOM     15  C   UNL     1       2.943   0.436  -1.014  0.00  0.00    +0.000 A 
ATOM     16  C   UNL     1       4.227   0.834  -0.948  0.00  0.00    +0.000 A 
BRANCH  11  18
ATOM     17  C   UNL     1       6.551   2.472  -0.858  0.00  0.00    +0.000 C 
ATOM     18  C   UNL     1       6.340   1.406   0.229  0.00  0.00    +0.000 C 
ATOM     19  C   UNL     1       6.857   1.972   1.498  0.00  0.00    +0.000 C 
ATOM     20  C   UNL     1       7.231   0.223  -0.156  0.00  0.00    +0.000 C 
ENDBRANCH  11  18
ENDBRANCH   8  14
ENDBRANCH   1  10
BRANCH   1  21
ATOM     21  C   UNL     1      -2.332  -0.797   0.315  0.00  0.00    +0.000 C 
ATOM     22  O   UNL     1      -3.444  -1.353  -0.059  0.00  0.00    +0.000 OA
ATOM     23  N   UNL     1      -2.409   0.609   0.500  0.00  0.00    +0.000 NA
BRANCH  23  24
ATOM     24  C   UNL     1      -3.686   1.242   0.259  0.00  0.00    +0.000 C 
BRANCH  24  25
ATOM     25  C   UNL     1      -3.768   2.685   0.398  0.00  0.00    +0.000 A 
ATOM     26  C   UNL     1      -3.711   3.612  -0.682  0.00  0.00    +0.000 A 
ATOM     27  C   UNL     1      -3.816   4.855  -0.174  0.00  0.00    +0.000 A 
ATOM     28  C   UNL     1      -3.945   4.690   1.194  0.00  0.00    +0.000 A 
ATOM     29  O   UNL     1      -3.910   3.413   1.472  0.00  0.00    +0.000 OA
ENDBRANCH  24  25
ENDBRANCH  23  24
ENDBRANCH   1  21
TORSDOF 7
