REMARK  Name = 
REMARK  3 active torsions:
REMARK  status: ('A' for Active; 'I' for Inactive)
REMARK    1  A    between atoms: C_2  and  N_3
REMARK    2  A    between atoms: C_12  and  C_13
REMARK    3  A    between atoms: C_13  and  N_14
REMARK                            x       y       z     vdW  Elec       q    Type
REMARK                         _______ _______ _______ _____ _____    ______ ____
ROOT
ATOM      1  C   UNL     1      -0.354  -1.711  -1.288  0.00  0.00    +0.000 C 
ENDROOT
BRANCH   1   2
ATOM      2  N   UNL     1       0.863  -1.552  -0.585  0.00  0.00    +0.000 NA
ATOM      3  C   UNL     1       2.003  -2.179  -1.164  0.00  0.00    +0.000 C 
ATOM      4  C   UNL     1       3.166  -1.285  -1.427  0.00  0.00    +0.000 C 
ATOM      5  C   UNL     1       3.580  -0.594  -0.148  0.00  0.00    +0.000 C 
ATOM      6  C   UNL     1       2.388  -0.103   0.636  0.00  0.00    +0.000 C 
ATOM      7  C   UNL     1       1.092  -0.234  -0.066  0.00  0.00    +0.000 C 
ATOM      8  C   UNL     1       4.619   0.399  -0.308  0.00  0.00    +0.000 A 
ATOM      9  C   UNL     1       4.189   1.727  -0.433  0.00  0.00    +0.000 A 
ATOM     10  C   UNL     1       5.054   2.780  -0.591  0.00  0.00    +0.000 A 
ATOM     11  C   UNL     1       6.407   2.557  -0.632  0.00  0.00    +0.000 A 
ATOM     12  C   UNL     1       6.839   1.257  -0.511  0.00  0.00    +0.000 A 
ATOM     13  C   UNL     1       5.962   0.203  -0.352  0.00  0.00    +0.000 A 
ATOM     14  C   UNL     1       6.471  -1.182  -0.224  0.00  0.00    +0.000 C 
ATOM     15  C   UNL     1       5.425  -2.159  -0.299  0.00  0.00    +0.000 C 
ATOM     16  C   UNL     1       4.195  -1.838   0.772  0.00  0.00    +0.000 C 
ATOM     17  O   UNL     1       4.993  -0.932   1.723  0.00  0.00    +0.000 OA
ENDBRANCH   1   2
BRANCH   1  27
ATOM     18  N   UNL     1      -4.572   0.915   1.365  0.00  0.00    +0.000 N 
ATOM     19  C   UNL     1      -5.592   0.625   0.505  0.00  0.00    +0.000 A 
ATOM     20  C   UNL     1      -6.930   0.919   0.471  0.00  0.00    +0.000 A 
ATOM     21  C   UNL     1      -7.723   0.467  -0.567  0.00  0.00    +0.000 A 
ATOM     22  C   UNL     1      -7.183  -0.289  -1.589  0.00  0.00    +0.000 A 
ATOM     23  C   UNL     1      -5.839  -0.590  -1.564  0.00  0.00    +0.000 A 
ATOM     24  C   UNL     1      -5.072  -0.128  -0.520  0.00  0.00    +0.000 A 
ATOM     25  C   UNL     1      -3.713  -0.310  -0.296  0.00  0.00    +0.000 A 
ATOM     26  C   UNL     1      -2.744  -0.977  -1.010  0.00  0.00    +0.000 A 
ATOM     27  C   UNL     1      -1.443  -1.004  -0.557  0.00  0.00    +0.000 A 
ATOM     28  C   UNL     1      -1.180  -0.339   0.624  0.00  0.00    +0.000 A 
ATOM     29  C   UNL     1      -2.149   0.331   1.341  0.00  0.00    +0.000 A 
ATOM     30  C   UNL     1      -3.452   0.353   0.880  0.00  0.00    +0.000 A 
BRANCH  18  32
ATOM     31  C   UNL     1      -4.548   3.178   2.321  0.00  0.00    +0.000 C 
ATOM     32  C   UNL     1      -4.752   1.697   2.565  0.00  0.00    +0.000 C 
ENDBRANCH  18  32
ENDBRANCH   1  27
TORSDOF 3
