REMARK  Name = 
REMARK  6 active torsions:
REMARK  status: ('A' for Active; 'I' for Inactive)
REMARK    1  A    between atoms: C_2  and  C_3
REMARK    2  A    between atoms: C_3  and  C_5
REMARK    3  A    between atoms: C_8  and  N_9
REMARK    4  A    between atoms: C_10  and  C_12
REMARK    5  A    between atoms: C_16  and  C_17
REMARK    6  A    between atoms: C_20  and  O_21
REMARK                            x       y       z     vdW  Elec       q    Type
REMARK                         _______ _______ _______ _____ _____    ______ ____
ROOT
ATOM      1  C   UNL     1      -0.739  -0.198  -0.363  0.00  0.00    +0.000 A 
ATOM      2  S   UNL     1       0.320   0.524   0.740  0.00  0.00    +0.000 S 
ATOM      3  C   UNL     1       1.813   0.014   0.072  0.00  0.00    +0.000 A 
ATOM      4  N   UNL     1       3.130   0.194   0.399  0.00  0.00    +0.000 NA
ATOM      5  C   UNL     1       4.145  -0.324  -0.305  0.00  0.00    +0.000 A 
ATOM      6  C   UNL     1       3.778  -1.065  -1.402  0.00  0.00    +0.000 A 
ATOM      7  C   UNL     1       2.479  -1.276  -1.774  0.00  0.00    +0.000 A 
ATOM      8  C   UNL     1       1.429  -0.715  -1.010  0.00  0.00    +0.000 A 
ATOM      9  C   UNL     1       0.093  -0.828  -1.239  0.00  0.00    +0.000 A 
ATOM     10  N   UNL     1      -0.467  -1.587  -2.373  0.00  0.00    +0.000 NA
ENDROOT
BRANCH   5  11
ATOM     11  C   UNL     1       5.543  -0.127   0.051  0.00  0.00    +0.000 A 
ATOM     12  C   UNL     1       5.917   0.615   1.150  0.00  0.00    +0.000 A 
ATOM     13  C   UNL     1       7.256   0.800   1.486  0.00  0.00    +0.000 A 
ATOM     14  C   UNL     1       8.263   0.245   0.728  0.00  0.00    +0.000 A 
ATOM     15  C   UNL     1       7.896  -0.498  -0.373  0.00  0.00    +0.000 A 
ATOM     16  C   UNL     1       6.564  -0.674  -0.695  0.00  0.00    +0.000 A 
BRANCH  14  17
ATOM     17  O   UNL     1       9.614   0.430   1.065  0.00  0.00    +0.000 OA
ATOM     18  C   UNL     1      10.664  -0.111   0.329  0.00  0.00    +0.000 C 
ENDBRANCH  14  17
ENDBRANCH   5  11
BRANCH   1  20
ATOM     19  N   UNL     1      -2.900   0.566   0.642  0.00  0.00    +0.000 NA
ATOM     20  C   UNL     1      -2.207  -0.161  -0.382  0.00  0.00    +0.000 C 
ATOM     21  O   UNL     1      -2.893  -0.727  -1.240  0.00  0.00    +0.000 OA
BRANCH  19  25
ATOM     22  C   UNL     1      -7.072   0.777   0.743  0.00  0.00    +0.000 A 
ATOM     23  C   UNL     1      -6.329   1.403   1.692  0.00  0.00    +0.000 A 
ATOM     24  C   UNL     1      -4.926   1.322   1.643  0.00  0.00    +0.000 A 
ATOM     25  C   UNL     1      -4.314   0.608   0.634  0.00  0.00    +0.000 A 
ATOM     26  C   UNL     1      -5.139   0.005  -0.286  0.00  0.00    +0.000 A 
ATOM     27  C   UNL     1      -6.519   0.075  -0.252  0.00  0.00    +0.000 A 
BRANCH  22  28
ATOM     28  C   UNL     1      -8.616   0.963   0.937  0.00  0.00    +0.000 C 
ATOM     29  C   UNL     1      -8.848   1.595  -0.552  0.00  0.00    +0.000 C 
BRANCH  28  31
ATOM     30  C   UNL     1      -8.889  -1.307   1.778  0.00  0.00    +0.000 C 
ATOM     31  C   UNL     1      -9.047  -0.539   0.475  0.00  0.00    +0.000 C 
ENDBRANCH  28  31
ENDBRANCH  22  28
ENDBRANCH  19  25
ENDBRANCH   1  20
TORSDOF 6
