REMARK  Name = 
REMARK  9 active torsions:
REMARK  status: ('A' for Active; 'I' for Inactive)
REMARK    1  A    between atoms: C_2  and  C_3
REMARK    2  A    between atoms: C_3  and  C_4
REMARK    3  A    between atoms: C_4  and  C_5
REMARK    4  A    between atoms: C_8  and  N_9
REMARK    5  A    between atoms: C_10  and  C_12
REMARK    6  A    between atoms: C_12  and  O_13
REMARK    7  A    between atoms: O_13  and  C_14
REMARK    8  A    between atoms: C_14  and  C_16
REMARK    9  A    between atoms: C_21  and  C_22
REMARK                            x       y       z     vdW  Elec       q    Type
REMARK                         _______ _______ _______ _____ _____    ______ ____
ROOT
ATOM      1  O   UNL     1      -1.282  -2.523   1.385  0.00  0.00    +0.000 OA
ENDROOT
BRANCH   1   2
ATOM      2  C   UNL     1      -1.969  -1.447   0.808  0.00  0.00    +0.000 C 
ATOM      3  O   UNL     1      -1.435  -0.336   0.945  0.00  0.00    +0.000 OA
BRANCH   2   4
ATOM      4  C   UNL     1      -3.213  -1.736   0.121  0.00  0.00    +0.000 A 
ATOM      5  C   UNL     1      -3.668  -3.033   0.001  0.00  0.00    +0.000 A 
ATOM      6  C   UNL     1      -4.808  -3.394  -0.651  0.00  0.00    +0.000 A 
ATOM      7  C   UNL     1      -5.573  -2.410  -1.238  0.00  0.00    +0.000 A 
ATOM      8  C   UNL     1      -5.161  -1.114  -1.144  0.00  0.00    +0.000 A 
ATOM      9  C   UNL     1      -3.980  -0.759  -0.465  0.00  0.00    +0.000 A 
BRANCH   9  10
ATOM     10  C   UNL     1      -3.686   0.663  -0.418  0.00  0.00    +0.000 A 
ATOM     11  C   UNL     1      -3.451   1.354   0.746  0.00  0.00    +0.000 A 
ATOM     12  C   UNL     1      -3.172   2.703   0.786  0.00  0.00    +0.000 A 
ATOM     13  C   UNL     1      -3.115   3.439  -0.377  0.00  0.00    +0.000 A 
ATOM     14  C   UNL     1      -2.813   4.908  -0.360  0.00  0.00    +0.000 C 
ATOM     15  C   UNL     1      -3.346   2.774  -1.562  0.00  0.00    +0.000 A 
ATOM     16  C   UNL     1      -3.624   1.425  -1.593  0.00  0.00    +0.000 A 
ENDBRANCH   9  10
ENDBRANCH   2   4
ENDBRANCH   1   2
BRANCH   1  17
ATOM     17  C   UNL     1      -0.080  -2.384   2.072  0.00  0.00    +0.000 C 
BRANCH  17  19
ATOM     18  N   UNL     1       2.308  -1.575   1.686  0.00  0.00    +0.000 NA
ATOM     19  C   UNL     1       0.999  -1.807   1.203  0.00  0.00    +0.000 C 
ATOM     20  O   UNL     1       0.761  -1.511   0.005  0.00  0.00    +0.000 OA
BRANCH  18  24
ATOM     21  C   UNL     1       5.470   0.051  -0.645  0.00  0.00    +0.000 A 
ATOM     22  C   UNL     1       5.646  -0.301   0.676  0.00  0.00    +0.000 A 
ATOM     23  C   UNL     1       4.603  -0.829   1.417  0.00  0.00    +0.000 A 
ATOM     24  C   UNL     1       3.350  -1.027   0.878  0.00  0.00    +0.000 A 
ATOM     25  C   UNL     1       3.177  -0.675  -0.444  0.00  0.00    +0.000 A 
ATOM     26  C   UNL     1       4.218  -0.146  -1.188  0.00  0.00    +0.000 A 
BRANCH  21  27
ATOM     27  C   UNL     1       6.588   0.621  -1.454  0.00  0.00    +0.000 C 
BRANCH  27  28
ATOM     28  C   UNL     1       6.570   2.109  -1.316  0.00  0.00    +0.000 C 
BRANCH  28  30
ATOM     29  C   UNL     1       5.413   4.234  -1.594  0.00  0.00    +0.000 C 
ATOM     30  C   UNL     1       5.272   2.724  -1.800  0.00  0.00    +0.000 C 
ENDBRANCH  28  30
ENDBRANCH  27  28
ENDBRANCH  21  27
ENDBRANCH  18  24
ENDBRANCH  17  19
ENDBRANCH   1  17
TORSDOF 9
