
     RDKit          3D

 19 20  0  0  0  0  0  0  0  0999 V2000
   -2.1027   -0.9747    0.7788 O   0  0  0  0  0  0  0  0  0  0  0  0
   -2.1714   -0.4648   -0.3829 C   0  0  0  0  0  0  0  0  0  0  0  0
   -0.9958   -0.0308   -1.0458 N   0  0  0  0  0  0  0  0  0  0  0  0
    0.2667   -0.1574   -0.4285 C   0  0  0  0  0  0  0  0  0  0  0  0
    0.3741   -0.8053    1.0532 S   0  0  0  0  0  0  0  0  0  0  0  0
    1.4193    0.2759   -1.0957 N   0  0  0  0  0  0  0  0  0  0  0  0
    2.7310    0.1991   -0.5771 C   0  0  0  0  0  0  0  0  0  0  0  0
    3.0467   -0.3144    0.6592 C   0  0  0  0  0  0  0  0  0  0  0  0
    4.3628   -0.3464    1.0785 C   0  0  0  0  0  0  0  0  0  0  0  0
    5.4059    0.1198    0.3072 C   0  0  0  0  0  0  0  0  0  0  0  0
    6.7334    0.0892    0.7262 O   0  0  0  0  0  0  0  0  0  0  0  0
    5.0783    0.6368   -0.9399 C   0  0  0  0  0  0  0  0  0  0  0  0
    3.7650    0.6694   -1.3598 C   0  0  0  0  0  0  0  0  0  0  0  0
   -3.5227   -0.3594   -0.9762 C   0  0  0  0  0  0  0  0  0  0  0  0
   -3.9460    1.0254   -1.3008 C   0  0  0  0  0  0  0  0  0  0  0  0
   -5.3148    1.3022   -0.7597 C   0  0  0  0  0  0  0  0  0  0  0  0
   -5.2953    0.9291    0.7206 C   0  0  0  0  0  0  0  0  0  0  0  0
   -5.2977   -0.5741    0.7883 C   0  0  0  0  0  0  0  0  0  0  0  0
   -4.5365   -1.2194   -0.3296 C   0  0  0  0  0  0  0  0  0  0  0  0
  1  2  2  0
  2  3  1  0
  3  4  1  0
  4  5  2  0
  4  6  1  0
  6  7  1  0
  7  8  2  0
  8  9  1  0
  9 10  2  0
 10 11  1  0
 10 12  1  0
 12 13  2  0
  2 14  1  0
 14 15  1  0
 15 16  1  0
 16 17  1  0
 17 18  1  0
 18 19  1  0
 13  7  1  0
 19 14  1  0
M  END
>  <zinc_id>  (1) 
ZINC000000503073

>  <smiles>  (1) 
O=C(NC(=S)Nc1ccc(O)cc1)C1CCCCC1

$$$$
