
     RDKit          3D

 20 22  0  0  0  0  0  0  0  0999 V2000
   -6.3804    1.8662    0.4091 C   0  0  0  0  0  0  0  0  0  0  0  0
   -5.2141    0.9118    0.2483 C   0  0  0  0  0  0  0  0  0  0  0  0
   -4.3905    0.6211    1.3268 C   0  0  0  0  0  0  0  0  0  0  0  0
   -3.3184   -0.2171    1.1663 C   0  0  0  0  0  0  0  0  0  0  0  0
   -2.9836   -0.8251   -0.0636 C   0  0  0  0  0  0  0  0  0  0  0  0
   -1.7980   -1.6090   -0.0328 N   0  0  0  0  0  0  0  0  0  0  0  0
   -0.5912   -0.7867   -0.2408 C   0  0  0  0  0  0  0  0  0  0  0  0
    0.6950   -1.0554    0.0006 C   0  0  0  0  0  0  0  0  0  0  0  0
    1.6411   -0.1236   -0.3054 C   0  0  0  0  0  0  0  0  0  0  0  0
    3.0611   -0.2682    0.0889 C   0  0  1  0  0  0  0  0  0  0  0  0
    3.1891   -0.0354    1.5977 C   0  0  0  0  0  0  0  0  0  0  0  0
    3.7965   -1.4939   -0.3179 C   0  0  0  0  0  0  0  0  0  0  0  0
    5.2630   -1.0526    0.0068 C   0  0  0  0  0  0  0  0  0  0  0  0
    5.1681    0.4527   -0.1447 C   0  0  0  0  0  0  0  0  0  0  0  0
    6.1409    1.2465    0.0470 O   0  0  0  0  0  0  0  0  0  0  0  0
    3.8416    0.7564   -0.5208 O   0  0  0  0  0  0  0  0  0  0  0  0
    1.1338    1.0444   -0.8680 C   0  0  0  0  0  0  0  0  0  0  0  0
   -0.5268    0.7625   -0.9179 S   0  0  0  0  0  0  0  0  0  0  0  0
   -3.8105   -0.5283   -1.1140 C   0  0  0  0  0  0  0  0  0  0  0  0
   -4.9168    0.3338   -0.9549 C   0  0  0  0  0  0  0  0  0  0  0  0
  1  2  1  0
  2  3  2  0
  3  4  1  0
  4  5  2  0
  5  6  1  0
  6  7  1  0
  7  8  2  0
  8  9  1  0
  9 10  1  0
 10 11  1  1
 10 12  1  0
 12 13  1  0
 13 14  1  0
 14 15  2  0
 14 16  1  0
  9 17  2  0
 17 18  1  0
  5 19  1  0
 19 20  2  0
 20  2  1  0
 18  7  1  0
 16 10  1  0
M  END
>  <zinc_id>  (1) 
ZINC000000234068

>  <smiles>  (1) 
Cc1ccc(Nc2cc([C@@]3(C)CCC(=O)O3)cs2)cc1

$$$$
