
     RDKit          3D

 21 23  0  0  0  0  0  0  0  0999 V2000
    4.9626   -1.8697   -0.3693 C   0  0  0  0  0  0  0  0  0  0  0  0
    3.5685   -1.3734   -0.4061 C   0  0  0  0  0  0  0  0  0  0  0  0
    2.5121   -2.0847   -0.9160 C   0  0  0  0  0  0  0  0  0  0  0  0
    1.2195   -1.5770   -0.9291 C   0  0  0  0  0  0  0  0  0  0  0  0
    0.9560   -0.3200   -0.4205 C   0  0  0  0  0  0  0  0  0  0  0  0
   -0.3800    0.2683   -0.4059 C   0  0  0  0  0  0  0  0  0  0  0  0
   -0.5548    1.5470   -0.7857 N   0  0  0  0  0  0  0  0  0  0  0  0
   -1.7281    2.1526   -0.8010 N   0  0  0  0  0  0  0  0  0  0  0  0
   -1.8204    3.5480   -1.2303 C   0  0  0  0  0  0  0  0  0  0  0  0
   -2.8355    1.4943   -0.4250 C   0  0  0  0  0  0  0  0  0  0  0  0
   -3.9311    2.0942   -0.4503 O   0  0  0  0  0  0  0  0  0  0  0  0
   -2.7283    0.1804   -0.0238 C   0  0  0  0  0  0  0  0  0  0  0  0
   -3.8713   -0.4963    0.3635 C   0  0  0  0  0  0  0  0  0  0  0  0
   -3.7363   -1.8012    0.7575 C   0  0  0  0  0  0  0  0  0  0  0  0
   -2.5004   -2.4183    0.7671 C   0  0  0  0  0  0  0  0  0  0  0  0
   -1.3565   -1.7503    0.3825 C   0  0  0  0  0  0  0  0  0  0  0  0
   -1.4946   -0.4371   -0.0138 C   0  0  0  0  0  0  0  0  0  0  0  0
    2.0318    0.3784    0.0872 C   0  0  0  0  0  0  0  0  0  0  0  0
    3.3196   -0.1161    0.1053 C   0  0  0  0  0  0  0  0  0  0  0  0
    4.4359    0.6843    0.6657 C   0  0  0  0  0  0  0  0  0  0  0  0
    3.9312    1.8967    1.1101 O   0  0  0  0  0  0  0  0  0  0  0  0
  1  2  1  0
  2  3  2  0
  3  4  1  0
  4  5  2  0
  5  6  1  0
  6  7  2  0
  7  8  1  0
  8  9  1  0
  8 10  1  0
 10 11  2  0
 10 12  1  0
 12 13  2  0
 13 14  1  0
 14 15  2  0
 15 16  1  0
 16 17  2  0
  5 18  1  0
 18 19  2  0
 19 20  1  0
 20 21  1  0
 19  2  1  0
 17  6  1  0
 17 12  1  0
M  END
>  <zinc_id>  (1) 
ZINC000000204006

>  <smiles>  (1) 
Cc1ccc(-c2nn(C)c(=O)c3ccccc23)cc1CO

$$$$
