
     RDKit          3D

 21 23  0  0  0  0  0  0  0  0999 V2000
   -3.8952   -3.1489   -1.5901 C   0  0  0  0  0  0  0  0  0  0  0  0
   -2.5732   -2.4379   -1.3983 C   0  0  0  0  0  0  0  0  0  0  0  0
   -3.0812   -0.8808   -1.3659 C   0  0  1  0  0  0  0  0  0  0  0  0
   -4.0421   -1.1286   -0.0594 C   0  0  0  0  0  0  0  0  0  0  0  0
   -1.8859   -0.3390   -0.5436 N   0  0  0  0  0  0  0  0  0  0  0  0
   -0.6641   -0.7826   -0.5178 C   0  0  0  0  0  0  0  0  0  0  0  0
    0.0939   -0.0091    0.3245 C   0  0  0  0  0  0  0  0  0  0  0  0
    1.4103    0.0954    0.8099 C   0  0  0  0  0  0  0  0  0  0  0  0
    2.5601   -0.0743    0.3362 C   0  0  0  0  0  0  0  0  0  0  0  0
    3.8158    0.0802    0.9884 N   0  0  0  0  0  0  0  0  0  0  0  0
    4.8028   -0.2299    0.0118 C   0  0  0  0  0  0  0  0  0  0  0  0
    6.0530   -0.2021    0.2263 O   0  0  0  0  0  0  0  0  0  0  0  0
    4.1358   -0.5638   -1.2035 N   0  0  0  0  0  0  0  0  0  0  0  0
    2.7003   -0.4748   -1.0323 C   0  0  0  0  0  0  0  0  0  0  0  0
    1.7863   -0.6889   -1.8573 O   0  0  0  0  0  0  0  0  0  0  0  0
   -0.7734    0.9511    0.8148 C   0  0  0  0  0  0  0  0  0  0  0  0
   -0.6835    2.0416    1.7014 C   0  0  0  0  0  0  0  0  0  0  0  0
   -1.7036    2.8801    2.0488 C   0  0  0  0  0  0  0  0  0  0  0  0
   -2.9163    2.6115    1.4652 C   0  0  0  0  0  0  0  0  0  0  0  0
   -3.0948    1.5642    0.5853 C   0  0  0  0  0  0  0  0  0  0  0  0
   -2.0453    0.7367    0.2556 C   0  0  0  0  0  0  0  0  0  0  0  0
  1  2  1  0
  2  3  1  0
  3  4  1  1
  3  5  1  0
  5  6  1  0
  6  7  2  0
  7  8  1  0
  8  9  2  0
  9 10  1  0
 10 11  1  0
 11 12  2  0
 11 13  1  0
 13 14  1  0
 14 15  2  0
  7 16  1  0
 16 17  2  0
 17 18  1  0
 18 19  2  0
 19 20  1  0
 20 21  2  0
 21  5  1  0
 14  9  1  0
 21 16  1  0
M  END
>  <zinc_id>  (1) 
ZINC000000108286

>  <smiles>  (1) 
CC[C@@H](C)n1cc(/C=C2/NC(=O)NC2=O)c2ccccc21

$$$$
