
     RDKit          3D

 21 23  0  0  0  0  0  0  0  0999 V2000
   -2.9241   -3.1860   -1.7069 C   0  0  0  0  0  0  0  0  0  0  0  0
   -3.0824   -2.0253   -2.4546 O   0  0  0  0  0  0  0  0  0  0  0  0
   -2.8112   -0.8869   -1.6849 C   0  0  0  0  0  0  0  0  0  0  0  0
   -1.4124   -0.9339   -1.1628 C   0  0  0  0  0  0  0  0  0  0  0  0
   -0.5015   -1.9219   -1.3613 N   0  0  0  0  0  0  0  0  0  0  0  0
    0.6570   -1.6382   -0.7340 C   0  0  0  0  0  0  0  0  0  0  0  0
    1.8750   -2.2917   -0.6174 C   0  0  0  0  0  0  0  0  0  0  0  0
    2.9153   -1.7638    0.1005 C   0  0  0  0  0  0  0  0  0  0  0  0
    2.7708   -0.5519    0.7327 C   0  0  0  0  0  0  0  0  0  0  0  0
    3.8218    0.0490    1.4729 N   0  0  0  0  0  4  0  0  0  0  0  0
    4.8758   -0.5655    1.6250 O   0  0  0  0  0  0  0  0  0  0  0  0
    3.6613    1.2770    2.0162 O   0  0  0  0  0  1  0  0  0  0  0  0
    1.5618    0.1364    0.6401 C   0  0  0  0  0  0  0  0  0  0  0  0
    0.5257   -0.4267   -0.0956 C   0  0  0  0  0  0  0  0  0  0  0  0
   -0.7836   -0.0084   -0.3815 C   0  0  0  0  0  0  0  0  0  0  0  0
   -1.3338    1.2408    0.1066 C   0  0  0  0  0  0  0  0  0  0  0  0
   -2.3593    1.2553    1.0477 C   0  0  0  0  0  0  0  0  0  0  0  0
   -2.8616    2.4283    1.5222 C   0  0  0  0  0  0  0  0  0  0  0  0
   -2.3773    3.6808    1.0929 C   0  0  0  0  0  0  0  0  0  0  0  0
   -1.3652    3.6569    0.1637 C   0  0  0  0  0  0  0  0  0  0  0  0
   -0.8522    2.4756   -0.3215 C   0  0  0  0  0  0  0  0  0  0  0  0
  1  2  1  0
  2  3  1  0
  3  4  1  0
  4  5  1  0
  5  6  1  0
  6  7  2  0
  7  8  1  0
  8  9  2  0
  9 10  1  0
 10 11  2  0
 10 12  1  0
  9 13  1  0
 13 14  2  0
 14 15  1  0
 15 16  1  0
 16 17  2  0
 17 18  1  0
 18 19  2  0
 19 20  1  0
 20 21  2  0
 15  4  2  0
 21 16  1  0
 14  6  1  0
M  CHG  2  10   1  12  -1
M  END
>  <zinc_id>  (1) 
ZINC000000207253

>  <smiles>  (1) 
COCc1[nH]c2ccc([N+](=O)[O-])cc2c1-c1ccccc1

$$$$
