
     RDKit          3D

 19 20  0  0  0  0  0  0  0  0999 V2000
   -2.9950    2.2515    1.9360 C   0  0  0  0  0  0  0  0  0  0  0  0
   -2.4402    2.2698    0.5213 C   0  0  0  0  0  0  0  0  0  0  0  0
   -2.3421    0.8974   -0.0389 C   0  0  0  0  0  0  0  0  0  0  0  0
   -3.4589    0.1884   -0.4972 C   0  0  0  0  0  0  0  0  0  0  0  0
   -5.0157    0.9395   -0.4099 Cl  0  0  0  0  0  0  0  0  0  0  0  0
   -3.2392   -1.0485   -0.9814 N   0  0  0  0  0  0  0  0  0  0  0  0
   -2.0158   -1.6139   -1.0389 C   0  0  0  0  0  0  0  0  0  0  0  0
   -1.8700   -2.9358   -1.5719 N   0  0  0  0  0  0  0  0  0  0  0  0
   -0.9645   -0.9191   -0.5958 N   0  0  0  0  0  0  0  0  0  0  0  0
   -1.0925    0.3301   -0.0937 C   0  0  0  0  0  0  0  0  0  0  0  0
    0.0163    1.0472    0.3629 N   0  0  0  0  0  0  0  0  0  0  0  0
    1.3658    0.6129    0.3799 C   0  0  0  0  0  0  0  0  0  0  0  0
    2.3404    1.4423    0.8962 C   0  0  0  0  0  0  0  0  0  0  0  0
    3.6719    1.0821    0.9360 C   0  0  0  0  0  0  0  0  0  0  0  0
    4.0903   -0.1386    0.4554 C   0  0  0  0  0  0  0  0  0  0  0  0
    5.5166   -0.5714    0.4760 C   0  0  0  0  0  0  0  0  0  0  0  0
    3.1031   -0.9533   -0.0559 C   0  0  0  0  0  0  0  0  0  0  0  0
    3.5510   -2.2780   -0.5810 C   0  0  0  0  0  0  0  0  0  0  0  0
    1.7785   -0.6027   -0.0990 C   0  0  0  0  0  0  0  0  0  0  0  0
  1  2  1  0
  2  3  1  0
  3  4  2  0
  4  5  1  0
  4  6  1  0
  6  7  2  0
  7  8  1  0
  7  9  1  0
  9 10  2  0
 10 11  1  0
 11 12  1  0
 12 13  2  0
 13 14  1  0
 14 15  2  0
 15 16  1  0
 15 17  1  0
 17 18  1  0
 17 19  2  0
 10  3  1  0
 19 12  1  0
M  END
>  <zinc_id>  (1) 
ZINC000001682044

>  <smiles>  (1) 
CCc1c(Cl)nc(N)nc1Nc1ccc(C)c(C)c1

$$$$
