
     RDKit          3D

 20 21  0  0  0  0  0  0  0  0999 V2000
    1.3260   -1.9659    1.9055 C   0  0  0  0  0  0  0  0  0  0  0  0
    1.3529   -1.7983    0.4096 C   0  0  0  0  0  0  0  0  0  0  0  0
    2.2901   -0.6542    0.0322 C   0  0  0  0  0  0  0  0  0  0  0  0
    3.6409   -0.8668    0.0664 C   0  0  0  0  0  0  0  0  0  0  0  0
    4.3534   -2.1442    0.4484 C   0  0  0  0  0  0  0  0  0  0  0  0
    4.2918    0.6306   -0.4155 S   0  0  0  0  0  0  0  0  0  0  0  0
    2.8493    1.4939   -0.6498 C   0  0  0  0  0  0  0  0  0  0  0  0
    2.6483    2.8668   -1.0751 N   0  0  0  0  0  0  0  0  0  0  0  0
    1.8801    0.5776   -0.3405 C   0  0  0  0  0  0  0  0  0  0  0  0
    0.4327    0.9396   -0.4038 C   0  0  0  0  0  0  0  0  0  0  0  0
    0.0655    2.0919   -0.7352 O   0  0  0  0  0  0  0  0  0  0  0  0
   -0.5969    0.0275   -0.1000 N   0  0  0  0  0  0  0  0  0  0  0  0
   -1.9856    0.3712   -0.1529 C   0  0  0  0  0  0  0  0  0  0  0  0
   -2.4259    1.6155   -0.4825 C   0  0  0  0  0  0  0  0  0  0  0  0
   -3.7748    1.9061   -0.5107 C   0  0  0  0  0  0  0  0  0  0  0  0
   -4.6301    0.8832   -0.1914 C   0  0  0  0  0  0  0  0  0  0  0  0
   -4.2191   -0.3530    0.1369 C   0  0  0  0  0  0  0  0  0  0  0  0
   -2.8586   -0.6920    0.1776 C   0  0  0  0  0  0  0  0  0  0  0  0
   -2.4742   -1.8809    0.4933 O   0  0  0  0  0  0  0  0  0  0  0  0
   -2.1658   -3.0485    0.8060 C   0  0  0  0  0  0  0  0  0  0  0  0
  1  2  1  0
  2  3  1  0
  3  4  2  0
  4  5  1  0
  4  6  1  0
  6  7  1  0
  7  8  1  0
  7  9  2  0
  9 10  1  0
 10 11  2  0
 10 12  1  0
 12 13  1  0
 13 14  2  0
 14 15  1  0
 15 16  2  0
 16 17  1  0
 17 18  2  0
 18 19  1  0
 19 20  1  0
  9  3  1  0
 18 13  1  0
M  END
>  <zinc_id>  (1) 
ZINC000002506009

>  <smiles>  (1) 
CCc1c(C)sc(N)c1C(=O)Nc1ccccc1OC

$$$$
