
     RDKit          3D

 20 21  0  0  0  0  0  0  0  0999 V2000
   -2.9957    1.3001    1.2465 C   0  0  0  0  0  0  0  0  0  0  0  0
   -3.0345    0.2350    0.2224 C   0  0  0  0  0  0  0  0  0  0  0  0
   -1.8447   -0.2454   -0.2551 C   0  0  0  0  0  0  0  0  0  0  0  0
   -0.5575    0.2708    0.2248 C   0  0  0  0  0  0  0  0  0  0  0  0
    0.5626   -0.2293   -0.2707 C   0  0  0  0  0  0  0  0  0  0  0  0
    1.8589    0.2594    0.1826 C   0  0  0  0  0  0  0  0  0  0  0  0
    1.9046    1.2528    1.1378 C   0  0  0  0  0  0  0  0  0  0  0  0
    3.1390    1.7164    1.5679 C   0  0  0  0  0  0  0  0  0  0  0  0
    4.3287    1.2049    1.0604 C   0  0  0  0  0  0  0  0  0  0  0  0
    4.2817    0.2092    0.1031 C   0  0  0  0  0  0  0  0  0  0  0  0
    5.5103   -0.3912   -0.4904 C   0  0  0  0  0  0  0  0  0  0  0  0
    6.6069    0.2363    0.0991 O   0  0  0  0  0  0  0  0  0  0  0  0
    3.0418   -0.2282   -0.3017 C   0  0  0  0  0  0  0  0  0  0  0  0
    2.9742   -1.3009   -1.3328 C   0  0  0  0  0  0  0  0  0  0  0  0
   -1.9117   -1.2440   -1.2149 C   0  0  0  0  0  0  0  0  0  0  0  0
   -3.1254   -1.7398   -1.6762 C   0  0  0  0  0  0  0  0  0  0  0  0
   -4.2924   -1.2107   -1.1521 C   0  0  0  0  0  0  0  0  0  0  0  0
   -4.2646   -0.2165   -0.1960 C   0  0  0  0  0  0  0  0  0  0  0  0
   -5.5378    0.3565    0.3716 C   0  0  0  0  0  0  0  0  0  0  0  0
   -6.6445   -0.2354   -0.1835 O   0  0  0  0  0  0  0  0  0  0  0  0
  1  2  1  0
  2  3  2  0
  3  4  1  0
  4  5  2  0
  5  6  1  0
  6  7  2  0
  7  8  1  0
  8  9  2  0
  9 10  1  0
 10 11  1  0
 11 12  1  0
 10 13  2  0
 13 14  1  0
  3 15  1  0
 15 16  2  0
 16 17  1  0
 17 18  2  0
 18 19  1  0
 19 20  1  0
 18  2  1  0
 13  6  1  0
M  END
>  <zinc_id>  (1) 
ZINC000000392984

>  <smiles>  (1) 
Cc1c(/C=C/c2cccc(CO)c2C)cccc1CO

$$$$
