
     RDKit          3D

 21 22  0  0  0  0  0  0  0  0999 V2000
   -4.9427    2.0348   -0.7459 C   0  0  0  0  0  0  0  0  0  0  0  0
   -5.3205    0.6209   -0.4349 C   0  0  0  0  0  0  0  0  0  0  0  0
   -6.5475    0.1537   -0.3366 O   0  0  0  0  0  0  0  0  0  0  0  0
   -6.4523   -1.0973   -0.0568 C   0  0  0  0  0  0  0  0  0  0  0  0
   -5.1435   -1.5072    0.0416 C   0  0  0  0  0  0  0  0  0  0  0  0
   -4.3791   -0.3510   -0.2124 C   0  0  0  0  0  0  0  0  0  0  0  0
   -2.9474   -0.3535   -0.2235 C   0  0  0  0  0  0  0  0  0  0  0  0
   -2.2781   -1.3301    0.2267 O   0  0  0  0  0  0  0  0  0  0  0  0
   -2.1542    0.7182   -0.7371 N   0  0  0  0  0  0  0  0  0  0  0  0
   -0.7290    0.5852   -0.6976 N   0  0  0  0  0  0  0  0  0  0  0  0
   -0.0786    0.4193    0.3752 C   0  0  0  0  0  0  0  0  0  0  0  0
    1.3967    0.2962    0.2146 C   0  0  0  0  0  0  0  0  0  0  0  0
    2.2055    0.1626    1.3144 C   0  0  0  0  0  0  0  0  0  0  0  0
    3.5862    0.0237    1.1750 C   0  0  0  0  0  0  0  0  0  0  0  0
    4.1956    0.0139   -0.0671 C   0  0  0  0  0  0  0  0  0  0  0  0
    5.6406   -0.1398   -0.2417 C   0  0  0  0  0  0  0  0  0  0  0  0
    6.0939   -1.5351    0.1761 C   0  0  0  0  0  0  0  0  0  0  0  0
    6.4751    0.8139    0.5972 C   0  0  0  0  0  0  0  0  0  0  0  0
    6.0212    0.0321   -1.6992 C   0  0  0  0  0  0  0  0  0  0  0  0
    3.3752    0.1479   -1.1487 C   0  0  0  0  0  0  0  0  0  0  0  0
    1.9828    0.2915   -1.0438 C   0  0  0  0  0  0  0  0  0  0  0  0
  1  2  1  0
  2  3  1  0
  3  4  1  0
  4  5  2  0
  5  6  1  0
  6  7  1  0
  7  8  2  0
  7  9  1  0
  9 10  1  0
 10 11  2  0
 11 12  1  0
 12 13  2  0
 13 14  1  0
 14 15  2  0
 15 16  1  0
 16 17  1  0
 16 18  1  0
 16 19  1  0
 15 20  1  0
 20 21  2  0
  6  2  2  0
 21 12  1  0
M  END
>  <zinc_id>  (1) 
ZINC000000067440

>  <smiles>  (1) 
Cc1occc1C(=O)N/N=C/c1ccc(C(C)(C)C)cc1

$$$$
