
     RDKit          3D

 21 22  0  0  0  0  0  0  0  0999 V2000
    6.6525   -0.2936    1.2848 C   0  0  0  0  0  0  0  0  0  0  0  0
    6.0194   -1.0167    0.2493 O   0  0  0  0  0  0  0  0  0  0  0  0
    4.6562   -0.8912    0.0080 C   0  0  0  0  0  0  0  0  0  0  0  0
    4.0036   -1.5767   -0.9887 C   0  0  0  0  0  0  0  0  0  0  0  0
    2.6456   -1.4236   -1.1959 C   0  0  0  0  0  0  0  0  0  0  0  0
    1.8949   -0.5751   -0.4077 C   0  0  0  0  0  0  0  0  0  0  0  0
    0.4555   -0.4063   -0.6196 C   0  0  0  0  0  0  0  0  0  0  0  0
   -0.1186   -1.0409   -1.5340 O   0  0  0  0  0  0  0  0  0  0  0  0
   -0.2978    0.4528    0.1806 N   0  0  0  0  0  0  0  0  0  0  0  0
   -1.6872    0.6883    0.0617 C   0  0  0  0  0  0  0  0  0  0  0  0
   -2.2110    1.6781   -0.7331 C   0  0  0  0  0  0  0  0  0  0  0  0
   -1.3111    2.5856   -1.5384 C   0  0  0  0  0  0  0  0  0  0  0  0
   -3.5721    1.8403   -0.7927 C   0  0  0  0  0  0  0  0  0  0  0  0
   -4.4093    1.0279   -0.0700 C   0  0  0  0  0  0  0  0  0  0  0  0
   -5.7952    1.2289   -0.1605 O   0  0  0  0  0  0  0  0  0  0  0  0
   -3.9109    0.0231    0.7387 C   0  0  0  0  0  0  0  0  0  0  0  0
   -4.9612   -1.0273    1.6712 Cl  0  0  0  0  0  0  0  0  0  0  0  0
   -2.5275   -0.1203    0.7814 C   0  0  0  0  0  0  0  0  0  0  0  0
   -2.0170   -1.2208    1.6691 C   0  0  0  0  0  0  0  0  0  0  0  0
    2.5648    0.1058    0.5886 C   0  0  0  0  0  0  0  0  0  0  0  0
    3.9262   -0.0383    0.8073 C   0  0  0  0  0  0  0  0  0  0  0  0
  1  2  1  0
  2  3  1  0
  3  4  2  0
  4  5  1  0
  5  6  2  0
  6  7  1  0
  7  8  2  0
  7  9  1  0
  9 10  1  0
 10 11  2  0
 11 12  1  0
 11 13  1  0
 13 14  2  0
 14 15  1  0
 14 16  1  0
 16 17  1  0
 16 18  2  0
 18 19  1  0
  6 20  1  0
 20 21  2  0
 21  3  1  0
 18 10  1  0
M  END
>  <zinc_id>  (1) 
ZINC000001077309

>  <smiles>  (1) 
COc1ccc(C(=O)Nc2c(C)cc(O)c(Cl)c2C)cc1

$$$$
