
     RDKit          3D

 19 21  0  0  0  0  0  0  0  0999 V2000
    2.5137    0.0842   -2.0611 S   0  0  0  0  0  0  0  0  0  0  0  0
    1.2320   -0.2751   -1.1034 C   0  0  0  0  0  0  0  0  0  0  0  0
    1.4593   -1.0869    0.0209 N   0  0  0  0  0  0  0  0  0  0  0  0
    2.7397   -1.6340    0.4082 C   0  0  0  0  0  0  0  0  0  0  0  0
    3.7383   -0.5746    0.6875 C   0  0  0  0  0  0  0  0  0  0  0  0
    3.9271    0.0508    1.9190 C   0  0  0  0  0  0  0  0  0  0  0  0
    4.9419    0.9649    1.7534 C   0  0  0  0  0  0  0  0  0  0  0  0
    5.3318    0.8678    0.4469 C   0  0  0  0  0  0  0  0  0  0  0  0
    4.5949   -0.0495   -0.1358 O   0  0  0  0  0  0  0  0  0  0  0  0
   -0.0049    0.2565   -1.4804 N   0  0  0  0  0  0  0  0  0  0  0  0
   -1.2286    0.0860   -0.8245 C   0  0  0  0  0  0  0  0  0  0  0  0
   -1.3274   -0.6700    0.3256 C   0  0  0  0  0  0  0  0  0  0  0  0
   -2.5474   -0.8480    0.9915 C   0  0  0  0  0  0  0  0  0  0  0  0
   -3.6860   -0.2609    0.4994 C   0  0  0  0  0  0  0  0  0  0  0  0
   -3.6102    0.4968   -0.6460 C   0  0  0  0  0  0  0  0  0  0  0  0
   -2.4046    0.6639   -1.2908 C   0  0  0  0  0  0  0  0  0  0  0  0
   -4.9714    0.9984   -0.9437 C   0  0  0  0  0  0  0  0  0  0  0  0
   -5.6145    1.0297    0.4260 C   0  0  0  0  0  0  0  0  0  0  0  0
   -5.0837   -0.2887    1.0073 C   0  0  0  0  0  0  0  0  0  0  0  0
  1  2  2  0
  2  3  1  0
  3  4  1  0
  4  5  1  0
  5  6  2  0
  6  7  1  0
  7  8  2  0
  8  9  1  0
  2 10  1  0
 10 11  1  0
 11 12  2  0
 12 13  1  0
 13 14  2  0
 14 15  1  0
 15 16  2  0
 15 17  1  0
 17 18  1  0
 18 19  1  0
  9  5  1  0
 16 11  1  0
 19 14  1  0
M  END
>  <zinc_id>  (1) 
ZINC000000611491

>  <smiles>  (1) 
S=C(NCc1ccco1)Nc1ccc2c(c1)CCC2

$$$$
