
     RDKit          3D

 22 25  0  0  0  0  0  0  0  0999 V2000
    7.2091    0.7941   -0.5161 C   0  0  0  0  0  0  0  0  0  0  0  0
    6.3618    1.0862    0.5669 O   0  0  0  0  0  0  0  0  0  0  0  0
    5.0074    0.8242    0.4321 C   0  0  0  0  0  0  0  0  0  0  0  0
    4.1567    1.1104    1.5017 C   0  0  0  0  0  0  0  0  0  0  0  0
    2.8094    0.8478    1.3627 C   0  0  0  0  0  0  0  0  0  0  0  0
    2.2626    0.3152    0.2153 C   0  0  0  0  0  0  0  0  0  0  0  0
    0.8311    0.0541    0.1136 C   0  0  0  0  0  0  0  0  0  0  0  0
    0.2962   -0.4614   -0.9946 N   0  0  0  0  0  0  0  0  0  0  0  0
   -0.9988   -0.7344   -1.1809 C   0  0  0  0  0  0  0  0  0  0  0  0
   -1.4511   -1.2894   -2.4230 N   0  0  0  0  0  0  0  0  0  0  0  0
   -1.9167   -0.4707   -0.1424 C   0  0  0  0  0  0  0  0  0  0  0  0
   -3.2503   -0.6778   -0.1450 C   0  0  0  0  0  0  0  0  0  0  0  0
   -3.9379   -0.3403    0.9914 C   0  0  0  0  0  0  0  0  0  0  0  0
   -2.7227    0.2496    2.0207 S   0  0  0  0  0  0  0  0  0  0  0  0
   -1.3668    0.0565    0.9897 C   0  0  0  0  0  0  0  0  0  0  0  0
   -0.0232    0.3129    1.1143 N   0  0  0  0  0  0  0  0  0  0  0  0
   -5.4280   -0.5589    1.0214 C   0  0  0  0  0  0  0  0  0  0  0  0
   -6.0862   -0.0823   -0.2303 C   0  0  0  0  0  0  0  0  0  0  0  0
   -5.2000   -0.1311   -1.4432 C   0  0  0  0  0  0  0  0  0  0  0  0
   -4.1757   -1.2421   -1.2235 C   0  0  0  0  0  0  0  0  0  0  0  0
    3.1343    0.0465   -0.8174 C   0  0  0  0  0  0  0  0  0  0  0  0
    4.4886    0.2908   -0.7279 C   0  0  0  0  0  0  0  0  0  0  0  0
  1  2  1  0
  2  3  1  0
  3  4  2  0
  4  5  1  0
  5  6  2  0
  6  7  1  0
  7  8  2  0
  8  9  1  0
  9 10  1  0
  9 11  2  0
 11 12  1  0
 12 13  2  0
 13 14  1  0
 14 15  1  0
 15 16  2  0
 13 17  1  0
 17 18  1  0
 18 19  1  0
 19 20  1  0
  6 21  1  0
 21 22  2  0
 22  3  1  0
 16  7  1  0
 15 11  1  0
 20 12  1  0
M  END
>  <zinc_id>  (1) 
ZINC000000420824

>  <smiles>  (1) 
COc1ccc(-c2nc(N)c3c4c(sc3n2)CCCC4)cc1

$$$$
