
     RDKit          3D

 20 22  0  0  0  0  0  0  0  0999 V2000
   -3.8686   -3.6210   -0.4123 C   0  0  0  0  0  0  0  0  0  0  0  0
   -2.9421   -2.4583   -0.6286 C   0  0  0  0  0  0  0  0  0  0  0  0
   -2.8557   -1.4313    0.2841 C   0  0  0  0  0  0  0  0  0  0  0  0
   -2.0012   -0.3737    0.0696 C   0  0  0  0  0  0  0  0  0  0  0  0
   -1.2123   -0.3038   -1.0491 C   0  0  0  0  0  0  0  0  0  0  0  0
   -0.2853    0.8568   -1.2684 C   0  0  0  0  0  0  0  0  0  0  0  0
   -0.4088    1.6041   -2.4313 C   0  0  0  0  0  0  0  0  0  0  0  0
    0.7594    2.8082   -2.2581 S   0  0  0  0  0  0  0  0  0  0  0  0
    1.3934    2.3702   -0.7379 C   0  0  0  0  0  0  0  0  0  0  0  0
    2.3861    2.8888    0.0519 N   0  0  0  0  0  0  0  0  0  0  0  0
    2.7059    2.3370    1.2305 C   0  0  0  0  0  0  0  0  0  0  0  0
    2.0010    1.2621    1.5771 N   0  0  0  0  0  0  0  0  0  0  0  0
    1.0178    0.6977    0.8606 C   0  0  0  0  0  0  0  0  0  0  0  0
    0.3356   -0.4452    1.3317 N   0  0  0  0  0  0  0  0  0  0  0  0
    0.6902   -1.0476    2.5702 C   0  0  0  0  0  0  0  0  0  0  0  0
    1.9862   -1.7589    2.5991 C   0  0  0  0  0  0  0  0  0  0  0  0
    3.0699   -0.9589    2.3134 O   0  0  0  0  0  0  0  0  0  0  0  0
    0.6618    1.2675   -0.3910 C   0  0  0  0  0  0  0  0  0  0  0  0
   -1.2896   -1.3166   -1.9612 C   0  0  0  0  0  0  0  0  0  0  0  0
   -2.1438   -2.3772   -1.7503 C   0  0  0  0  0  0  0  0  0  0  0  0
  1  2  1  0
  2  3  2  0
  3  4  1  0
  4  5  2  0
  5  6  1  0
  6  7  2  0
  7  8  1  0
  8  9  1  0
  9 10  2  0
 10 11  1  0
 11 12  2  0
 12 13  1  0
 13 14  1  0
 14 15  1  0
 15 16  1  0
 16 17  1  0
 13 18  2  0
  5 19  1  0
 19 20  2  0
 20  2  1  0
 18  6  1  0
 18  9  1  0
M  END
>  <zinc_id>  (1) 
ZINC000001840706

>  <smiles>  (1) 
Cc1ccc(-c2csc3ncnc(NCCO)c23)cc1

$$$$
