
     RDKit          3D

 20 22  0  0  0  0  0  0  0  0999 V2000
    5.6317    0.4597    1.6302 C   0  0  0  0  0  0  0  0  0  0  0  0
    5.1336    1.3840    0.5339 C   0  0  0  0  0  0  0  0  0  0  0  0
    3.6882    1.3979    0.4482 N   0  0  0  0  0  0  0  0  0  0  0  0
    3.0443    0.1289    0.1666 C   0  0  0  0  0  0  0  0  0  0  0  0
    1.7518   -0.1116    0.0416 N   0  0  0  0  0  0  0  0  0  0  0  0
    1.3421   -1.3157   -0.2133 C   0  0  0  0  0  0  0  0  0  0  0  0
   -0.1021   -1.6471   -0.3649 C   0  0  0  0  0  0  0  0  0  0  0  0
   -0.6540   -2.8760   -0.6333 C   0  0  0  0  0  0  0  0  0  0  0  0
   -1.9924   -2.7529   -0.6915 N   0  0  0  0  0  0  0  0  0  0  0  0
   -2.3371   -1.4740   -0.4684 C   0  0  0  0  0  0  0  0  0  0  0  0
   -3.5198   -0.7696   -0.4062 C   0  0  0  0  0  0  0  0  0  0  0  0
   -3.5132    0.5951   -0.1451 C   0  0  0  0  0  0  0  0  0  0  0  0
   -2.3325    1.2845    0.0587 C   0  0  0  0  0  0  0  0  0  0  0  0
   -2.2822    2.6456    0.3216 O   0  0  0  0  0  0  0  0  0  0  0  0
   -3.3949    3.4776    0.4125 C   0  0  0  0  0  0  0  0  0  0  0  0
   -4.1679    3.4790   -0.8691 C   0  0  0  0  0  0  0  0  0  0  0  0
   -1.1685    0.5814   -0.0045 C   0  0  0  0  0  0  0  0  0  0  0  0
   -1.1721   -0.7896   -0.2665 C   0  0  0  0  0  0  0  0  0  0  0  0
    2.3054   -2.2907   -0.3406 C   0  0  0  0  0  0  0  0  0  0  0  0
    3.7398   -1.4066   -0.0841 S   0  0  0  0  0  0  0  0  0  0  0  0
  1  2  1  0
  2  3  1  0
  3  4  1  0
  4  5  2  0
  5  6  1  0
  6  7  1  0
  7  8  2  0
  8  9  1  0
  9 10  1  0
 10 11  2  0
 11 12  1  0
 12 13  2  0
 13 14  1  0
 14 15  1  0
 15 16  1  0
 13 17  1  0
 17 18  2  0
  6 19  2  0
 19 20  1  0
 20  4  1  0
 18  7  1  0
 18 10  1  0
M  END
>  <zinc_id>  (1) 
ZINC000002438608

>  <smiles>  (1) 
CCNc1nc(-c2c[nH]c3ccc(OCC)cc23)cs1

$$$$
