
     RDKit          3D

 21 24  0  0  0  0  0  0  0  0999 V2000
    0.3604   -2.2245   -0.3119 O   0  0  0  0  0  0  0  0  0  0  0  0
   -0.2122   -1.1457   -0.0856 C   0  0  0  0  0  0  0  0  0  0  0  0
    0.3331   -0.1840    0.7750 C   0  0  0  0  0  0  0  0  0  0  0  0
    1.6459   -0.4341    1.4479 C   0  0  0  0  0  0  0  0  0  0  0  0
    2.7047   -0.2299    0.4451 C   0  0  0  0  0  0  0  0  0  0  0  0
    3.2327   -1.2317   -0.3090 C   0  0  0  0  0  0  0  0  0  0  0  0
    4.2298   -0.9510   -1.2404 C   0  0  0  0  0  0  0  0  0  0  0  0
    4.6736    0.3457   -1.3894 C   0  0  0  0  0  0  0  0  0  0  0  0
    4.1463    1.3940   -0.6249 C   0  0  0  0  0  0  0  0  0  0  0  0
    3.1712    1.0721    0.2747 C   0  0  0  0  0  0  0  0  0  0  0  0
   -0.3293    0.9960    1.0011 C   0  0  0  0  0  0  0  0  0  0  0  0
    0.1260    1.9960    1.8273 O   0  0  0  0  0  0  0  0  0  0  0  0
   -1.5371    1.2092    0.3627 N   0  0  0  0  0  4  0  0  0  0  0  0
   -1.9444    0.2765   -0.3974 C   0  0  0  0  0  0  0  0  0  0  0  0
   -1.4052   -0.8943   -0.6935 N   0  0  0  0  0  0  0  0  0  0  0  0
   -2.0531   -1.8533   -1.5640 C   0  0  0  0  0  0  0  0  0  0  0  0
   -3.5311   -1.8648   -1.2875 C   0  0  0  0  0  0  0  0  0  0  0  0
   -4.0494   -0.7392   -0.4500 C   0  0  0  0  0  0  0  0  0  0  0  0
   -3.3490    0.6174   -1.0679 C   0  0  1  0  0  0  0  0  0  0  0  0
   -3.7607    1.5499    0.2857 C   0  0  0  0  0  0  0  0  0  0  0  0
   -2.4521    2.2956    0.3880 C   0  0  0  0  0  0  0  0  0  0  0  0
  1  2  2  0
  2  3  1  0
  3  4  1  0
  4  5  1  0
  5  6  2  0
  6  7  1  0
  7  8  2  0
  8  9  1  0
  9 10  2  0
  3 11  2  0
 11 12  1  0
 11 13  1  0
 13 14  2  0
 14 15  1  0
 15 16  1  0
 16 17  1  0
 17 18  1  0
 19 18  1  1
 19 20  1  0
 20 21  1  0
 15  2  1  0
 10  5  1  0
 21 13  1  0
 19 14  1  0
M  CHG  1  13   1
M  END
>  <zinc_id>  (1) 
ZINC000003958189

>  <smiles>  (1) 
O=c1c(Cc2ccccc2)c(O)[n+]2c3n1CCC[C@H]3CC2

$$$$
