
     RDKit          3D

 19 20  0  0  0  0  0  0  0  0999 V2000
   -4.8693   -0.1613   -1.0423 C   0  0  0  0  0  0  0  0  0  0  0  0
   -3.8748   -1.3150   -1.1334 C   0  0  0  0  0  0  0  0  0  0  0  0
   -2.6869   -0.9685   -0.2406 C   0  0  0  0  0  0  0  0  0  0  0  0
   -2.8048   -1.0853    1.1151 C   0  0  0  0  0  0  0  0  0  0  0  0
   -4.0175   -1.5358    1.8943 C   0  0  0  0  0  0  0  0  0  0  0  0
   -1.2800   -0.6070    1.6877 S   0  0  0  0  0  0  0  0  0  0  0  0
   -0.5206   -0.2678    0.2008 C   0  0  0  0  0  0  0  0  0  0  0  0
    0.8091    0.1938   -0.0867 N   0  0  0  0  0  0  0  0  0  0  0  0
    1.6957    0.4290    0.9677 C   0  0  0  0  0  0  0  0  0  0  0  0
    1.2925    0.2263    2.1391 O   0  0  0  0  0  0  0  0  0  0  0  0
    3.0529    0.8992    0.6841 C   0  0  0  0  0  0  0  0  0  0  0  0
    3.5611    1.1437   -0.5504 C   0  0  0  0  0  0  0  0  0  0  0  0
    4.8306    1.5730   -0.6277 C   0  0  0  0  0  0  0  0  0  0  0  0
    5.5139    1.7311    0.5405 C   0  0  0  0  0  0  0  0  0  0  0  0
    4.3582    1.2740    1.7094 S   0  0  0  0  0  0  0  0  0  0  0  0
   -1.4991   -0.5432   -0.7203 C   0  0  0  0  0  0  0  0  0  0  0  0
   -1.2330   -0.3707   -2.1839 C   0  0  0  0  0  0  0  0  0  0  0  0
   -2.2081   -0.6411   -3.1608 N   0  0  0  0  0  0  0  0  0  0  0  0
   -0.1199    0.0255   -2.6025 O   0  0  0  0  0  0  0  0  0  0  0  0
  1  2  1  0
  2  3  1  0
  3  4  2  0
  4  5  1  0
  4  6  1  0
  6  7  1  0
  7  8  1  0
  8  9  1  0
  9 10  2  0
  9 11  1  0
 11 12  2  0
 12 13  1  0
 13 14  2  0
 14 15  1  0
  7 16  2  0
 16 17  1  0
 17 18  1  0
 17 19  2  0
 16  3  1  0
 15 11  1  0
M  END
>  <zinc_id>  (1) 
ZINC000000133325

>  <smiles>  (1) 
CCc1c(C)sc(NC(=O)c2cccs2)c1C(N)=O

$$$$
