
     RDKit          3D

 21 22  0  0  0  0  0  0  0  0999 V2000
   -5.2991   -0.3866    0.6060 C   0  0  0  0  0  0  0  0  0  0  0  0
   -4.6590    0.8060   -0.1218 C   0  0  0  0  0  0  0  0  0  0  0  0
   -4.7248    2.0653    0.6869 C   0  0  0  0  0  0  0  0  0  0  0  0
   -5.4307    0.9293   -1.4252 C   0  0  0  0  0  0  0  0  0  0  0  0
   -3.3286    0.3892   -0.4126 O   0  0  0  0  0  0  0  0  0  0  0  0
   -2.4223    0.0285    0.5799 C   0  0  0  0  0  0  0  0  0  0  0  0
   -2.7980    0.0768    1.7578 O   0  0  0  0  0  0  0  0  0  0  0  0
   -1.0762   -0.3937    0.2715 N   0  0  0  0  0  0  0  0  0  0  0  0
   -0.2337   -0.7541    1.5627 C   0  0  2  0  0  0  0  0  0  0  0  0
    0.8069    0.4502    1.4515 C   0  0  0  0  0  0  0  0  0  0  0  0
    0.6603    1.2042    0.5317 O   0  0  0  0  0  0  0  0  0  0  0  0
    0.6659   -1.9011    0.7995 C   0  0  0  0  0  0  0  0  0  0  0  0
    1.4097   -1.2942   -0.2859 C   0  0  0  0  0  0  0  0  0  0  0  0
    1.1779   -1.1739   -1.6274 C   0  0  0  0  0  0  0  0  0  0  0  0
    2.1841   -0.4855   -2.1926 N   0  0  0  0  0  0  0  0  0  0  0  0
    3.0957   -0.1325   -1.2765 C   0  0  0  0  0  0  0  0  0  0  0  0
    4.2829    0.5574   -1.3629 C   0  0  0  0  0  0  0  0  0  0  0  0
    5.0314    0.7599   -0.2282 C   0  0  0  0  0  0  0  0  0  0  0  0
    4.6081    0.2829    0.9901 C   0  0  0  0  0  0  0  0  0  0  0  0
    3.4245   -0.3944    1.0281 C   0  0  0  0  0  0  0  0  0  0  0  0
    2.6251   -0.6336   -0.0680 C   0  0  0  0  0  0  0  0  0  0  0  0
  1  2  1  0
  2  3  1  0
  2  4  1  0
  2  5  1  0
  5  6  1  0
  6  7  2  0
  6  8  1  0
  8  9  1  0
  9 10  1  6
 10 11  2  0
  9 12  1  0
 12 13  1  0
 13 14  2  0
 14 15  1  0
 15 16  1  0
 16 17  2  0
 17 18  1  0
 18 19  2  0
 19 20  1  0
 20 21  2  0
 21 13  1  0
 21 16  1  0
M  END
>  <zinc_id>  (1) 
ZINC000002567739

>  <smiles>  (1) 
CC(C)(C)OC(=O)N[C@H](C=O)Cc1c[nH]c2ccccc12

$$$$
