
     RDKit          3D

 22 26  0  0  0  0  0  0  0  0999 V2000
   -2.5560    0.5246   -1.4446 C   0  0  0  0  0  0  0  0  0  0  0  0
   -2.9076    0.4090   -0.0615 C   0  0  2  0  0  0  0  0  0  0  0  0
   -2.5793    1.3940    0.9294 C   0  0  0  0  0  0  0  0  0  0  0  0
   -1.0883    1.6263    0.7333 C   0  0  0  0  0  0  0  0  0  0  0  0
   -0.3223    0.3048    1.2579 C   0  0  2  0  0  0  0  0  0  0  0  0
    1.0834    0.6323    0.5990 C   0  0  0  0  0  0  0  0  0  0  0  0
    1.5152    1.8547    0.3506 C   0  0  0  0  0  0  0  0  0  0  0  0
    2.7539    2.0323   -0.2225 C   0  0  0  0  0  0  0  0  0  0  0  0
    3.5232    0.9249   -0.5274 C   0  0  0  0  0  0  0  0  0  0  0  0
    4.7667    0.8234   -1.0911 N   0  0  0  0  0  0  0  0  0  0  0  0
    5.1123   -0.4711   -1.1947 C   0  0  0  0  0  0  0  0  0  0  0  0
    4.0620   -1.2042   -0.6843 C   0  0  0  0  0  0  0  0  0  0  0  0
    3.0555   -0.3458   -0.2606 C   0  0  0  0  0  0  0  0  0  0  0  0
    1.8221   -0.4956    0.3089 C   0  0  0  0  0  0  0  0  0  0  0  0
    1.3385   -1.8521    0.5892 C   0  0  0  0  0  0  0  0  0  0  0  0
   -0.1439   -1.9964    0.5959 C   0  0  0  0  0  0  0  0  0  0  0  0
   -0.7704   -0.6541   -0.0475 C   0  0  1  0  0  0  0  0  0  0  0  0
   -2.2980   -0.9695    0.5576 C   0  0  2  0  0  0  0  0  0  0  0  0
   -2.7829   -1.7684   -0.7483 C   0  0  0  0  0  0  0  0  0  0  0  0
   -4.1736   -1.3781   -0.9397 C   0  0  0  0  0  0  0  0  0  0  0  0
   -4.4188   -0.1526    0.1180 C   0  0  2  0  0  0  0  0  0  0  0  0
   -4.9919    0.7616   -0.9474 O   0  0  0  0  0  0  0  0  0  0  0  0
  2  1  1  6
  2  3  1  0
  3  4  1  0
  5  4  1  6
  5  6  1  0
  6  7  2  0
  7  8  1  0
  8  9  2  0
  9 10  1  0
 10 11  1  0
 11 12  2  0
 12 13  1  0
 13 14  2  0
 14 15  1  0
 15 16  1  0
 17 16  1  1
 17 18  1  0
 18 19  1  6
 19 20  1  0
 20 21  1  0
 21 22  1  6
 18  2  1  0
 21  2  1  0
 17  5  1  0
 14  6  1  0
 13  9  1  0
M  END
>  <zinc_id>  (1) 
ZINC000003927944

>  <smiles>  (1) 
C[C@]12CC[C@@H]3c4ccc5[nH]ccc5c4CC[C@H]3[C@@H]1CC[C@@H]2O

$$$$
