
     RDKit          3D

 18 20  0  0  0  0  0  0  0  0999 V2000
   -4.5713   -1.6290    1.0104 N   0  0  0  0  0  0  0  0  0  0  0  0
   -3.5729   -1.0388    0.2089 C   0  0  0  0  0  0  0  0  0  0  0  0
   -2.7353   -1.6618   -0.6191 N   0  0  0  0  0  0  0  0  0  0  0  0
   -1.9207   -0.8075   -1.2212 N   0  0  0  0  0  0  0  0  0  0  0  0
   -0.9237   -1.2145   -2.1662 C   0  0  0  0  0  0  0  0  0  0  0  0
    0.2981   -1.5124   -1.5827 O   0  0  0  0  0  0  0  0  0  0  0  0
    1.0339   -0.5899   -0.8607 C   0  0  0  0  0  0  0  0  0  0  0  0
    0.6144    0.7053   -0.6619 C   0  0  0  0  0  0  0  0  0  0  0  0
    1.3363    1.6284    0.0524 C   0  0  0  0  0  0  0  0  0  0  0  0
    2.5593    1.2661    0.6171 C   0  0  0  0  0  0  0  0  0  0  0  0
    3.0049   -0.0213    0.4357 C   0  0  0  0  0  0  0  0  0  0  0  0
    2.2630   -0.9296   -0.2849 C   0  0  0  0  0  0  0  0  0  0  0  0
    4.3326   -0.1976    1.1270 C   0  0  0  0  0  0  0  0  0  0  0  0
    4.2358    0.8807    2.2018 C   0  0  0  0  0  0  0  0  0  0  0  0
    3.5660    1.9841    1.4177 C   0  0  0  0  0  0  0  0  0  0  0  0
   -2.2335    0.4015   -0.7762 C   0  0  0  0  0  0  0  0  0  0  0  0
   -3.2709    0.3043    0.1285 C   0  0  0  0  0  0  0  0  0  0  0  0
   -4.0159    1.6390    0.9735 Cl  0  0  0  0  0  0  0  0  0  0  0  0
  1  2  1  0
  2  3  2  0
  3  4  1  0
  4  5  1  0
  5  6  1  0
  6  7  1  0
  7  8  2  0
  8  9  1  0
  9 10  2  0
 10 11  1  0
 11 12  2  0
 11 13  1  0
 13 14  1  0
 14 15  1  0
  4 16  1  0
 16 17  2  0
 17 18  1  0
 17  2  1  0
 12  7  1  0
 15 10  1  0
M  END
>  <zinc_id>  (1) 
ZINC000002534916

>  <smiles>  (1) 
Nc1nn(COc2ccc3c(c2)CCC3)cc1Cl

$$$$
