
     RDKit          3D

 21 22  0  0  0  0  0  0  0  0999 V2000
    2.9684   -0.3620    3.9007 C   0  0  0  0  0  0  0  0  0  0  0  0
    2.0620   -0.2407    2.8466 O   0  0  0  0  0  0  0  0  0  0  0  0
    2.4006   -0.4431    1.5220 C   0  0  0  0  0  0  0  0  0  0  0  0
    3.6934   -0.7845    1.1838 C   0  0  0  0  0  0  0  0  0  0  0  0
    4.0539   -0.9919   -0.1370 C   0  0  0  0  0  0  0  0  0  0  0  0
    3.1150   -0.8580   -1.1383 C   0  0  0  0  0  0  0  0  0  0  0  0
    3.5726   -1.1218   -2.8220 Cl  0  0  0  0  0  0  0  0  0  0  0  0
    1.8334   -0.5173   -0.7794 C   0  0  0  0  0  0  0  0  0  0  0  0
    1.4442   -0.3033    0.5394 C   0  0  0  0  0  0  0  0  0  0  0  0
    0.1101    0.0485    0.8824 N   0  0  0  0  0  0  0  0  0  0  0  0
   -0.9084    0.2038   -0.0940 C   0  0  0  0  0  0  0  0  0  0  0  0
   -0.6215    0.0161   -1.3921 N   0  0  0  0  0  0  0  0  0  0  0  0
   -1.5254    0.1427   -2.3805 C   0  0  0  0  0  0  0  0  0  0  0  0
   -1.1698   -0.0730   -3.8039 C   0  0  0  0  0  0  0  0  0  0  0  0
   -2.8309    0.4827   -2.0918 C   0  0  0  0  0  0  0  0  0  0  0  0
   -3.1759    0.6854   -0.7825 C   0  0  0  0  0  0  0  0  0  0  0  0
   -4.5735    1.0544   -0.4189 C   0  0  0  0  0  0  0  0  0  0  0  0
   -2.2049    0.5436    0.2159 C   0  0  0  0  0  0  0  0  0  0  0  0
   -2.5810    0.7604    1.5973 C   0  0  0  0  0  0  0  0  0  0  0  0
   -3.9125    1.1131    1.9569 N   0  0  0  0  0  0  0  0  0  0  0  0
   -1.7495    0.6449    2.5173 O   0  0  0  0  0  0  0  0  0  0  0  0
  1  2  1  0
  2  3  1  0
  3  4  2  0
  4  5  1  0
  5  6  2  0
  6  7  1  0
  6  8  1  0
  8  9  2  0
  9 10  1  0
 10 11  1  0
 11 12  2  0
 12 13  1  0
 13 14  1  0
 13 15  2  0
 15 16  1  0
 16 17  1  0
 16 18  2  0
 18 19  1  0
 19 20  1  0
 19 21  2  0
  9  3  1  0
 18 11  1  0
M  END
>  <zinc_id>  (1) 
ZINC000004118124

>  <smiles>  (1) 
COc1ccc(Cl)cc1Nc1nc(C)cc(C)c1C(N)=O

$$$$
