
     RDKit          3D

 21 23  0  0  0  0  0  0  0  0999 V2000
    6.5773    0.1013   -1.8148 C   0  0  0  0  0  0  0  0  0  0  0  0
    5.6131    0.9488   -1.2181 O   0  0  0  0  0  0  0  0  0  0  0  0
    4.4321    0.3523   -0.7418 C   0  0  0  0  0  0  0  0  0  0  0  0
    3.4450    1.1165   -0.1472 C   0  0  0  0  0  0  0  0  0  0  0  0
    2.2866    0.4962    0.3144 C   0  0  0  0  0  0  0  0  0  0  0  0
    2.0893   -0.8622    0.1979 C   0  0  0  0  0  0  0  0  0  0  0  0
    0.8874   -1.5354    0.6716 C   0  0  0  0  0  0  0  0  0  0  0  0
   -0.2801   -0.9084    0.5479 C   0  0  0  0  0  0  0  0  0  0  0  0
   -0.4903    0.3473    0.0046 O   0  0  0  0  0  0  0  0  0  0  0  0
   -1.8250    0.7005    0.0290 C   0  0  0  0  0  0  0  0  0  0  0  0
   -2.5283    1.8371   -0.3914 C   0  0  0  0  0  0  0  0  0  0  0  0
   -3.8926    1.9494   -0.2534 C   0  0  0  0  0  0  0  0  0  0  0  0
   -4.5871    3.0919   -0.6778 O   0  0  0  0  0  0  0  0  0  0  0  0
   -4.5680    0.8955    0.3206 C   0  0  0  0  0  0  0  0  0  0  0  0
   -3.8928   -0.2307    0.7403 C   0  0  0  0  0  0  0  0  0  0  0  0
   -4.5959   -1.3897    1.3660 C   0  0  0  0  0  0  0  0  0  0  0  0
   -2.5153   -0.3451    0.6013 C   0  0  0  0  0  0  0  0  0  0  0  0
   -1.5824   -1.4135    0.9589 C   0  0  0  0  0  0  0  0  0  0  0  0
   -1.8478   -2.5286    1.5041 O   0  0  0  0  0  0  0  0  0  0  0  0
    3.0664   -1.6239   -0.3915 C   0  0  0  0  0  0  0  0  0  0  0  0
    4.2084   -0.9992   -0.8445 C   0  0  0  0  0  0  0  0  0  0  0  0
  1  2  1  0
  2  3  1  0
  3  4  2  0
  4  5  1  0
  5  6  2  0
  6  7  1  0
  7  8  2  0
  8  9  1  0
  9 10  1  0
 10 11  2  0
 11 12  1  0
 12 13  1  0
 12 14  2  0
 14 15  1  0
 15 16  1  0
 15 17  2  0
 17 18  1  0
 18 19  2  0
  6 20  1  0
 20 21  2  0
 21  3  1  0
 18  8  1  0
 17 10  1  0
M  END
>  <zinc_id>  (1) 
ZINC000002130508

>  <smiles>  (1) 
COc1ccc(/C=C2\Oc3cc(O)cc(C)c3C2=O)cc1

$$$$
