
     RDKit          3D

 21 23  0  0  0  0  0  0  0  0999 V2000
   -0.1224   -1.1222   -2.4800 C   0  0  0  0  0  0  0  0  0  0  0  0
   -0.9258   -1.5442   -1.6040 C   0  0  0  0  0  0  0  0  0  0  0  0
   -2.2438   -2.0626   -1.7155 N   0  0  0  0  0  0  0  0  0  0  0  0
   -3.2677   -1.7992   -0.7901 N   0  0  0  0  0  0  0  0  0  0  0  0
   -2.9279   -1.0349    0.1977 C   0  0  0  0  0  0  0  0  0  0  0  0
   -4.0199   -0.7623    1.1692 C   0  0  0  0  0  0  0  0  0  0  0  0
   -3.8620    0.6069    1.8041 C   0  0  0  0  0  0  0  0  0  0  0  0
   -3.4420    1.5539    0.7096 C   0  0  0  0  0  0  0  0  0  0  0  0
   -1.9757    1.9131    0.7570 C   0  0  0  0  0  0  0  0  0  0  0  0
   -1.0922    0.7244    0.7468 C   0  0  0  0  0  0  0  0  0  0  0  0
   -1.6238   -0.4918    0.3546 N   0  0  0  0  0  0  0  0  0  0  0  0
   -0.5487   -1.5679   -0.0280 C   0  0  2  0  0  0  0  0  0  0  0  0
    0.7829   -0.7466   -0.0088 C   0  0  0  0  0  0  0  0  0  0  0  0
    1.6760   -0.7946   -1.0286 C   0  0  0  0  0  0  0  0  0  0  0  0
    2.8690   -0.0688   -0.9751 C   0  0  0  0  0  0  0  0  0  0  0  0
    3.1546    0.7027    0.1093 C   0  0  0  0  0  0  0  0  0  0  0  0
    4.3778    1.4663    0.1993 N   0  0  0  0  0  4  0  0  0  0  0  0
    4.6121    2.1541    1.1875 O   0  0  0  0  0  0  0  0  0  0  0  0
    5.2642    1.4034   -0.8404 O   0  0  0  0  0  1  0  0  0  0  0  0
    2.2576    0.7626    1.1547 C   0  0  0  0  0  0  0  0  0  0  0  0
    1.0579    0.0214    1.0805 C   0  0  0  0  0  0  0  0  0  0  0  0
  1  2  2  0
  2  3  1  0
  3  4  1  0
  4  5  2  0
  5  6  1  0
  6  7  1  0
  7  8  1  0
  8  9  1  0
  9 10  1  0
 10 11  1  0
 11 12  1  0
 12 13  1  6
 13 14  2  0
 14 15  1  0
 15 16  2  0
 16 17  1  0
 17 18  2  0
 17 19  1  0
 16 20  1  0
 20 21  2  0
 12  2  1  0
 21 13  1  0
 11  5  1  0
M  CHG  2  17   1  19  -1
M  END
>  <zinc_id>  (1) 
ZINC000002546668

>  <smiles>  (1) 
C=C1NN=C2CCCCCN2[C@@H]1c1ccc([N+](=O)[O-])cc1

$$$$
