
     RDKit          3D

 20 22  0  0  0  0  0  0  0  0999 V2000
   -0.0141    0.1501   -1.5041 O   0  0  0  0  0  0  0  0  0  0  0  0
   -0.5912   -0.5118   -0.6182 C   0  0  0  0  0  0  0  0  0  0  0  0
    0.3368   -1.0119    0.3030 N   0  0  0  0  0  0  0  0  0  0  0  0
    1.6636   -0.9833    0.5491 C   0  0  0  0  0  0  0  0  0  0  0  0
    2.3558    0.3985    0.8858 C   0  0  2  0  0  0  0  0  0  0  0  0
    2.1060    1.2579   -0.3651 C   0  0  0  0  0  0  0  0  0  0  0  0
    3.6197    1.8252   -0.7591 C   0  0  2  0  0  0  0  0  0  0  0  0
    3.9912    0.5240   -1.5432 C   0  0  0  0  0  0  0  0  0  0  0  0
    4.1113   -0.4229   -0.7729 C   0  0  0  0  0  0  0  0  0  0  0  0
    3.8856   -0.1017    0.7390 C   0  0  1  0  0  0  0  0  0  0  0  0
    4.3356    1.4690    0.6122 C   0  0  0  0  0  0  0  0  0  0  0  0
   -2.0352   -0.7141   -0.5847 C   0  0  0  0  0  0  0  0  0  0  0  0
   -2.7510   -1.4658   -1.4876 C   0  0  0  0  0  0  0  0  0  0  0  0
   -4.1375   -1.6424   -1.3323 C   0  0  0  0  0  0  0  0  0  0  0  0
   -4.8289   -1.0777   -0.2847 C   0  0  0  0  0  0  0  0  0  0  0  0
   -4.1114   -0.3116    0.6384 C   0  0  0  0  0  0  0  0  0  0  0  0
   -2.7390   -0.1501    0.4657 C   0  0  0  0  0  0  0  0  0  0  0  0
   -1.9936    0.6548    1.3776 N   0  0  0  0  0  4  0  0  0  0  0  0
   -2.3757    0.8193    2.5426 O   0  0  0  0  0  0  0  0  0  0  0  0
   -0.8281    1.2945    1.0383 O   0  0  0  0  0  1  0  0  0  0  0  0
  1  2  2  0
  2  3  1  0
  3  4  1  0
  5  4  1  6
  5  6  1  0
  7  6  1  1
  7  8  1  0
  8  9  2  0
 10  9  1  6
 10 11  1  0
  2 12  1  0
 12 13  2  0
 13 14  1  0
 14 15  2  0
 15 16  1  0
 16 17  2  0
 17 18  1  0
 18 19  2  0
 18 20  1  0
 10  5  1  0
 17 12  1  0
 11  7  1  0
M  CHG  2  18   1  20  -1
M  END
>  <zinc_id>  (1) 
ZINC000003110836

>  <smiles>  (1) 
O=C(NC[C@@H]1C[C@@H]2C=C[C@H]1C2)c1ccccc1[N+](=O)[O-]

$$$$
