
     RDKit          3D

 22 25  0  0  0  0  0  0  0  0999 V2000
    0.0436   -0.3609    1.9475 O   0  0  0  0  0  0  0  0  0  0  0  0
   -0.4874   -0.1468    0.8213 C   0  0  0  0  0  0  0  0  0  0  0  0
    0.3857   -0.0686   -0.2775 N   0  0  0  0  0  0  0  0  0  0  0  0
    1.7578   -0.2162   -0.1507 C   0  0  0  0  0  0  0  0  0  0  0  0
    2.4940   -1.2904   -0.8270 C   0  0  0  0  0  0  0  0  0  0  0  0
    3.4321   -2.0234    0.1432 C   0  0  0  0  0  0  0  0  0  0  0  0
    4.3388   -1.0601    0.8534 C   0  0  0  0  0  0  0  0  0  0  0  0
    5.2296   -0.2985   -0.1348 C   0  0  0  0  0  0  0  0  0  0  0  0
    4.2868    0.4542   -1.0738 C   0  0  0  0  0  0  0  0  0  0  0  0
    3.4672   -0.5809   -1.7949 C   0  0  0  0  0  0  0  0  0  0  0  0
    3.4783    1.4533   -0.2938 C   0  0  0  0  0  0  0  0  0  0  0  0
    2.5551    0.7029    0.6864 C   0  0  0  0  0  0  0  0  0  0  0  0
    3.5266   -0.0564    1.6033 C   0  0  0  0  0  0  0  0  0  0  0  0
   -1.9265   -0.0052    0.7668 C   0  0  0  0  0  0  0  0  0  0  0  0
   -2.7040   -0.2092    1.8832 C   0  0  0  0  0  0  0  0  0  0  0  0
   -4.0660   -0.0969    1.9154 C   0  0  0  0  0  0  0  0  0  0  0  0
   -4.7392    0.2425    0.7692 C   0  0  0  0  0  0  0  0  0  0  0  0
   -4.0014    0.4567   -0.3724 C   0  0  0  0  0  0  0  0  0  0  0  0
   -4.6635    0.8146   -1.5776 N   0  0  0  0  0  4  0  0  0  0  0  0
   -5.8875    0.8997   -1.5714 O   0  0  0  0  0  0  0  0  0  0  0  0
   -3.9090    1.0521   -2.7236 O   0  0  0  0  0  1  0  0  0  0  0  0
   -2.6112    0.3377   -0.3884 C   0  0  0  0  0  0  0  0  0  0  0  0
  1  2  2  0
  2  3  1  0
  3  4  1  0
  4  5  1  0
  5  6  1  0
  6  7  1  0
  7  8  1  0
  8  9  1  0
  9 10  1  0
  9 11  1  0
 11 12  1  0
 12 13  1  0
  2 14  1  0
 14 15  2  0
 15 16  1  0
 16 17  2  0
 17 18  1  0
 18 19  1  0
 19 20  2  0
 19 21  1  0
 18 22  2  0
 12  4  1  0
 22 14  1  0
 10  5  1  0
 13  7  1  0
M  CHG  2  19   1  21  -1
M  END
>  <zinc_id>  (1) 
ZINC000000431803

>  <smiles>  (1) 
O=C(NC1C2CC3CC(C2)CC1C3)c1cccc([N+](=O)[O-])c1

$$$$
