
     RDKit          3D

 21 24  0  0  0  0  0  0  0  0999 V2000
    7.1145    1.3321    0.0817 N   0  0  0  0  0  0  0  0  0  0  0  0
    5.9713    1.1309    0.2056 C   0  0  0  0  0  0  0  0  0  0  0  0
    4.5714    0.8902    0.3681 C   0  0  0  0  0  0  0  0  0  0  0  0
    3.9938    0.9870    1.6168 C   0  0  0  0  0  0  0  0  0  0  0  0
    2.6386    0.7421    1.7020 C   0  0  0  0  0  0  0  0  0  0  0  0
    1.8754    0.4136    0.6019 C   0  0  0  0  0  0  0  0  0  0  0  0
    0.4596    0.1655    0.7379 N   0  0  0  0  0  0  0  0  0  0  0  0
   -0.3423   -0.1717   -0.3707 C   0  0  0  0  0  0  0  0  0  0  0  0
    0.2237   -0.2494   -1.4910 O   0  0  0  0  0  0  0  0  0  0  0  0
   -1.7917   -0.4368   -0.2981 C   0  0  0  0  0  0  0  0  0  0  0  0
   -2.4645    0.8295    0.2423 C   0  0  0  0  0  0  0  0  0  0  0  0
   -3.9506    0.6300    0.4053 C   0  0  0  0  0  0  0  0  0  0  0  0
   -4.1523   -0.5207    1.3633 C   0  0  0  0  0  0  0  0  0  0  0  0
   -3.5429   -1.7807    0.7350 C   0  0  0  0  0  0  0  0  0  0  0  0
   -4.1559   -2.0331   -0.6278 C   0  0  0  0  0  0  0  0  0  0  0  0
   -3.8632   -0.8651   -1.5674 C   0  0  0  0  0  0  0  0  0  0  0  0
   -4.5372    0.3516   -0.9597 C   0  0  0  0  0  0  0  0  0  0  0  0
   -2.3699   -0.7004   -1.6466 C   0  0  0  0  0  0  0  0  0  0  0  0
   -2.0274   -1.6073    0.6178 C   0  0  0  0  0  0  0  0  0  0  0  0
    2.4993    0.3293   -0.6253 C   0  0  0  0  0  0  0  0  0  0  0  0
    3.8505    0.5634   -0.7708 C   0  0  0  0  0  0  0  0  0  0  0  0
  1  2  3  0
  2  3  1  0
  3  4  2  0
  4  5  1  0
  5  6  2  0
  6  7  1  0
  7  8  1  0
  8  9  2  0
  8 10  1  0
 10 11  1  0
 11 12  1  0
 12 13  1  0
 13 14  1  0
 14 15  1  0
 15 16  1  0
 16 17  1  0
 16 18  1  0
 14 19  1  0
  6 20  1  0
 20 21  2  0
 21  3  1  0
 18 10  1  0
 19 10  1  0
 17 12  1  0
M  END
>  <zinc_id>  (1) 
ZINC000004460084

>  <smiles>  (1) 
N#Cc1ccc(NC(=O)C23CC4CC(CC(C4)C2)C3)cc1

$$$$
