
     RDKit          3D

 20 21  0  0  0  0  0  0  0  0999 V2000
    2.9628   -2.3802    0.8705 C   0  0  0  0  0  0  0  0  0  0  0  0
    4.1002   -1.3178    1.3870 C   0  0  2  0  0  0  0  0  0  0  0  0
    3.0168   -0.2289    1.9249 C   0  0  0  0  0  0  0  0  0  0  0  0
    1.8683   -0.1982    0.9706 C   0  0  0  0  0  0  0  0  0  0  0  0
    0.6102   -0.6472    1.2719 N   0  0  0  0  0  0  0  0  0  0  0  0
   -0.6503   -0.5724    0.9850 N   0  0  0  0  0  0  0  0  0  0  0  0
   -1.3873    0.2364    0.1247 C   0  0  0  0  0  0  0  0  0  0  0  0
   -0.8178    1.1093   -0.5682 O   0  0  0  0  0  0  0  0  0  0  0  0
   -2.8359    0.0451    0.0498 C   0  0  0  0  0  0  0  0  0  0  0  0
   -3.4718   -0.9170    0.8068 C   0  0  0  0  0  0  0  0  0  0  0  0
   -4.8316   -1.0956    0.7275 C   0  0  0  0  0  0  0  0  0  0  0  0
   -5.5944   -0.3163   -0.1130 C   0  0  0  0  0  0  0  0  0  0  0  0
   -4.9876    0.6552   -0.8843 C   0  0  0  0  0  0  0  0  0  0  0  0
   -3.6133    0.8080   -0.7801 C   0  0  0  0  0  0  0  0  0  0  0  0
   -2.9999    1.7812   -1.5561 O   0  0  0  0  0  0  0  0  0  0  0  0
    2.2655    0.3149   -0.2131 C   0  0  0  0  0  0  0  0  0  0  0  0
    3.7154    0.6699   -0.1575 C   0  0  0  0  0  0  0  0  0  0  0  0
    4.2211    1.3796   -1.3495 C   0  0  0  0  0  0  0  0  0  0  0  0
    4.0660    1.3776    1.1281 C   0  0  0  0  0  0  0  0  0  0  0  0
    4.3637   -0.7038   -0.0992 C   0  0  0  0  0  0  0  0  0  0  0  0
  2  1  1  6
  2  3  1  0
  3  4  1  0
  4  5  1  0
  5  6  1  0
  6  7  1  0
  7  8  2  0
  7  9  1  0
  9 10  2  0
 10 11  1  0
 11 12  2  0
 12 13  1  0
 13 14  2  0
 14 15  1  0
  4 16  2  0
 16 17  1  0
 17 18  1  0
 17 19  1  0
 17 20  1  0
 20  2  1  0
 14  9  1  0
M  END
>  <zinc_id>  (1) 
ZINC000003233025

>  <smiles>  (1) 
C[C@@H]1CC(NNC(=O)c2ccccc2O)=CC(C)(C)C1

$$$$
