
     RDKit          3D

 19 20  0  0  0  0  0  0  0  0999 V2000
   -4.4172   -2.8816   -1.0723 C   0  0  0  0  0  0  0  0  0  0  0  0
   -3.2193   -2.3230   -0.9674 C   0  0  0  0  0  0  0  0  0  0  0  0
   -2.5714   -1.9582    0.3034 C   0  0  0  0  0  0  0  0  0  0  0  0
   -2.2732   -0.5408    0.3970 N   0  0  0  0  0  0  0  0  0  0  0  0
   -3.4039    0.3617    0.4946 C   0  0  0  0  0  0  0  0  0  0  0  0
   -2.8570    1.7456    0.5754 C   0  0  0  0  0  0  0  0  0  0  0  0
   -3.2384    2.5732   -0.4063 C   0  0  0  0  0  0  0  0  0  0  0  0
   -0.9259   -0.0837    0.3925 C   0  0  0  0  0  0  0  0  0  0  0  0
   -0.6147    1.2267    0.4919 N   0  0  0  0  0  0  0  0  0  0  0  0
    0.6937    1.5999    0.4815 C   0  0  0  0  0  0  0  0  0  0  0  0
    1.0431    2.9761    0.5837 N   0  0  0  0  0  0  0  0  0  0  0  0
    1.6936    0.6661    0.3708 C   0  0  0  0  0  0  0  0  0  0  0  0
    3.0385    0.9756    0.3536 C   0  0  0  0  0  0  0  0  0  0  0  0
    4.0113   -0.0162    0.2371 C   0  0  0  0  0  0  0  0  0  0  0  0
    5.7233    0.3701    0.2089 Cl  0  0  0  0  0  0  0  0  0  0  0  0
    3.6228   -1.3369    0.1376 C   0  0  0  0  0  0  0  0  0  0  0  0
    2.2847   -1.6888    0.1512 C   0  0  0  0  0  0  0  0  0  0  0  0
    1.3525   -0.6748    0.2681 C   0  0  0  0  0  0  0  0  0  0  0  0
    0.0575   -0.9911    0.2843 N   0  0  0  0  0  0  0  0  0  0  0  0
  1  2  2  0
  2  3  1  0
  3  4  1  0
  4  5  1  0
  5  6  1  0
  6  7  2  0
  4  8  1  0
  8  9  2  0
  9 10  1  0
 10 11  1  0
 10 12  2  0
 12 13  1  0
 13 14  2  0
 14 15  1  0
 14 16  1  0
 16 17  2  0
 17 18  1  0
 18 19  2  0
 19  8  1  0
 18 12  1  0
M  END
>  <zinc_id>  (1) 
ZINC000001595661

>  <smiles>  (1) 
C=CCN(CC=C)c1nc(N)c2cc(Cl)ccc2n1

$$$$
