
     RDKit          3D

 20 21  0  0  0  0  0  0  0  0999 V2000
    5.3064    0.7815    1.8658 C   0  0  0  0  0  0  0  0  0  0  0  0
    5.1053    1.3639    0.4847 C   0  0  0  0  0  0  0  0  0  0  0  0
    3.9610    0.7883   -0.1177 O   0  0  0  0  0  0  0  0  0  0  0  0
    2.6898    0.8832    0.4202 C   0  0  0  0  0  0  0  0  0  0  0  0
    2.5525    1.5125    1.4956 O   0  0  0  0  0  0  0  0  0  0  0  0
    1.5605    0.2634   -0.2593 C   0  0  0  0  0  0  0  0  0  0  0  0
    0.3193    0.3544    0.2631 N   0  0  0  0  0  0  0  0  0  0  0  0
   -0.7435   -0.2066   -0.3396 C   0  0  0  0  0  0  0  0  0  0  0  0
   -2.0952   -0.1088    0.2274 C   0  0  0  0  0  0  0  0  0  0  0  0
   -3.1659   -0.6943   -0.4132 C   0  0  0  0  0  0  0  0  0  0  0  0
   -4.4461   -0.6012    0.1246 C   0  0  0  0  0  0  0  0  0  0  0  0
   -4.6928    0.0712    1.3041 C   0  0  0  0  0  0  0  0  0  0  0  0
   -6.0725    0.1610    1.8663 C   0  0  0  0  0  0  0  0  0  0  0  0
   -3.6141    0.6535    1.9370 C   0  0  0  0  0  0  0  0  0  0  0  0
   -2.3371    0.5632    1.4048 C   0  0  0  0  0  0  0  0  0  0  0  0
   -0.5417   -0.8883   -1.5207 C   0  0  0  0  0  0  0  0  0  0  0  0
    0.6746   -0.9997   -2.0692 N   0  0  0  0  0  4  0  0  0  0  0  0
    0.8071   -1.6869   -3.2384 O   0  0  0  0  0  1  0  0  0  0  0  0
    1.7106   -0.4286   -1.4417 C   0  0  0  0  0  0  0  0  0  0  0  0
    3.0219   -0.5247   -1.9937 N   0  0  0  0  0  0  0  0  0  0  0  0
  1  2  1  0
  2  3  1  0
  3  4  1  0
  4  5  2  0
  4  6  1  0
  6  7  2  0
  7  8  1  0
  8  9  1  0
  9 10  2  0
 10 11  1  0
 11 12  2  0
 12 13  1  0
 12 14  1  0
 14 15  2  0
  8 16  2  0
 16 17  1  0
 17 18  1  0
 17 19  2  0
 19 20  1  0
 19  6  1  0
 15  9  1  0
M  CHG  2  17   1  18  -1
M  END
>  <zinc_id>  (1) 
ZINC000000331447

>  <smiles>  (1) 
CCOC(=O)c1nc(-c2ccc(C)cc2)c[n+]([O-])c1N

$$$$
