
     RDKit          3D

 21 24  0  0  0  0  0  0  0  0999 V2000
   -0.9012    3.7863    0.8896 C   0  0  0  0  0  0  0  0  0  0  0  0
   -0.2789    2.4557    0.6219 C   0  0  0  0  0  0  0  0  0  0  0  0
    1.0513    2.2630    0.6850 N   0  0  0  0  0  0  0  0  0  0  0  0
    1.5987    1.0453    0.4378 C   0  0  0  0  0  0  0  0  0  0  0  0
    0.7521    0.0420    0.1265 C   0  0  0  0  0  0  0  0  0  0  0  0
   -0.6090    0.1628    0.0447 C   0  0  0  0  0  0  0  0  0  0  0  0
   -1.1483    1.4286    0.3045 C   0  0  0  0  0  0  0  0  0  0  0  0
   -2.4690    1.3327    0.1828 N   0  0  0  0  0  0  0  0  0  0  0  0
   -2.8528    0.0866   -0.1402 C   0  0  0  0  0  0  0  0  0  0  0  0
   -4.0991   -0.4955   -0.3648 C   0  0  0  0  0  0  0  0  0  0  0  0
   -4.1854   -1.8394   -0.6820 C   0  0  0  0  0  0  0  0  0  0  0  0
   -3.0110   -2.5950   -0.7721 C   0  0  0  0  0  0  0  0  0  0  0  0
   -1.8001   -1.9815   -0.5431 C   0  0  0  0  0  0  0  0  0  0  0  0
   -1.6876   -0.6466   -0.2264 C   0  0  0  0  0  0  0  0  0  0  0  0
    1.3599   -1.4198   -0.1851 C   0  0  1  0  0  0  0  0  0  0  0  0
    0.6163   -1.5279   -1.5607 O   0  0  0  0  0  0  0  0  0  0  0  0
    2.7225   -0.8331   -0.9573 C   0  0  0  0  0  0  0  0  0  0  0  0
    3.5431   -0.4313    0.2431 C   0  0  0  0  0  0  0  0  0  0  0  0
    3.3128   -1.3722    1.4025 C   0  0  0  0  0  0  0  0  0  0  0  0
    5.0086   -0.4414   -0.0750 C   0  0  0  0  0  0  0  0  0  0  0  0
    3.0772    0.9806    0.5684 C   0  0  0  0  0  0  0  0  0  0  0  0
  1  2  1  0
  2  3  2  0
  3  4  1  0
  4  5  2  0
  5  6  1  0
  6  7  2  0
  7  8  1  0
  8  9  1  0
  9 10  2  0
 10 11  1  0
 11 12  2  0
 12 13  1  0
 13 14  2  0
  5 15  1  0
 15 16  1  6
 15 17  1  0
 17 18  1  0
 18 19  1  0
 18 20  1  0
 18 21  1  0
  7  2  1  0
 14  9  1  0
 21  4  1  0
 14  6  1  0
M  END
>  <zinc_id>  (1) 
ZINC000000172332

>  <smiles>  (1) 
Cc1nc2c(c3c1[nH]c1ccccc13)[C@@H](O)CC(C)(C)C2

$$$$
