
     RDKit          3D

 20 22  0  0  0  0  0  0  0  0999 V2000
    2.4907   -3.3939   -0.7005 N   0  0  0  0  0  0  0  0  0  0  0  0
    1.9806   -2.0681   -0.7633 C   0  0  0  0  0  0  0  0  0  0  0  0
    0.7535   -1.8284   -1.2840 N   0  0  0  0  0  0  0  0  0  0  0  0
    0.2449   -0.5884   -1.3569 C   0  0  0  0  0  0  0  0  0  0  0  0
   -1.3454   -0.2121   -2.0235 S   0  0  0  0  0  0  0  0  0  0  0  0
   -2.6306   -0.2522   -0.7966 C   0  0  0  0  0  0  0  0  0  0  0  0
   -2.4276   -0.5413    0.5249 C   0  0  0  0  0  0  0  0  0  0  0  0
   -3.4949   -0.5513    1.4241 C   0  0  0  0  0  0  0  0  0  0  0  0
   -4.7874   -0.2701    1.0092 C   0  0  0  0  0  0  0  0  0  0  0  0
   -5.7985   -0.2897    1.9133 F   0  0  0  0  0  0  0  0  0  0  0  0
   -4.9903    0.0214   -0.3244 C   0  0  0  0  0  0  0  0  0  0  0  0
   -3.9161    0.0265   -1.2042 C   0  0  0  0  0  0  0  0  0  0  0  0
    1.0330    0.4474   -0.8733 C   0  0  0  0  0  0  0  0  0  0  0  0
    2.2853    0.2254   -0.3391 C   0  0  0  0  0  0  0  0  0  0  0  0
    3.0994    1.2640    0.1565 N   0  0  0  0  0  0  0  0  0  0  0  0
    2.7513    2.6604    0.1750 C   0  0  0  0  0  0  0  0  0  0  0  0
    3.2198    3.0871    1.5481 C   0  0  0  0  0  0  0  0  0  0  0  0
    4.3837    2.1649    1.8438 C   0  0  0  0  0  0  0  0  0  0  0  0
    4.4121    1.1454    0.7310 C   0  0  0  0  0  0  0  0  0  0  0  0
    2.7363   -1.0470   -0.2961 N   0  0  0  0  0  0  0  0  0  0  0  0
  1  2  1  0
  2  3  2  0
  3  4  1  0
  4  5  1  0
  5  6  1  0
  6  7  2  0
  7  8  1  0
  8  9  2  0
  9 10  1  0
  9 11  1  0
 11 12  2  0
  4 13  2  0
 13 14  1  0
 14 15  1  0
 15 16  1  0
 16 17  1  0
 17 18  1  0
 18 19  1  0
 14 20  2  0
 20  2  1  0
 12  6  1  0
 19 15  1  0
M  END
>  <zinc_id>  (1) 
ZINC000001398321

>  <smiles>  (1) 
Nc1nc(Sc2ccc(F)cc2)cc(N2CCCC2)n1

$$$$
