
     RDKit          3D

 20 22  0  0  0  0  0  0  0  0999 V2000
   -1.2935    1.6421   -0.6224 O   0  0  0  0  0  0  0  0  0  0  0  0
   -1.7845    0.5874   -0.0507 C   0  0  0  0  0  0  0  0  0  0  0  0
   -0.7713   -0.4481    0.2216 N   0  0  0  0  0  0  0  0  0  0  0  0
    0.5628   -0.2114    0.0022 C   0  0  0  0  0  0  0  0  0  0  0  0
    1.2423    1.4139   -0.1790 S   0  0  0  0  0  0  0  0  0  0  0  0
    2.8946    0.9786   -0.3541 C   0  0  0  0  0  0  0  0  0  0  0  0
    2.8259   -0.4654   -0.2865 C   0  0  0  0  0  0  0  0  0  0  0  0
    1.7083   -1.0033   -0.1154 C   0  0  0  0  0  0  0  0  0  0  0  0
    1.3632   -2.4759   -0.2766 C   0  0  0  0  0  0  0  0  0  0  0  0
    1.7094   -3.2372    0.7726 O   0  0  0  0  0  0  0  0  0  0  0  0
    4.1495   -1.2146   -0.5363 C   0  0  0  0  0  0  0  0  0  0  0  0
    5.3569   -0.3473   -0.6499 C   0  0  0  0  0  0  0  0  0  0  0  0
    5.0988    0.9777   -1.3570 C   0  0  0  0  0  0  0  0  0  0  0  0
    4.1705    1.7582   -0.4940 C   0  0  0  0  0  0  0  0  0  0  0  0
   -3.1850    0.3986    0.2669 C   0  0  0  0  0  0  0  0  0  0  0  0
   -3.6235   -0.4573    1.2001 C   0  0  0  0  0  0  0  0  0  0  0  0
   -4.9864   -0.5879    1.6568 C   0  0  0  0  0  0  0  0  0  0  0  0
   -5.8837    0.2816    1.0319 C   0  0  0  0  0  0  0  0  0  0  0  0
   -5.4641    1.1758    0.0692 C   0  0  0  0  0  0  0  0  0  0  0  0
   -4.0903    1.2346   -0.3242 C   0  0  0  0  0  0  0  0  0  0  0  0
  1  2  2  0
  2  3  1  0
  3  4  1  0
  4  5  1  0
  5  6  1  0
  6  7  2  0
  7  8  1  0
  8  9  1  0
  9 10  1  0
  7 11  1  0
 11 12  1  0
 12 13  1  0
 13 14  1  0
  2 15  1  0
 15 16  2  0
 16 17  1  0
 17 18  2  0
 18 19  1  0
 19 20  2  0
  8  4  2  0
 20 15  1  0
 14  6  1  0
M  END
>  <zinc_id>  (1) 
ZINC000000284271

>  <smiles>  (1) 
O=C(Nc1sc2c(c1CO)CCCC2)c1ccccc1

$$$$
