
     RDKit          3D

 20 22  0  0  0  0  0  0  0  0999 V2000
    4.9004    1.1087   -1.3010 C   0  0  0  0  0  0  0  0  0  0  0  0
    4.8537   -0.1214   -0.4019 C   0  0  0  0  0  0  0  0  0  0  0  0
    3.4622   -0.2794    0.1824 C   0  0  0  0  0  0  0  0  0  0  0  0
    3.0169    0.2436    1.3333 N   0  0  0  0  0  0  0  0  0  0  0  0
    1.7114   -0.1309    1.4998 C   0  0  0  0  0  0  0  0  0  0  0  0
    1.4316   -0.8823    0.4088 C   0  0  0  0  0  0  0  0  0  0  0  0
   -0.0298   -1.5106    0.2568 C   0  0  2  0  0  0  0  0  0  0  0  0
   -0.1241   -1.2327   -1.2801 O   0  0  0  0  0  0  0  0  0  0  0  0
   -0.9013   -0.2006    0.6334 C   0  0  0  0  0  0  0  0  0  0  0  0
   -0.5052    0.6185    1.6073 C   0  0  0  0  0  0  0  0  0  0  0  0
   -1.2596    1.7152    1.9121 C   0  0  0  0  0  0  0  0  0  0  0  0
   -2.4226    1.9689    1.2137 C   0  0  0  0  0  0  0  0  0  0  0  0
   -2.8178    1.1109    0.2084 C   0  0  0  0  0  0  0  0  0  0  0  0
   -3.9707    1.3355   -0.5031 C   0  0  0  0  0  0  0  0  0  0  0  0
   -4.3192    0.4530   -1.4889 C   0  0  0  0  0  0  0  0  0  0  0  0
   -3.5516   -0.6649   -1.8014 C   0  0  0  0  0  0  0  0  0  0  0  0
   -2.3938   -0.8796   -1.0779 C   0  0  0  0  0  0  0  0  0  0  0  0
   -2.0462   -0.0007   -0.0952 C   0  0  0  0  0  0  0  0  0  0  0  0
    2.4486   -0.9655   -0.3520 N   0  0  0  0  0  0  0  0  0  0  0  0
    2.5171   -1.6858   -1.6054 C   0  0  0  0  0  0  0  0  0  0  0  0
  1  2  1  0
  2  3  1  0
  3  4  2  0
  4  5  1  0
  5  6  2  0
  6  7  1  0
  7  8  1  6
  7  9  1  0
  9 10  2  0
 10 11  1  0
 11 12  2  0
 12 13  1  0
 13 14  2  0
 14 15  1  0
 15 16  2  0
 16 17  1  0
 17 18  2  0
  6 19  1  0
 19 20  1  0
 19  3  1  0
 18  9  1  0
 18 13  1  0
M  END
>  <zinc_id>  (1) 
ZINC000000098047

>  <smiles>  (1) 
CCc1ncc([C@H](O)c2cccc3ccccc23)n1C

$$$$
