
     RDKit          3D

 19 21  0  0  0  0  0  0  0  0999 V2000
   -5.5913    0.3045   -0.2821 C   0  0  0  0  0  0  0  0  0  0  0  0
   -4.1466   -0.0227   -0.4182 C   0  0  0  0  0  0  0  0  0  0  0  0
   -3.7665   -1.0563   -1.2509 C   0  0  0  0  0  0  0  0  0  0  0  0
   -2.4218   -1.3733   -1.3881 C   0  0  0  0  0  0  0  0  0  0  0  0
   -2.0518   -2.4882   -2.2902 C   0  0  0  0  0  0  0  0  0  0  0  0
   -1.4517   -0.6658   -0.6996 C   0  0  0  0  0  0  0  0  0  0  0  0
   -0.1477   -0.7528   -0.6473 O   0  0  0  0  0  0  0  0  0  0  0  0
    0.3676    0.1448    0.1572 C   0  0  0  0  0  0  0  0  0  0  0  0
    1.8021    0.3400    0.4594 C   0  0  0  0  0  0  0  0  0  0  0  0
    2.7252   -0.4858   -0.1462 C   0  0  0  0  0  0  0  0  0  0  0  0
    4.0613   -0.3501    0.0965 C   0  0  0  0  0  0  0  0  0  0  0  0
    4.9650   -1.2333   -0.5592 N   0  0  0  0  0  0  0  0  0  0  0  0
    4.4972    0.6241    0.9578 C   0  0  0  0  0  0  0  0  0  0  0  0
    3.5531    1.4545    1.5652 C   0  0  0  0  0  0  0  0  0  0  0  0
    2.2049    1.3124    1.3159 C   0  0  0  0  0  0  0  0  0  0  0  0
    1.0410    2.3696    2.0929 Cl  0  0  0  0  0  0  0  0  0  0  0  0
   -0.6676    0.8479    0.6489 N   0  0  0  0  0  0  0  0  0  0  0  0
   -1.8148    0.3663    0.1334 C   0  0  0  0  0  0  0  0  0  0  0  0
   -3.1576    0.6642    0.2547 C   0  0  0  0  0  0  0  0  0  0  0  0
  1  2  1  0
  2  3  2  0
  3  4  1  0
  4  5  1  0
  4  6  2  0
  6  7  1  0
  7  8  1  0
  8  9  1  0
  9 10  2  0
 10 11  1  0
 11 12  1  0
 11 13  2  0
 13 14  1  0
 14 15  2  0
 15 16  1  0
  8 17  2  0
 17 18  1  0
 18 19  2  0
 19  2  1  0
 18  6  1  0
 15  9  1  0
M  END
>  <zinc_id>  (1) 
ZINC000000122971

>  <smiles>  (1) 
Cc1cc(C)c2oc(-c3cc(N)ccc3Cl)nc2c1

$$$$
