
     RDKit          3D

 20 22  0  0  0  0  0  0  0  0999 V2000
   -5.6867    1.3164    0.2367 O   0  0  0  0  0  0  0  0  0  0  0  0
   -4.3867    0.8539    0.0496 C   0  0  0  0  0  0  0  0  0  0  0  0
   -3.3779    1.6067    0.6210 C   0  0  0  0  0  0  0  0  0  0  0  0
   -2.0593    1.2278    0.4893 C   0  0  0  0  0  0  0  0  0  0  0  0
   -1.7631    0.1037   -0.2100 C   0  0  0  0  0  0  0  0  0  0  0  0
   -2.7564   -0.6377   -0.7728 C   0  0  0  0  0  0  0  0  0  0  0  0
   -2.4467   -1.8302   -1.5150 C   0  0  0  0  0  0  0  0  0  0  0  0
   -1.2458   -2.2120   -1.6587 N   0  0  0  0  0  0  0  0  0  0  0  0
   -0.1189   -1.5229   -1.1182 C   0  0  0  0  0  0  0  0  0  0  0  0
    0.3854   -1.7903    0.1372 C   0  0  0  0  0  0  0  0  0  0  0  0
    1.4763   -1.1189    0.6493 C   0  0  0  0  0  0  0  0  0  0  0  0
    2.1209   -0.1307   -0.0910 C   0  0  0  0  0  0  0  0  0  0  0  0
    3.2421    0.5728    0.4115 N   0  0  0  0  0  0  0  0  0  0  0  0
    3.9079    0.4369    1.6860 C   0  0  0  0  0  0  0  0  0  0  0  0
    5.3715    0.6549    1.3651 C   0  0  0  0  0  0  0  0  0  0  0  0
    5.3638    1.5763    0.1890 C   0  0  0  0  0  0  0  0  0  0  0  0
    3.9456    1.6048   -0.3141 C   0  0  0  0  0  0  0  0  0  0  0  0
    1.6117    0.1310   -1.3440 C   0  0  0  0  0  0  0  0  0  0  0  0
    0.5197   -0.5441   -1.8512 C   0  0  0  0  0  0  0  0  0  0  0  0
   -4.1036   -0.2986   -0.6692 C   0  0  0  0  0  0  0  0  0  0  0  0
  1  2  1  0
  2  3  2  0
  3  4  1  0
  4  5  2  0
  5  6  1  0
  6  7  1  0
  7  8  2  0
  8  9  1  0
  9 10  2  0
 10 11  1  0
 11 12  2  0
 12 13  1  0
 13 14  1  0
 14 15  1  0
 15 16  1  0
 16 17  1  0
 12 18  1  0
 18 19  2  0
  6 20  2  0
 20  2  1  0
 19  9  1  0
 17 13  1  0
M  END
>  <zinc_id>  (1) 
ZINC000000575575

>  <smiles>  (1) 
Oc1cccc(/C=N\c2ccc(N3CCCC3)cc2)c1

$$$$
