
     RDKit          3D

 21 22  0  0  0  0  0  0  0  0999 V2000
    5.8100    1.2058    0.5858 C   0  0  0  0  0  0  0  0  0  0  0  0
    4.3938    0.8440    0.2314 C   0  0  0  0  0  0  0  0  0  0  0  0
    3.5460    1.7131   -0.4059 C   0  0  0  0  0  0  0  0  0  0  0  0
    2.2585    1.3275   -0.7066 C   0  0  0  0  0  0  0  0  0  0  0  0
    1.3069    2.2426   -1.3999 C   0  0  0  0  0  0  0  0  0  0  0  0
    1.8229    0.0774   -0.3701 C   0  0  0  0  0  0  0  0  0  0  0  0
    0.5128   -0.4103   -0.6356 N   0  0  0  0  0  0  0  0  0  0  0  0
   -0.5638   -0.2760    0.2996 C   0  0  0  0  0  0  0  0  0  0  0  0
   -0.3725    0.2883    1.4035 O   0  0  0  0  0  0  0  0  0  0  0  0
   -1.8608   -0.8144   -0.0843 C   0  0  0  0  0  0  0  0  0  0  0  0
   -1.9524   -2.1116   -0.6220 C   0  0  0  0  0  0  0  0  0  0  0  0
   -3.1214   -2.6881   -0.9945 C   0  0  0  0  0  0  0  0  0  0  0  0
   -4.2962   -1.9930   -0.8509 C   0  0  0  0  0  0  0  0  0  0  0  0
   -4.2381   -0.7242   -0.3290 C   0  0  0  0  0  0  0  0  0  0  0  0
   -3.0336   -0.1200    0.0584 C   0  0  0  0  0  0  0  0  0  0  0  0
   -3.0168    1.1914    0.5894 N   0  0  0  0  0  4  0  0  0  0  0  0
   -4.0687    1.5640    1.1943 O   0  0  0  0  0  0  0  0  0  0  0  0
   -2.0114    2.0869    0.5252 O   0  0  0  0  0  1  0  0  0  0  0  0
    2.6907   -0.8020    0.2783 C   0  0  0  0  0  0  0  0  0  0  0  0
    2.2091   -2.1720    0.6464 C   0  0  0  0  0  0  0  0  0  0  0  0
    3.9851   -0.4293    0.5864 C   0  0  0  0  0  0  0  0  0  0  0  0
  1  2  1  0
  2  3  2  0
  3  4  1  0
  4  5  1  0
  4  6  2  0
  6  7  1  0
  7  8  1  0
  8  9  2  0
  8 10  1  0
 10 11  2  0
 11 12  1  0
 12 13  2  0
 13 14  1  0
 14 15  2  0
 15 16  1  0
 16 17  2  0
 16 18  1  0
  6 19  1  0
 19 20  1  0
 19 21  2  0
 21  2  1  0
 15 10  1  0
M  CHG  2  16   1  18  -1
M  END
>  <zinc_id>  (1) 
ZINC000000435701

>  <smiles>  (1) 
Cc1cc(C)c(NC(=O)c2ccccc2[N+](=O)[O-])c(C)c1

$$$$
