
     RDKit          3D

 21 24  0  0  0  0  0  0  0  0999 V2000
   -3.2449    0.8945   -1.1122 C   0  0  0  0  0  0  0  0  0  0  0  0
   -3.7334    0.6465    0.3144 C   0  0  0  0  0  0  0  0  0  0  0  0
   -5.0923    1.2630    0.4337 C   0  0  0  0  0  0  0  0  0  0  0  0
   -3.7858   -0.8486    0.6054 C   0  0  0  0  0  0  0  0  0  0  0  0
   -2.3967   -1.3719    0.5144 C   0  0  0  0  0  0  0  0  0  0  0  0
   -2.2026   -2.6148    0.4795 O   0  0  0  0  0  0  0  0  0  0  0  0
   -1.2462   -0.4659    0.4643 C   0  0  0  0  0  0  0  0  0  0  0  0
   -1.3755    0.8582    0.8096 C   0  0  0  0  0  0  0  0  0  0  0  0
   -0.3433    1.7113    0.7743 N   0  0  0  0  0  0  0  0  0  0  0  0
    0.8793    1.2533    0.3826 C   0  0  0  0  0  0  0  0  0  0  0  0
    2.0850    1.8352    0.2425 N   0  0  0  0  0  0  0  0  0  0  0  0
    2.9900    0.9407   -0.1798 C   0  0  0  0  0  0  0  0  0  0  0  0
    4.3379    0.9569   -0.4875 C   0  0  0  0  0  0  0  0  0  0  0  0
    5.0174   -0.1716   -0.9133 C   0  0  0  0  0  0  0  0  0  0  0  0
    4.3278   -1.3568   -1.0363 C   0  0  0  0  0  0  0  0  0  0  0  0
    2.9670   -1.4098   -0.7344 C   0  0  0  0  0  0  0  0  0  0  0  0
    2.3247   -0.2631   -0.3128 C   0  0  0  0  0  0  0  0  0  0  0  0
    1.0567   -0.0340    0.0349 N   0  0  0  0  0  4  0  0  0  0  0  0
    0.0071   -0.8986    0.0715 C   0  0  0  0  0  0  0  0  0  0  0  0
    0.1417   -2.2572   -0.2833 N   0  0  0  0  0  0  0  0  0  0  0  0
   -2.7137    1.3327    1.2320 C   0  0  0  0  0  0  0  0  0  0  0  0
  1  2  1  0
  2  3  1  0
  2  4  1  0
  4  5  1  0
  5  6  2  0
  5  7  1  0
  7  8  2  0
  8  9  1  0
  9 10  2  0
 10 11  1  0
 11 12  1  0
 12 13  2  0
 13 14  1  0
 14 15  2  0
 15 16  1  0
 16 17  2  0
 17 18  1  0
 18 19  2  0
 19 20  1  0
  8 21  1  0
 21  2  1  0
 19  7  1  0
 18 10  1  0
 17 12  1  0
M  CHG  1  18   1
M  END
>  <zinc_id>  (1) 
ZINC000002481049

>  <smiles>  (1) 
CC1(C)CC(=O)c2c(nc3[nH]c4ccccc4[n+]3c2N)C1

$$$$
