
     RDKit          3D

 22 23  0  0  0  0  0  0  0  0999 V2000
    2.5201    1.1876   -0.5336 C   0  0  0  0  0  0  0  0  0  0  0  0
    2.4479   -0.0019    0.3487 C   0  0  0  0  0  0  0  0  0  0  0  0
    1.2150   -0.2838    0.9382 C   0  0  0  0  0  0  0  0  0  0  0  0
    0.0723    0.5808    0.6127 C   0  0  0  0  0  0  0  0  0  0  0  0
    0.1587    1.8078    0.8141 O   0  0  0  0  0  0  0  0  0  0  0  0
   -1.0841   -0.0239    0.0690 N   0  0  0  0  0  0  0  0  0  0  0  0
   -2.1890    0.8205   -0.2960 C   0  0  0  0  0  0  0  0  0  0  0  0
   -2.2119    2.1843   -0.1087 C   0  0  0  0  0  0  0  0  0  0  0  0
   -3.3339    2.8934   -0.5864 C   0  0  0  0  0  0  0  0  0  0  0  0
   -4.3614    2.2356   -1.2164 C   0  0  0  0  0  0  0  0  0  0  0  0
   -4.3695    0.8461   -1.4237 C   0  0  0  0  0  0  0  0  0  0  0  0
   -3.2287    0.2049   -0.9231 C   0  0  0  0  0  0  0  0  0  0  0  0
   -3.2297   -1.2950   -0.9786 C   0  0  0  0  0  0  0  0  0  0  0  0
   -3.9210   -1.8002   -2.2557 C   0  0  0  0  0  0  0  0  0  0  0  0
   -4.1970   -1.7761    0.1601 C   0  0  0  0  0  0  0  0  0  0  0  0
    1.1061   -1.3784    1.7537 C   0  0  0  0  0  0  0  0  0  0  0  0
    2.2196   -2.1692    1.9519 C   0  0  0  0  0  0  0  0  0  0  0  0
    3.4376   -1.9075    1.3679 C   0  0  0  0  0  0  0  0  0  0  0  0
    3.5511   -0.8180    0.5671 C   0  0  0  0  0  0  0  0  0  0  0  0
    4.7952   -0.5382   -0.0727 N   0  0  0  0  0  4  0  0  0  0  0  0
    5.8179   -0.9305    0.4466 O   0  0  0  0  0  0  0  0  0  0  0  0
    4.7845    0.1617   -1.2393 O   0  0  0  0  0  1  0  0  0  0  0  0
  1  2  1  0
  2  3  2  0
  3  4  1  0
  4  5  2  0
  4  6  1  0
  6  7  1  0
  7  8  2  0
  8  9  1  0
  9 10  2  0
 10 11  1  0
 11 12  2  0
 12 13  1  0
 13 14  1  0
 13 15  1  0
  3 16  1  0
 16 17  2  0
 17 18  1  0
 18 19  2  0
 19 20  1  0
 20 21  2  0
 20 22  1  0
 19  2  1  0
 12  7  1  0
M  CHG  2  20   1  22  -1
M  END
>  <zinc_id>  (1) 
ZINC000000311482

>  <smiles>  (1) 
Cc1c(C(=O)Nc2ccccc2C(C)C)cccc1[N+](=O)[O-]

$$$$
