
     RDKit          3D

 21 23  0  0  0  0  0  0  0  0999 V2000
   -1.0274    2.1666    1.7951 C   0  0  0  0  0  0  0  0  0  0  0  0
   -0.5577    2.5626    0.3834 C   0  0  0  0  0  0  0  0  0  0  0  0
   -0.1797    4.0170    0.4102 C   0  0  0  0  0  0  0  0  0  0  0  0
    0.6179    1.7969    0.0853 N   0  0  0  0  0  0  0  0  0  0  0  0
    0.6575    0.4040   -0.1076 C   0  0  0  0  0  0  0  0  0  0  0  0
   -0.4311   -0.4339   -0.1240 C   0  0  0  0  0  0  0  0  0  0  0  0
   -1.8468   -0.1206   -0.0052 C   0  0  0  0  0  0  0  0  0  0  0  0
   -2.4158    0.7619   -0.8918 C   0  0  0  0  0  0  0  0  0  0  0  0
   -3.7606    1.0898   -0.8485 C   0  0  0  0  0  0  0  0  0  0  0  0
   -4.5377    0.5069    0.1152 C   0  0  0  0  0  0  0  0  0  0  0  0
   -4.0125   -0.3910    1.0347 C   0  0  0  0  0  0  0  0  0  0  0  0
   -2.6420   -0.6894    0.9473 C   0  0  0  0  0  0  0  0  0  0  0  0
   -2.0890   -1.5939    1.8652 O   0  0  0  0  0  0  0  0  0  0  0  0
    0.0685   -1.7053   -0.3008 N   0  0  0  0  0  0  0  0  0  0  0  0
    1.3825   -1.6477   -0.3880 C   0  0  0  0  0  0  0  0  0  0  0  0
    2.3703   -2.6171   -0.5665 C   0  0  0  0  0  0  0  0  0  0  0  0
    3.7194   -2.2813   -0.6255 C   0  0  0  0  0  0  0  0  0  0  0  0
    4.0783   -0.9537   -0.5028 C   0  0  0  0  0  0  0  0  0  0  0  0
    5.7737   -0.4604   -0.5692 Cl  0  0  0  0  0  0  0  0  0  0  0  0
    3.0646   -0.0342   -0.3281 C   0  0  0  0  0  0  0  0  0  0  0  0
    1.7678   -0.3772   -0.2743 N   0  0  0  0  0  0  0  0  0  0  0  0
  1  2  1  0
  2  3  1  0
  2  4  1  0
  4  5  1  0
  5  6  2  0
  6  7  1  0
  7  8  2  0
  8  9  1  0
  9 10  2  0
 10 11  1  0
 11 12  2  0
 12 13  1  0
  6 14  1  0
 14 15  2  0
 15 16  1  0
 16 17  2  0
 17 18  1  0
 18 19  1  0
 18 20  2  0
 20 21  1  0
 21  5  1  0
 12  7  1  0
 21 15  1  0
M  END
>  <zinc_id>  (1) 
ZINC000000411147

>  <smiles>  (1) 
CC(C)Nc1c(-c2ccccc2O)nc2ccc(Cl)cn12

$$$$
