
     RDKit          3D

 20 21  0  0  0  0  0  0  0  0999 V2000
    6.6705    0.4424   -1.0669 C   0  0  0  0  0  0  0  0  0  0  0  0
    6.0274   -0.3487   -0.0485 N   0  0  0  0  0  0  0  0  0  0  0  0
    6.8248   -1.1331    0.8548 C   0  0  0  0  0  0  0  0  0  0  0  0
    4.6078   -0.3421    0.0489 C   0  0  0  0  0  0  0  0  0  0  0  0
    3.8233    0.4087   -0.8142 C   0  0  0  0  0  0  0  0  0  0  0  0
    2.4542    0.4406   -0.7516 C   0  0  0  0  0  0  0  0  0  0  0  0
    1.7941   -0.2993    0.2054 C   0  0  0  0  0  0  0  0  0  0  0  0
    0.3669   -0.2889    0.2987 N   0  0  0  0  0  0  0  0  0  0  0  0
   -0.3591    0.5273   -0.6490 C   0  0  0  0  0  0  0  0  0  0  0  0
   -1.8275    0.4369   -0.4291 C   0  0  0  0  0  0  0  0  0  0  0  0
   -2.6102   -0.5104   -1.0555 C   0  0  0  0  0  0  0  0  0  0  0  0
   -3.9708   -0.5850   -0.8441 C   0  0  0  0  0  0  0  0  0  0  0  0
   -4.6183    0.2915    0.0108 C   0  0  0  0  0  0  0  0  0  0  0  0
   -6.0189    0.2166    0.2300 N   0  0  0  0  0  4  0  0  0  0  0  0
   -6.5424    1.0305    1.0083 O   0  0  0  0  0  0  0  0  0  0  0  0
   -6.8258   -0.7058   -0.3710 O   0  0  0  0  0  1  0  0  0  0  0  0
   -3.8270    1.2349    0.6323 C   0  0  0  0  0  0  0  0  0  0  0  0
   -2.4655    1.3138    0.4244 C   0  0  0  0  0  0  0  0  0  0  0  0
    2.5625   -1.0567    1.0779 C   0  0  0  0  0  0  0  0  0  0  0  0
    3.9343   -1.0731    0.9961 C   0  0  0  0  0  0  0  0  0  0  0  0
  1  2  1  0
  2  3  1  0
  2  4  1  0
  4  5  2  0
  5  6  1  0
  6  7  2  0
  7  8  1  0
  8  9  1  0
  9 10  1  0
 10 11  2  0
 11 12  1  0
 12 13  2  0
 13 14  1  0
 14 15  2  0
 14 16  1  0
 13 17  1  0
 17 18  2  0
  7 19  1  0
 19 20  2  0
 20  4  1  0
 18 10  1  0
M  CHG  2  14   1  16  -1
M  END
>  <zinc_id>  (1) 
ZINC000000575206

>  <smiles>  (1) 
CN(C)c1ccc(NCc2ccc([N+](=O)[O-])cc2)cc1

$$$$
