
     RDKit          3D

 20 21  0  0  0  0  0  0  0  0999 V2000
   -3.7988    3.7083    0.3536 C   0  0  0  0  0  0  0  0  0  0  0  0
   -3.9634    2.3110    0.2543 O   0  0  0  0  0  0  0  0  0  0  0  0
   -2.7986    1.5447    0.1703 C   0  0  0  0  0  0  0  0  0  0  0  0
   -1.5366    2.0972    0.1814 C   0  0  0  0  0  0  0  0  0  0  0  0
   -0.4266    1.2840    0.0952 C   0  0  0  0  0  0  0  0  0  0  0  0
   -0.5473   -0.0777   -0.0025 C   0  0  0  0  0  0  0  0  0  0  0  0
    0.5565   -0.9243   -0.0911 O   0  0  0  0  0  0  0  0  0  0  0  0
    1.8543   -0.4597   -0.0873 C   0  0  0  0  0  0  0  0  0  0  0  0
    2.8730   -1.3764   -0.1789 C   0  0  0  0  0  0  0  0  0  0  0  0
    4.2169   -0.9940   -0.1823 C   0  0  0  0  0  0  0  0  0  0  0  0
    4.5458    0.3410   -0.0915 C   0  0  0  0  0  0  0  0  0  0  0  0
    5.9133    0.7360   -0.0945 N   0  0  0  0  0  0  0  0  0  0  0  0
    3.5138    1.2565    0.0002 C   0  0  0  0  0  0  0  0  0  0  0  0
    2.1834    0.8754    0.0034 C   0  0  0  0  0  0  0  0  0  0  0  0
   -1.8201   -0.6124   -0.0121 C   0  0  0  0  0  0  0  0  0  0  0  0
   -1.9364   -2.0825   -0.1180 C   0  0  0  0  0  0  0  0  0  0  0  0
   -3.3973   -2.4466   -0.1105 C   0  0  0  0  0  0  0  0  0  0  0  0
   -1.2811   -2.5913   -1.4075 C   0  0  0  0  0  0  0  0  0  0  0  0
   -1.1996   -2.7749    1.0262 C   0  0  0  0  0  0  0  0  0  0  0  0
   -2.9509    0.1856    0.0735 C   0  0  0  0  0  0  0  0  0  0  0  0
  1  2  1  0
  2  3  1  0
  3  4  2  0
  4  5  1  0
  5  6  2  0
  6  7  1  0
  7  8  1  0
  8  9  2  0
  9 10  1  0
 10 11  2  0
 11 12  1  0
 11 13  1  0
 13 14  2  0
  6 15  1  0
 15 16  1  0
 16 17  1  0
 16 18  1  0
 16 19  1  0
 15 20  2  0
 20  3  1  0
 14  8  1  0
M  END
>  <zinc_id>  (1) 
ZINC000004227359

>  <smiles>  (1) 
COc1ccc(Oc2ccc(N)cc2)c(C(C)(C)C)c1

$$$$
