
     RDKit          3D

 19 20  0  0  0  0  0  0  0  0999 V2000
   -0.9671   -2.5553   -2.0778 C   0  0  0  0  0  0  0  0  0  0  0  0
   -1.7765   -1.6345   -1.1886 C   0  0  0  0  0  0  0  0  0  0  0  0
   -3.4589   -1.5762   -0.9658 S   0  0  0  0  0  0  0  0  0  0  0  0
   -3.5353   -0.3016    0.1587 C   0  0  0  0  0  0  0  0  0  0  0  0
   -4.7047    0.2847    0.7921 N   0  0  0  0  0  0  0  0  0  0  0  0
   -2.2200    0.0565    0.3380 C   0  0  0  0  0  0  0  0  0  0  0  0
   -1.8857    1.1703    1.2798 C   0  0  0  0  0  0  0  0  0  0  0  0
   -0.5371    1.5481    1.4722 N   0  0  0  0  0  0  0  0  0  0  0  0
   -2.7618    1.7915    1.9143 O   0  0  0  0  0  0  0  0  0  0  0  0
   -1.3053   -0.6467   -0.3714 C   0  0  0  0  0  0  0  0  0  0  0  0
    0.1674   -0.3792   -0.2876 C   0  0  0  0  0  0  0  0  0  0  0  0
    0.7769    0.3920   -1.2545 C   0  0  0  0  0  0  0  0  0  0  0  0
    2.1401    0.6268   -1.1588 C   0  0  0  0  0  0  0  0  0  0  0  0
    2.9079    0.1191   -0.1350 C   0  0  0  0  0  0  0  0  0  0  0  0
    4.3663    0.4123   -0.0971 C   0  0  0  0  0  0  0  0  0  0  0  0
    4.7687    0.9690    1.2541 C   0  0  0  0  0  0  0  0  0  0  0  0
    4.8185    1.2621   -1.2314 C   0  0  0  0  0  0  0  0  0  0  0  0
    2.2913   -0.6456    0.8197 C   0  0  0  0  0  0  0  0  0  0  0  0
    0.9152   -0.8932    0.7391 C   0  0  0  0  0  0  0  0  0  0  0  0
  1  2  1  0
  2  3  1  0
  3  4  1  0
  4  5  1  0
  4  6  2  0
  6  7  1  0
  7  8  1  0
  7  9  2  0
  6 10  1  0
 10 11  1  0
 11 12  2  0
 12 13  1  0
 13 14  2  0
 14 15  1  0
 15 16  1  0
 15 17  1  0
 14 18  1  0
 18 19  2  0
 10  2  2  0
 19 11  1  0
M  END
>  <zinc_id>  (1) 
ZINC000002597436

>  <smiles>  (1) 
Cc1sc(N)c(C(N)=O)c1-c1ccc(C(C)C)cc1

$$$$
