
     RDKit          3D

 18 19  0  0  0  0  0  0  0  0999 V2000
   -5.8226    0.0134    0.1192 C   0  0  0  0  0  0  0  0  0  0  0  0
   -4.7737    0.9018   -0.1385 O   0  0  0  0  0  0  0  0  0  0  0  0
   -3.4437    0.5866   -0.1087 C   0  0  0  0  0  0  0  0  0  0  0  0
   -2.5198    1.5796   -0.3877 C   0  0  0  0  0  0  0  0  0  0  0  0
   -1.1659    1.2856   -0.3640 C   0  0  0  0  0  0  0  0  0  0  0  0
   -0.7828   -0.0045   -0.0589 C   0  0  0  0  0  0  0  0  0  0  0  0
   -1.6845   -1.0072    0.2217 C   0  0  0  0  0  0  0  0  0  0  0  0
   -3.0426   -0.6994    0.1947 C   0  0  0  0  0  0  0  0  0  0  0  0
   -1.1663   -2.3418    0.5338 C   0  0  0  0  0  0  0  0  0  0  0  0
    0.0078   -2.7467   -0.3147 C   0  0  0  0  0  0  0  0  0  0  0  0
    1.0945   -1.7026   -0.3465 C   0  0  0  0  0  0  0  0  0  0  0  0
    0.6315   -0.3562   -0.0232 C   0  0  0  0  0  0  0  0  0  0  0  0
    1.5176    0.5272    0.2979 N   0  0  0  0  0  0  0  0  0  0  0  0
    2.8895    0.1957    0.3352 N   0  0  0  0  0  0  0  0  0  0  0  0
    3.6959    1.1520   -0.0236 C   0  0  0  0  0  0  0  0  0  0  0  0
    3.1983    2.4325   -0.4209 N   0  0  0  0  0  0  0  0  0  0  0  0
    5.4695    0.9380   -0.0464 S   0  0  0  0  0  0  0  0  0  0  0  0
    5.8974   -0.7539    0.4906 C   0  0  0  0  0  0  0  0  0  0  0  0
  1  2  1  0
  2  3  1  0
  3  4  2  0
  4  5  1  0
  5  6  2  0
  6  7  1  0
  7  8  2  0
  7  9  1  0
  9 10  1  0
 10 11  1  0
 11 12  1  0
 12 13  2  0
 13 14  1  0
 14 15  2  0
 15 16  1  0
 15 17  1  0
 17 18  1  0
  8  3  1  0
 12  6  1  0
M  END
>  <zinc_id>  (1) 
ZINC000004323933

>  <smiles>  (1) 
COc1ccc2c(c1)CCC/C2=N\N=C(/N)SC

$$$$
