
     RDKit          3D

 20 21  0  0  0  0  0  0  0  0999 V2000
   -5.7972    0.2644   -0.1708 C   0  0  0  0  0  0  0  0  0  0  0  0
   -4.3058    0.3614   -0.1242 C   0  0  0  0  0  0  0  0  0  0  0  0
   -3.6057    0.1862    1.0517 C   0  0  0  0  0  0  0  0  0  0  0  0
   -2.2320    0.2707    1.1198 C   0  0  0  0  0  0  0  0  0  0  0  0
   -1.5516    0.0707    2.4175 C   0  0  0  0  0  0  0  0  0  0  0  0
   -1.4933    0.5398   -0.0121 C   0  0  0  0  0  0  0  0  0  0  0  0
   -0.0433    0.6383    0.0111 C   0  0  0  0  0  0  0  0  0  0  0  0
    0.6146    0.8823   -1.0191 O   0  0  0  0  0  0  0  0  0  0  0  0
    0.6450    0.4404    1.3008 C   0  0  0  0  0  0  0  0  0  0  0  0
    2.0287    0.5385    1.2579 O   0  0  0  0  0  0  0  0  0  0  0  0
    2.7818   -0.3140    0.4677 C   0  0  0  0  0  0  0  0  0  0  0  0
    2.1669   -1.2685   -0.2821 C   0  0  0  0  0  0  0  0  0  0  0  0
    2.8518   -2.1596   -1.0986 C   0  0  0  0  0  0  0  0  0  0  0  0
    4.2322   -2.0448   -1.1292 C   0  0  0  0  0  0  0  0  0  0  0  0
    4.8627   -1.0832   -0.3748 C   0  0  0  0  0  0  0  0  0  0  0  0
    4.1510   -0.2227    0.4182 C   0  0  0  0  0  0  0  0  0  0  0  0
    4.8231    0.7327    1.1636 O   0  0  0  0  0  0  0  0  0  0  0  0
   -2.2158    0.7147   -1.1942 C   0  0  0  0  0  0  0  0  0  0  0  0
   -3.5832    0.6314   -1.2667 C   0  0  0  0  0  0  0  0  0  0  0  0
   -4.3299    0.8213   -2.5366 C   0  0  0  0  0  0  0  0  0  0  0  0
  1  2  1  0
  2  3  2  0
  3  4  1  0
  4  5  1  0
  4  6  2  0
  6  7  1  0
  7  8  2  0
  7  9  1  0
  9 10  1  0
 10 11  1  0
 11 12  2  0
 12 13  1  0
 13 14  2  0
 14 15  1  0
 15 16  2  0
 16 17  1  0
  6 18  1  0
 18 19  2  0
 19 20  1  0
 19  2  1  0
 16 11  1  0
M  END
>  <zinc_id>  (1) 
ZINC000000043980

>  <smiles>  (1) 
Cc1cc(C)c(C(=O)COc2ccccc2O)cc1C

$$$$
