
     RDKit          3D

 19 19  0  0  0  0  0  0  0  0999 V2000
   -5.2576   -0.5951    1.2073 C   0  0  0  0  0  0  0  0  0  0  0  0
   -4.7719   -0.4069   -0.2143 C   0  0  0  0  0  0  0  0  0  0  0  0
   -5.2403    0.9608   -0.7230 C   0  0  0  0  0  0  0  0  0  0  0  0
   -5.3602   -1.4351   -1.1267 C   0  0  0  0  0  0  0  0  0  0  0  0
   -3.3272   -0.3789   -0.2579 N   0  0  0  0  0  0  0  0  0  0  0  0
   -2.5894    0.6032    0.4542 C   0  0  0  0  0  0  0  0  0  0  0  0
   -3.3732    1.7255    1.3410 S   0  0  0  0  0  0  0  0  0  0  0  0
   -1.1713    0.6530    0.4283 N   0  0  0  0  0  0  0  0  0  0  0  0
   -0.3528   -0.2394   -0.2856 C   0  0  0  0  0  0  0  0  0  0  0  0
   -0.8978   -1.1518   -0.9536 O   0  0  0  0  0  0  0  0  0  0  0  0
    1.1221   -0.1245   -0.2646 C   0  0  0  0  0  0  0  0  0  0  0  0
    1.8721   -1.0292   -0.9850 C   0  0  0  0  0  0  0  0  0  0  0  0
    3.2468   -0.9429   -0.9811 C   0  0  0  0  0  0  0  0  0  0  0  0
    3.9043    0.0350   -0.2684 C   0  0  0  0  0  0  0  0  0  0  0  0
    5.3272    0.1388   -0.2535 N   0  0  0  0  0  4  0  0  0  0  0  0
    6.0001   -0.6843   -0.9084 O   0  0  0  0  0  0  0  0  0  0  0  0
    5.9969    1.0928    0.4407 O   0  0  0  0  0  1  0  0  0  0  0  0
    3.1245    0.9152    0.4347 C   0  0  0  0  0  0  0  0  0  0  0  0
    1.7477    0.8638    0.4575 C   0  0  0  0  0  0  0  0  0  0  0  0
  1  2  1  0
  2  3  1  0
  2  4  1  0
  2  5  1  0
  5  6  1  0
  6  7  2  0
  6  8  1  0
  8  9  1  0
  9 10  2  0
  9 11  1  0
 11 12  2  0
 12 13  1  0
 13 14  2  0
 14 15  1  0
 15 16  2  0
 15 17  1  0
 14 18  1  0
 18 19  2  0
 19 11  1  0
M  CHG  2  15   1  17  -1
M  END
>  <zinc_id>  (1) 
ZINC000000513277

>  <smiles>  (1) 
CC(C)(C)NC(=S)NC(=O)c1ccc([N+](=O)[O-])cc1

$$$$
