
     RDKit          3D

 32 35  0  0  0  0  0  0  0  0999 V2000
   -5.4857   -1.8150    0.4803 C   0  0  0  0  0  0  0  0  0  0  0  0
   -5.3333   -0.2216    0.9054 C   0  0  1  0  0  0  0  0  0  0  0  0
   -4.0390    0.0177    0.0276 N   0  0  0  0  0  0  0  0  0  0  0  0
   -2.9872   -0.8961    0.1683 C   0  0  0  0  0  0  0  0  0  0  0  0
   -3.0432   -1.8741    0.9448 O   0  0  0  0  0  0  0  0  0  0  0  0
   -1.7670   -0.6779   -0.6412 C   0  0  0  0  0  0  0  0  0  0  0  0
   -0.8353   -1.7443   -0.3301 N   0  0  0  0  0  0  0  0  0  0  0  0
   -0.4234   -1.5533    1.0410 C   0  0  0  0  0  0  0  0  0  0  0  0
    1.0369   -1.1701    1.0590 C   0  0  0  0  0  0  0  0  0  0  0  0
    1.1995    0.0227    0.2057 C   0  0  0  0  0  0  0  0  0  0  0  0
    2.0844    1.0727    0.5854 C   0  0  0  0  0  0  0  0  0  0  0  0
    1.7615    2.3991    0.5030 N   0  0  0  0  0  0  0  0  0  0  0  0
    2.7685    3.1108    0.9361 N   0  0  0  0  0  0  0  0  0  0  0  0
    3.7680    2.2848    1.3105 C   0  0  0  0  0  0  0  0  0  0  0  0
    4.9943    2.6736    1.8219 O   0  0  0  0  0  0  0  0  0  0  0  0
    3.3460    1.0392    1.0941 N   0  0  0  0  0  0  0  0  0  0  0  0
    4.0273   -0.2187    1.3251 C   0  0  0  0  0  0  0  0  0  0  0  0
    4.8099   -0.5293    0.0721 C   0  0  0  0  0  0  0  0  0  0  0  0
    4.2196   -1.1432   -1.0102 C   0  0  0  0  0  0  0  0  0  0  0  0
    4.9285   -1.4309   -2.1793 C   0  0  0  0  0  0  0  0  0  0  0  0
    6.2570   -1.0587   -2.1722 C   0  0  0  0  0  0  0  0  0  0  0  0
    6.8773   -0.4481   -1.1155 C   0  0  0  0  0  0  0  0  0  0  0  0
    8.1845   -0.1245   -1.2080 F   0  0  0  0  0  0  0  0  0  0  0  0
    6.1443   -0.1827    0.0147 C   0  0  0  0  0  0  0  0  0  0  0  0
    0.8432   -0.2270   -1.1931 C   0  0  0  0  0  0  0  0  0  0  0  0
    0.3191   -1.6801   -1.2398 C   0  0  0  0  0  0  0  0  0  0  0  0
   -6.3818    0.2774   -0.2204 C   0  0  0  0  0  0  0  0  0  0  0  0
   -7.3514    1.1452    0.2264 C   0  0  0  0  0  0  0  0  0  0  0  0
   -8.2714    1.6044   -0.6872 C   0  0  0  0  0  0  0  0  0  0  0  0
   -8.1791    1.1791   -1.9910 C   0  0  0  0  0  0  0  0  0  0  0  0
   -7.2020    0.3173   -2.3976 C   0  0  0  0  0  0  0  0  0  0  0  0
   -6.2697   -0.1482   -1.4709 C   0  0  0  0  0  0  0  0  0  0  0  0
  2  1  1  6
  2  3  1  0
  3  4  1  0
  4  5  2  0
  4  6  1  0
  6  7  1  0
  7  8  1  0
  8  9  1  0
  9 10  1  0
 10 11  1  0
 11 12  2  0
 12 13  1  0
 13 14  2  0
 14 15  1  0
 14 16  1  0
 16 17  1  0
 17 18  1  0
 18 19  2  0
 19 20  1  0
 20 21  2  0
 21 22  1  0
 22 23  1  0
 22 24  2  0
 10 25  1  0
 25 26  1  0
  2 27  1  0
 27 28  2  0
 28 29  1  0
 29 30  2  0
 30 31  1  0
 31 32  2  0
 26  7  1  0
 32 27  1  0
 16 11  1  0
 24 18  1  0
M  END
>  <zinc_id>  (1) 
ZINC000000012908

>  <smiles>  (1) 
C[C@@H](NC(=O)CN1CCC(c2nnc(O)n2Cc2cccc(F)c2)CC1)c1ccccc1

$$$$
