
     RDKit          3D

 21 23  0  0  0  0  0  0  0  0999 V2000
   -1.5689    2.9571   -1.5227 O   0  0  0  0  0  0  0  0  0  0  0  0
   -2.7186    2.5339   -1.3065 N   0  0  0  0  0  4  0  0  0  0  0  0
   -3.8092    3.2682   -1.6893 O   0  0  0  0  0  1  0  0  0  0  0  0
   -2.8758    1.2787   -0.6574 C   0  0  0  0  0  0  0  0  0  0  0  0
   -4.1460    0.7709   -0.3979 C   0  0  0  0  0  0  0  0  0  0  0  0
   -4.2871   -0.4485    0.2328 C   0  0  0  0  0  0  0  0  0  0  0  0
   -3.2063   -1.1670    0.6073 C   0  0  0  0  0  0  0  0  0  0  0  0
   -3.3122   -2.3579    1.2234 F   0  0  0  0  0  0  0  0  0  0  0  0
   -1.9136   -0.6902    0.3638 C   0  0  0  0  0  0  0  0  0  0  0  0
   -0.7905   -1.4279    0.7484 N   0  0  0  0  0  0  0  0  0  0  0  0
    0.5462   -0.9123    0.4850 C   0  0  0  0  0  0  0  0  0  0  0  0
    0.5682    0.5484   -0.2686 S   0  0  0  0  0  0  0  0  0  0  0  0
    1.5915   -1.6728    0.8811 N   0  0  0  0  0  0  0  0  0  0  0  0
    3.0094   -1.7250    0.9110 C   0  0  2  0  0  0  0  0  0  0  0  0
    3.4137   -0.4293    1.7377 C   0  0  0  0  0  0  0  0  0  0  0  0
    4.9712   -0.1881    1.2003 C   0  0  2  0  0  0  0  0  0  0  0  0
    4.5779    1.0049    0.1345 C   0  0  0  0  0  0  0  0  0  0  0  0
    3.3315    0.4996   -0.2963 C   0  0  0  0  0  0  0  0  0  0  0  0
    3.4450   -1.0841   -0.5845 C   0  0  1  0  0  0  0  0  0  0  0  0
    4.9844   -1.2697   -0.0334 C   0  0  0  0  0  0  0  0  0  0  0  0
   -1.8108    0.5109   -0.2574 C   0  0  0  0  0  0  0  0  0  0  0  0
  1  2  2  0
  2  3  1  0
  2  4  1  0
  4  5  2  0
  5  6  1  0
  6  7  2  0
  7  8  1  0
  7  9  1  0
  9 10  1  0
 10 11  1  0
 11 12  2  0
 11 13  1  0
 14 13  1  6
 14 15  1  0
 16 15  1  1
 16 17  1  0
 17 18  1  0
 19 18  1  1
 19 20  1  0
  9 21  2  0
 21  4  1  0
 19 14  1  0
 20 16  1  0
M  CHG  2   2   1   3  -1
M  END
>  <zinc_id>  (1) 
ZINC000003382325

>  <smiles>  (1) 
O=[N+]([O-])c1ccc(F)c(NC(=S)N[C@@H]2C[C@@H]3CC[C@H]2C3)c1

$$$$
