
     RDKit          3D

 19 21  0  0  0  0  0  0  0  0999 V2000
    6.6119    1.5622    1.2203 C   0  0  0  0  0  0  0  0  0  0  0  0
    5.7471    1.5754    0.2057 C   0  0  0  0  0  0  0  0  0  0  0  0
    4.8402    0.4052    0.0817 C   0  0  0  0  0  0  0  0  0  0  0  0
    3.4506    0.8191    0.1697 N   0  0  0  0  0  0  0  0  0  0  0  0
    2.4935   -0.2651    0.0579 C   0  0  0  0  0  0  0  0  0  0  0  0
    1.1756   -0.1754    0.1033 N   0  0  0  0  0  0  0  0  0  0  0  0
    0.4564   -1.2470   -0.0131 C   0  0  0  0  0  0  0  0  0  0  0  0
   -1.0333   -1.2378    0.0265 C   0  0  0  0  0  0  0  0  0  0  0  0
   -1.8800   -2.3122   -0.0869 C   0  0  0  0  0  0  0  0  0  0  0  0
   -3.1600   -1.9058   -0.0026 N   0  0  0  0  0  0  0  0  0  0  0  0
   -3.1547   -0.5826    0.1639 C   0  0  0  0  0  0  0  0  0  0  0  0
   -4.2212    0.2977    0.3023 C   0  0  0  0  0  0  0  0  0  0  0  0
   -3.9752    1.6499    0.4662 C   0  0  0  0  0  0  0  0  0  0  0  0
   -5.0870    2.6449    0.6203 C   0  0  0  0  0  0  0  0  0  0  0  0
   -2.6754    2.0955    0.4888 C   0  0  0  0  0  0  0  0  0  0  0  0
   -1.6144    1.1942    0.3478 C   0  0  0  0  0  0  0  0  0  0  0  0
   -1.8551   -0.1474    0.1851 C   0  0  0  0  0  0  0  0  0  0  0  0
    1.1254   -2.4367   -0.1803 C   0  0  0  0  0  0  0  0  0  0  0  0
    2.7555   -1.9343   -0.1591 S   0  0  0  0  0  0  0  0  0  0  0  0
  1  2  2  0
  2  3  1  0
  3  4  1  0
  4  5  1  0
  5  6  2  0
  6  7  1  0
  7  8  1  0
  8  9  2  0
  9 10  1  0
 10 11  1  0
 11 12  2  0
 12 13  1  0
 13 14  1  0
 13 15  2  0
 15 16  1  0
 16 17  2  0
  7 18  2  0
 18 19  1  0
 19  5  1  0
 17  8  1  0
 17 11  1  0
M  END
>  <zinc_id>  (1) 
ZINC000002431617

>  <smiles>  (1) 
C=CCNc1nc(-c2c[nH]c3cc(C)ccc23)cs1

$$$$
