
     RDKit          3D

 20 22  0  0  0  0  0  0  0  0999 V2000
   -1.5384   -2.3186   -2.0212 C   0  0  0  0  0  0  0  0  0  0  0  0
   -1.4406   -2.1939   -0.5155 C   0  0  0  0  0  0  0  0  0  0  0  0
   -2.1172   -3.3369    0.1900 C   0  0  0  0  0  0  0  0  0  0  0  0
    0.0097   -2.0401   -0.1268 C   0  0  0  0  0  0  0  0  0  0  0  0
    0.2647   -0.6432   -0.7224 C   0  0  2  0  0  0  0  0  0  0  0  0
    0.3288   -0.8097   -2.2075 C   0  0  0  0  0  0  0  0  0  0  0  0
    1.4644   -0.0347   -0.1276 C   0  0  0  0  0  0  0  0  0  0  0  0
    2.3284   -0.7095    0.7328 C   0  0  0  0  0  0  0  0  0  0  0  0
    3.4461   -0.0884    1.2686 C   0  0  0  0  0  0  0  0  0  0  0  0
    3.7421    1.2267    0.9660 C   0  0  0  0  0  0  0  0  0  0  0  0
    4.8996    1.8422    1.5309 N   0  0  0  0  0  0  0  0  0  0  0  0
    2.8925    1.9014    0.1160 C   0  0  0  0  0  0  0  0  0  0  0  0
    1.7669    1.2696   -0.4213 C   0  0  0  0  0  0  0  0  0  0  0  0
   -0.9932    0.0438   -0.2846 C   0  0  0  0  0  0  0  0  0  0  0  0
   -1.1966    1.3817   -0.0254 C   0  0  0  0  0  0  0  0  0  0  0  0
   -2.4450    1.7966    0.3775 C   0  0  0  0  0  0  0  0  0  0  0  0
   -2.6936    3.1872    0.6550 N   0  0  0  0  0  0  0  0  0  0  0  0
   -3.4364    0.8735    0.5069 C   0  0  0  0  0  0  0  0  0  0  0  0
   -3.2749   -0.4708    0.2579 C   0  0  0  0  0  0  0  0  0  0  0  0
   -2.0073   -0.8767   -0.1492 C   0  0  0  0  0  0  0  0  0  0  0  0
  1  2  1  0
  2  3  1  0
  2  4  1  0
  4  5  1  0
  5  6  1  6
  5  7  1  0
  7  8  2  0
  8  9  1  0
  9 10  2  0
 10 11  1  0
 10 12  1  0
 12 13  2  0
  5 14  1  0
 14 15  2  0
 15 16  1  0
 16 17  1  0
 16 18  2  0
 18 19  1  0
 19 20  2  0
 20  2  1  0
 13  7  1  0
 20 14  1  0
M  END
>  <zinc_id>  (1) 
ZINC000000354239

>  <smiles>  (1) 
CC1(C)C[C@](C)(c2ccc(N)cc2)c2cc(N)ccc21

$$$$
