
     RDKit          3D

 18 19  0  0  0  0  0  0  0  0999 V2000
   -6.9478    0.6434    0.7369 C   0  0  0  0  0  0  0  0  0  0  0  0
   -6.3863   -0.5420    0.6141 C   0  0  0  0  0  0  0  0  0  0  0  0
   -4.9433   -0.7535    0.4710 C   0  0  0  0  0  0  0  0  0  0  0  0
   -4.1905    0.4859    0.4784 N   0  0  0  0  0  0  0  0  0  0  0  0
   -2.7867    0.5160    0.3535 C   0  0  0  0  0  0  0  0  0  0  0  0
   -2.1528   -0.5267   -0.0478 N   0  0  0  0  0  0  0  0  0  0  0  0
   -0.7898   -0.5868   -0.1982 N   0  0  0  0  0  0  0  0  0  0  0  0
    0.1722    0.3907    0.0287 C   0  0  0  0  0  0  0  0  0  0  0  0
    1.6112    0.1060   -0.2024 C   0  0  0  0  0  0  0  0  0  0  0  0
    2.5132    1.1122    0.0396 C   0  0  0  0  0  0  0  0  0  0  0  0
    3.8653    0.9625   -0.1390 C   0  0  0  0  0  0  0  0  0  0  0  0
    4.3087   -0.2490   -0.5771 C   0  0  0  0  0  0  0  0  0  0  0  0
    5.6622   -0.4276   -0.7653 O   0  0  0  0  0  0  0  0  0  0  0  0
    6.5830    0.6017   -0.5176 C   0  0  0  0  0  0  0  0  0  0  0  0
    3.4263   -1.2904   -0.8325 C   0  0  0  0  0  0  0  0  0  0  0  0
    2.0561   -1.0986   -0.6384 C   0  0  0  0  0  0  0  0  0  0  0  0
   -0.1482    1.5942    0.4524 C   0  0  0  0  0  0  0  0  0  0  0  0
   -1.8528    1.9845    0.7434 S   0  0  0  0  0  0  0  0  0  0  0  0
  1  2  2  0
  2  3  1  0
  3  4  1  0
  4  5  1  0
  5  6  2  0
  6  7  1  0
  7  8  1  0
  8  9  1  0
  9 10  2  0
 10 11  1  0
 11 12  2  0
 12 13  1  0
 13 14  1  0
 12 15  1  0
 15 16  2  0
  8 17  2  0
 17 18  1  0
 18  5  1  0
 16  9  1  0
M  END
>  <zinc_id>  (1) 
ZINC000003250408

>  <smiles>  (1) 
C=CCNC1=NNC(c2ccc(OC)cc2)=CS1

$$$$
