
     RDKit          3D

 18 19  0  0  0  0  0  0  0  0999 V2000
   -0.7156   -2.5822    0.4595 O   0  0  0  0  0  0  0  0  0  0  0  0
   -0.7870   -1.3246    0.2986 C   0  0  0  0  0  0  0  0  0  0  0  0
    0.4451   -0.6337    0.1853 N   0  0  0  0  0  0  0  0  0  0  0  0
    1.6857   -1.2689    0.2435 N   0  0  0  0  0  0  0  0  0  0  0  0
    2.8431   -0.4373    0.2331 C   0  0  0  0  0  0  0  0  0  0  0  0
    3.6898   -0.6057   -0.7957 C   0  0  0  0  0  0  0  0  0  0  0  0
    4.9481    0.1469   -1.0024 C   0  0  0  0  0  0  0  0  0  0  0  0
    4.7790    1.6294   -0.9441 C   0  0  0  0  0  0  0  0  0  0  0  0
    3.3947    2.0287   -0.4982 C   0  0  0  0  0  0  0  0  0  0  0  0
    3.2512    1.8925    0.9972 C   0  0  0  0  0  0  0  0  0  0  0  0
    2.9243    0.4903    1.3872 C   0  0  0  0  0  0  0  0  0  0  0  0
   -2.1073   -0.7277    0.2511 C   0  0  0  0  0  0  0  0  0  0  0  0
   -2.3330    0.3607   -0.5918 C   0  0  0  0  0  0  0  0  0  0  0  0
   -3.5386    0.9689   -0.6891 C   0  0  0  0  0  0  0  0  0  0  0  0
   -4.6097    0.4971    0.0847 C   0  0  0  0  0  0  0  0  0  0  0  0
   -6.3160    1.3285   -0.0305 Br  0  0  0  0  0  0  0  0  0  0  0  0
   -4.3912   -0.5635    0.9088 C   0  0  0  0  0  0  0  0  0  0  0  0
   -3.1627   -1.1993    1.0194 C   0  0  0  0  0  0  0  0  0  0  0  0
  1  2  2  0
  2  3  1  0
  3  4  1  0
  4  5  1  0
  5  6  2  0
  6  7  1  0
  7  8  1  0
  8  9  1  0
  9 10  1  0
 10 11  1  0
  2 12  1  0
 12 13  2  0
 13 14  1  0
 14 15  2  0
 15 16  1  0
 15 17  1  0
 17 18  2  0
 11  5  1  0
 18 12  1  0
M  END
>  <zinc_id>  (1) 
ZINC000003468792

>  <smiles>  (1) 
O=C(NNC1=CCCCCC1)c1ccc(Br)cc1

$$$$
