
     RDKit          3D

 20 21  0  0  0  0  0  0  0  0999 V2000
    6.6561   -0.4012    0.6316 C   0  0  0  0  0  0  0  0  0  0  0  0
    5.1928   -0.4494    0.3398 C   0  0  0  0  0  0  0  0  0  0  0  0
    4.6600   -1.3647   -0.5468 C   0  0  0  0  0  0  0  0  0  0  0  0
    3.3083   -1.4139   -0.8204 C   0  0  0  0  0  0  0  0  0  0  0  0
    2.4256   -0.5473   -0.2179 C   0  0  0  0  0  0  0  0  0  0  0  0
    0.9839   -0.5980   -0.5083 C   0  0  0  0  0  0  0  0  0  0  0  0
    0.4930   -1.4201   -1.3066 O   0  0  0  0  0  0  0  0  0  0  0  0
    0.0872    0.3071    0.1251 N   0  0  0  0  0  0  0  0  0  0  0  0
   -1.3063    0.3081   -0.1121 C   0  0  0  0  0  0  0  0  0  0  0  0
   -1.8258   -0.6052   -0.9945 C   0  0  0  0  0  0  0  0  0  0  0  0
   -3.1976   -0.6265   -1.2474 C   0  0  0  0  0  0  0  0  0  0  0  0
   -3.7576   -1.6075   -2.1954 C   0  0  0  0  0  0  0  0  0  0  0  0
   -3.9794    0.2932   -0.5818 C   0  0  0  0  0  0  0  0  0  0  0  0
   -5.3613    0.2597   -0.8470 O   0  0  0  0  0  0  0  0  0  0  0  0
   -3.4609    1.2106    0.3040 C   0  0  0  0  0  0  0  0  0  0  0  0
   -4.5699    2.4663    1.2057 Br  0  0  0  0  0  0  0  0  0  0  0  0
   -2.0984    1.2166    0.5420 C   0  0  0  0  0  0  0  0  0  0  0  0
   -1.5072    2.1869    1.4862 C   0  0  0  0  0  0  0  0  0  0  0  0
    2.9532    0.3666    0.6665 C   0  0  0  0  0  0  0  0  0  0  0  0
    4.3044    0.4187    0.9426 C   0  0  0  0  0  0  0  0  0  0  0  0
  1  2  1  0
  2  3  2  0
  3  4  1  0
  4  5  2  0
  5  6  1  0
  6  7  2  0
  6  8  1  0
  8  9  1  0
  9 10  2  0
 10 11  1  0
 11 12  1  0
 11 13  2  0
 13 14  1  0
 13 15  1  0
 15 16  1  0
 15 17  2  0
 17 18  1  0
  5 19  1  0
 19 20  2  0
 20  2  1  0
 17  9  1  0
M  END
>  <zinc_id>  (1) 
ZINC000001077308

>  <smiles>  (1) 
Cc1ccc(C(=O)Nc2cc(C)c(O)c(Br)c2C)cc1

$$$$
