
     RDKit          3D

 21 23  0  0  0  0  0  0  0  0999 V2000
   -1.2523    3.4339   -0.3050 C   0  0  0  0  0  0  0  0  0  0  0  0
   -1.5095    2.4871    0.8423 C   0  0  0  0  0  0  0  0  0  0  0  0
   -2.3233    1.3149    0.4130 C   0  0  0  0  0  0  0  0  0  0  0  0
   -3.6507    1.2805    0.7478 C   0  0  0  0  0  0  0  0  0  0  0  0
   -4.4018    0.1893    0.3396 C   0  0  0  0  0  0  0  0  0  0  0  0
   -3.8144   -0.8221   -0.3811 C   0  0  0  0  0  0  0  0  0  0  0  0
   -2.4898   -0.7942   -0.7187 C   0  0  0  0  0  0  0  0  0  0  0  0
   -1.8238   -1.8689   -1.4965 C   0  0  0  0  0  0  0  0  0  0  0  0
   -2.8084   -2.9472   -1.8626 C   0  0  0  0  0  0  0  0  0  0  0  0
   -1.7313    0.2838   -0.3192 C   0  0  0  0  0  0  0  0  0  0  0  0
   -0.3487    0.4206   -0.6042 N   0  0  0  0  0  0  0  0  0  0  0  0
    0.6388   -0.1050    0.2713 C   0  0  0  0  0  0  0  0  0  0  0  0
    0.3357   -0.7691    1.4041 N   0  0  0  0  0  0  0  0  0  0  0  0
    1.3235   -1.2626    2.2106 C   0  0  0  0  0  0  0  0  0  0  0  0
    2.6238   -1.0893    1.8779 N   0  0  0  0  0  0  0  0  0  0  0  0
    2.9901   -0.4353    0.7598 C   0  0  0  0  0  0  0  0  0  0  0  0
    1.9721    0.0581   -0.0444 C   0  0  0  0  0  0  0  0  0  0  0  0
    2.6186    0.6736   -1.1049 C   0  0  0  0  0  0  0  0  0  0  0  0
    3.9606    0.5317   -0.9053 N   0  0  0  0  0  0  0  0  0  0  0  0
    4.1820   -0.1335    0.2127 N   0  0  0  0  0  0  0  0  0  0  0  0
    5.5089   -0.4463    0.7030 C   0  0  0  0  0  0  0  0  0  0  0  0
  1  2  1  0
  2  3  1  0
  3  4  2  0
  4  5  1  0
  5  6  2  0
  6  7  1  0
  7  8  1  0
  8  9  1  0
  7 10  2  0
 10 11  1  0
 11 12  1  0
 12 13  2  0
 13 14  1  0
 14 15  2  0
 15 16  1  0
 16 17  2  0
 17 18  1  0
 18 19  2  0
 19 20  1  0
 20 21  1  0
 10  3  1  0
 17 12  1  0
 20 16  1  0
M  END
>  <zinc_id>  (1) 
ZINC000001576843

>  <smiles>  (1) 
CCc1cccc(CC)c1Nc1ncnc2c1cnn2C

$$$$
