
     RDKit          3D

 21 23  0  0  0  0  0  0  0  0999 V2000
   -5.1790   -1.8670   -0.9443 C   0  0  0  0  0  0  0  0  0  0  0  0
   -4.0960   -1.0459   -0.3168 C   0  0  0  0  0  0  0  0  0  0  0  0
   -2.9146   -0.8333   -1.0172 C   0  0  0  0  0  0  0  0  0  0  0  0
   -1.8767   -0.0802   -0.4859 C   0  0  0  0  0  0  0  0  0  0  0  0
   -0.7297    0.1292   -1.1593 N   0  0  0  0  0  0  0  0  0  0  0  0
    0.2879    0.8572   -0.6585 C   0  0  0  0  0  0  0  0  0  0  0  0
    1.5383    1.0656   -1.4310 C   0  0  0  0  0  0  0  0  0  0  0  0
    2.6446    0.2140   -0.9177 C   0  0  0  0  0  0  0  0  0  0  0  0
    2.9150   -1.0565   -1.3598 C   0  0  0  0  0  0  0  0  0  0  0  0
    3.9782   -1.7955   -0.8239 C   0  0  0  0  0  0  0  0  0  0  0  0
    4.7671   -1.2281    0.1704 C   0  0  0  0  0  0  0  0  0  0  0  0
    4.5083    0.0410    0.6219 C   0  0  0  0  0  0  0  0  0  0  0  0
    5.3057    0.5561    1.5957 F   0  0  0  0  0  0  0  0  0  0  0  0
    3.4515    0.7398    0.0699 C   0  0  0  0  0  0  0  0  0  0  0  0
    0.1662    1.4173    0.5923 C   0  0  0  0  0  0  0  0  0  0  0  0
    1.0740    2.1129    1.1325 O   0  0  0  0  0  0  0  0  0  0  0  0
   -0.9819    1.2190    1.2886 N   0  0  0  0  0  0  0  0  0  0  0  0
   -1.9952    0.4828    0.7671 C   0  0  0  0  0  0  0  0  0  0  0  0
   -3.1748    0.2639    1.4535 C   0  0  0  0  0  0  0  0  0  0  0  0
   -4.2119   -0.4818    0.9362 C   0  0  0  0  0  0  0  0  0  0  0  0
   -5.4769   -0.7106    1.6826 C   0  0  0  0  0  0  0  0  0  0  0  0
  1  2  1  0
  2  3  2  0
  3  4  1  0
  4  5  1  0
  5  6  2  0
  6  7  1  0
  7  8  1  0
  8  9  2  0
  9 10  1  0
 10 11  2  0
 11 12  1  0
 12 13  1  0
 12 14  2  0
  6 15  1  0
 15 16  2  0
 15 17  1  0
 17 18  1  0
 18 19  1  0
 19 20  2  0
 20 21  1  0
 20  2  1  0
 18  4  2  0
 14  8  1  0
M  END
>  <zinc_id>  (1) 
ZINC000000104724

>  <smiles>  (1) 
Cc1cc2nc(Cc3cccc(F)c3)c(=O)[nH]c2cc1C

$$$$
