
     RDKit          3D

 19 20  0  0  0  0  0  0  0  0999 V2000
    5.6386    0.9110   -1.5165 C   0  0  0  0  0  0  0  0  0  0  0  0
    5.2232    2.1806   -0.8012 C   0  0  0  0  0  0  0  0  0  0  0  0
    4.4169    1.7848    0.2958 O   0  0  0  0  0  0  0  0  0  0  0  0
    3.2378    1.0757    0.1174 C   0  0  0  0  0  0  0  0  0  0  0  0
    2.9223    0.8021   -1.0762 O   0  0  0  0  0  0  0  0  0  0  0  0
    2.4026    0.6675    1.2793 C   0  0  0  0  0  0  0  0  0  0  0  0
    1.2195   -0.0632    0.8371 N   0  0  0  0  0  0  0  0  0  0  0  0
    0.0319    0.4158    0.5244 N   0  0  0  0  0  0  0  0  0  0  0  0
   -0.8358   -0.5268    0.1562 C   0  0  0  0  0  0  0  0  0  0  0  0
   -2.2200   -0.4139   -0.2565 C   0  0  0  0  0  0  0  0  0  0  0  0
   -2.9513   -1.5184   -0.6003 C   0  0  0  0  0  0  0  0  0  0  0  0
   -4.2764   -1.4201   -0.9964 C   0  0  0  0  0  0  0  0  0  0  0  0
   -4.8450   -0.1678   -1.0355 C   0  0  0  0  0  0  0  0  0  0  0  0
   -6.2767   -0.0721   -1.4646 C   0  0  0  0  0  0  0  0  0  0  0  0
   -4.1254    0.9450   -0.6943 C   0  0  0  0  0  0  0  0  0  0  0  0
   -2.8085    0.8197   -0.3037 C   0  0  0  0  0  0  0  0  0  0  0  0
   -0.1241   -1.7301    0.2445 C   0  0  0  0  0  0  0  0  0  0  0  0
    1.1426   -1.3914    0.6700 C   0  0  0  0  0  0  0  0  0  0  0  0
    2.2278   -2.2985    0.9050 N   0  0  0  0  0  0  0  0  0  0  0  0
  1  2  1  0
  2  3  1  0
  3  4  1  0
  4  5  2  0
  4  6  1  0
  6  7  1  0
  7  8  1  0
  8  9  2  0
  9 10  1  0
 10 11  2  0
 11 12  1  0
 12 13  2  0
 13 14  1  0
 13 15  1  0
 15 16  2  0
  9 17  1  0
 17 18  2  0
 18 19  1  0
 18  7  1  0
 16 10  1  0
M  END
>  <zinc_id>  (1) 
ZINC000000868863

>  <smiles>  (1) 
CCOC(=O)Cn1nc(-c2ccc(C)cc2)cc1N

$$$$
