
     RDKit          3D

 21 24  0  0  0  0  0  0  0  0999 V2000
    0.4563   -2.2539    0.0509 O   0  0  0  0  0  0  0  0  0  0  0  0
   -0.6692   -1.6922    0.0893 C   0  0  0  0  0  0  0  0  0  0  0  0
   -1.9317   -2.3662    0.3007 N   0  0  0  0  0  0  0  0  0  0  0  0
   -2.9859   -1.4253    0.2833 C   0  0  0  0  0  0  0  0  0  0  0  0
   -4.3641   -1.6097    0.4427 C   0  0  0  0  0  0  0  0  0  0  0  0
   -5.2067   -0.5173    0.3848 C   0  0  0  0  0  0  0  0  0  0  0  0
   -4.7214    0.7567    0.1726 C   0  0  0  0  0  0  0  0  0  0  0  0
   -5.8568    2.0893    0.1137 Cl  0  0  0  0  0  0  0  0  0  0  0  0
   -3.3610    0.9310    0.0161 C   0  0  0  0  0  0  0  0  0  0  0  0
   -2.4970   -0.1647    0.0725 C   0  0  0  0  0  0  0  0  0  0  0  0
   -1.0236   -0.2929   -0.0560 C   0  0  0  0  0  0  0  0  0  0  0  0
   -0.2162    0.6924   -0.2611 C   0  0  0  0  0  0  0  0  0  0  0  0
    1.2136    0.5565   -0.3816 C   0  0  0  0  0  0  0  0  0  0  0  0
    1.9821    1.7182   -0.5745 C   0  0  0  0  0  0  0  0  0  0  0  0
    3.2846    1.3237   -0.6536 C   0  0  0  0  0  0  0  0  0  0  0  0
    3.3074   -0.0319   -0.5138 C   0  0  0  0  0  0  0  0  0  0  0  0
    2.0651   -0.4500   -0.3551 N   0  0  0  0  0  0  0  0  0  0  0  0
    4.5865   -0.8326   -0.5468 C   0  0  0  0  0  0  0  0  0  0  0  0
    5.7897    0.0421   -0.7221 C   0  0  0  0  0  0  0  0  0  0  0  0
    5.6099    1.3969   -0.0500 C   0  0  0  0  0  0  0  0  0  0  0  0
    4.5385    2.1299   -0.8540 C   0  0  0  0  0  0  0  0  0  0  0  0
  1  2  2  0
  2  3  1  0
  3  4  1  0
  4  5  2  0
  5  6  1  0
  6  7  2  0
  7  8  1  0
  7  9  1  0
  9 10  2  0
 10 11  1  0
 11 12  2  0
 12 13  1  0
 13 14  2  0
 14 15  1  0
 15 16  2  0
 16 17  1  0
 16 18  1  0
 18 19  1  0
 19 20  1  0
 20 21  1  0
 11  2  1  0
 17 13  1  0
 10  4  1  0
 21 15  1  0
M  END
>  <zinc_id>  (1) 
ZINC000004392005

>  <smiles>  (1) 
O=C1Nc2ccc(Cl)cc2/C1=C/c1cc2c([nH]1)CCCC2

$$$$
