
     RDKit          3D

 20 23  0  0  0  0  0  0  0  0999 V2000
   -5.2454    0.5787    0.3830 N   0  0  0  0  0  0  0  0  0  0  0  0
   -4.0403    0.8859   -0.2872 C   0  0  0  0  0  0  0  0  0  0  0  0
   -3.9538    1.9169   -1.1991 C   0  0  0  0  0  0  0  0  0  0  0  0
   -2.7820    2.2081   -1.8442 C   0  0  0  0  0  0  0  0  0  0  0  0
   -1.6650    1.4338   -1.5588 C   0  0  0  0  0  0  0  0  0  0  0  0
   -1.7195    0.4120   -0.6655 C   0  0  0  0  0  0  0  0  0  0  0  0
   -0.6441   -0.3843   -0.3472 C   0  0  0  0  0  0  0  0  0  0  0  0
    0.6010   -0.1391   -0.9778 N   0  0  0  0  0  0  0  0  0  0  0  0
    1.7037   -0.9418   -0.6630 C   0  0  0  0  0  0  0  0  0  0  0  0
    1.7479   -1.8832    0.1315 O   0  0  0  0  0  0  0  0  0  0  0  0
    3.0799   -0.5954   -1.4321 C   0  0  1  0  0  0  0  0  0  0  0  0
    3.2456    0.9502   -0.8704 C   0  0  0  0  0  0  0  0  0  0  0  0
    4.0027   -0.3311   -0.1463 C   0  0  0  0  0  0  0  0  0  0  0  0
    5.3867   -0.0527   -0.1917 C   0  0  0  0  0  0  0  0  0  0  0  0
    5.1833    0.1388    1.3319 C   0  0  0  0  0  0  0  0  0  0  0  0
    3.7209   -0.3357    1.1682 C   0  0  0  0  0  0  0  0  0  0  0  0
   -0.7438   -1.4054    0.5607 C   0  0  0  0  0  0  0  0  0  0  0  0
   -1.9403   -1.6797    1.1998 C   0  0  0  0  0  0  0  0  0  0  0  0
   -3.0143   -0.8984    0.8937 C   0  0  0  0  0  0  0  0  0  0  0  0
   -2.9234    0.1224   -0.0109 C   0  0  0  0  0  0  0  0  0  0  0  0
  1  2  1  0
  2  3  2  0
  3  4  1  0
  4  5  2  0
  5  6  1  0
  6  7  2  0
  7  8  1  0
  8  9  1  0
  9 10  2  0
 11  9  1  1
 11 12  1  0
 12 13  1  0
 13 14  1  0
 14 15  1  0
 15 16  1  0
  7 17  1  0
 17 18  2  0
 18 19  1  0
 19 20  2  0
 20  2  1  0
 20  6  1  0
 13 11  1  0
 16 13  1  0
M  END
>  <zinc_id>  (1) 
ZINC000002843193

>  <smiles>  (1) 
Nc1cccc2c(NC(=O)[C@H]3CC34CCC4)cccc12

$$$$
