
     RDKit          3D

 18 19  0  0  0  0  0  0  0  0999 V2000
   -4.4928   -0.7603   -0.4763 C   0  0  0  0  0  0  0  0  0  0  0  0
   -3.1257   -0.3024   -0.0859 C   0  0  0  0  0  0  0  0  0  0  0  0
   -2.1773   -1.1731    0.4218 C   0  0  0  0  0  0  0  0  0  0  0  0
   -0.9163   -0.7423    0.7802 C   0  0  0  0  0  0  0  0  0  0  0  0
    0.0129   -1.6419    1.2869 O   0  0  0  0  0  0  0  0  0  0  0  0
    1.2968   -1.2587    1.6629 C   0  0  0  0  0  0  0  0  0  0  0  0
    2.0749   -0.6846    0.5843 N   0  0  0  0  0  0  0  0  0  0  0  0
    2.1511    0.5963    0.2309 N   0  0  0  0  0  0  0  0  0  0  0  0
    2.9782    0.7418   -0.8217 C   0  0  0  0  0  0  0  0  0  0  0  0
    3.3476    1.9278   -1.5185 N   0  0  0  0  0  0  0  0  0  0  0  0
    3.4227   -0.5415   -1.1118 C   0  0  0  0  0  0  0  0  0  0  0  0
    2.8513   -1.4303   -0.2252 C   0  0  0  0  0  0  0  0  0  0  0  0
    3.0569   -2.9167   -0.1789 C   0  0  0  0  0  0  0  0  0  0  0  0
   -0.6495    0.6016    0.6064 C   0  0  0  0  0  0  0  0  0  0  0  0
   -1.5959    1.4711    0.0996 C   0  0  0  0  0  0  0  0  0  0  0  0
   -1.3161    2.9309   -0.0928 C   0  0  0  0  0  0  0  0  0  0  0  0
   -2.8556    1.0392   -0.2581 C   0  0  0  0  0  0  0  0  0  0  0  0
   -4.0630    2.1429   -0.9036 Cl  0  0  0  0  0  0  0  0  0  0  0  0
  1  2  1  0
  2  3  2  0
  3  4  1  0
  4  5  1  0
  5  6  1  0
  6  7  1  0
  7  8  1  0
  8  9  2  0
  9 10  1  0
  9 11  1  0
 11 12  2  0
 12 13  1  0
  4 14  2  0
 14 15  1  0
 15 16  1  0
 15 17  2  0
 17 18  1  0
 17  2  1  0
 12  7  1  0
M  END
>  <zinc_id>  (1) 
ZINC000002534952

>  <smiles>  (1) 
Cc1cc(OCn2nc(N)cc2C)cc(C)c1Cl

$$$$
