
     RDKit          3D

 18 19  0  0  0  0  0  0  0  0999 V2000
   -0.1771   -0.0077    0.7991 O   0  0  0  0  0  0  0  0  0  0  0  0
    0.0469   -1.0288    0.1022 C   0  0  0  0  0  0  0  0  0  0  0  0
    1.3975   -1.6323    0.1247 C   0  0  0  0  0  0  0  0  0  0  0  0
    2.2833   -0.8383    1.0444 C   0  0  0  0  0  0  0  0  0  0  0  0
    2.3697    0.5758    0.5467 C   0  0  0  0  0  0  0  0  0  0  0  0
    2.9462    0.5581   -0.8346 C   0  0  0  0  0  0  0  0  0  0  0  0
    4.4317    0.7708   -0.8762 C   0  0  0  0  0  0  0  0  0  0  0  0
    5.0478    0.3553    0.4198 C   0  0  0  0  0  0  0  0  0  0  0  0
    4.5787    1.3096    1.4929 C   0  0  0  0  0  0  0  0  0  0  0  0
    3.0872    1.5018    1.4744 C   0  0  0  0  0  0  0  0  0  0  0  0
   -1.0107   -1.5711   -0.6874 N   0  0  0  0  0  0  0  0  0  0  0  0
   -2.2685   -0.9280   -0.6466 C   0  0  0  0  0  0  0  0  0  0  0  0
   -3.2946   -1.4427   -1.4040 C   0  0  0  0  0  0  0  0  0  0  0  0
   -4.5437   -0.8514   -1.3996 C   0  0  0  0  0  0  0  0  0  0  0  0
   -4.7158    0.2640   -0.6124 C   0  0  0  0  0  0  0  0  0  0  0  0
   -3.7263    0.8244    0.1668 C   0  0  0  0  0  0  0  0  0  0  0  0
   -3.9651    1.9521    0.9395 O   0  0  0  0  0  0  0  0  0  0  0  0
   -2.4872    0.1883    0.1246 C   0  0  0  0  0  0  0  0  0  0  0  0
  1  2  2  0
  2  3  1  0
  3  4  1  0
  4  5  1  0
  5  6  1  0
  6  7  1  0
  7  8  1  0
  8  9  1  0
  9 10  1  0
  2 11  1  0
 11 12  1  0
 12 13  2  0
 13 14  1  0
 14 15  2  0
 15 16  1  0
 16 17  1  0
 16 18  2  0
 10  5  1  0
 18 12  1  0
M  END
>  <zinc_id>  (1) 
ZINC000000527709

>  <smiles>  (1) 
O=C(CCC1CCCCC1)Nc1cccc(O)c1

$$$$
