
     RDKit          3D

 19 20  0  0  0  0  0  0  0  0999 V2000
    5.0441   -2.0227   -0.7534 C   0  0  0  0  0  0  0  0  0  0  0  0
    5.4215   -0.7050   -0.1631 C   0  0  0  0  0  0  0  0  0  0  0  0
    6.4947    0.0133   -0.9381 C   0  0  0  0  0  0  0  0  0  0  0  0
    4.2548    0.2218   -0.0553 C   0  0  0  0  0  0  0  0  0  0  0  0
    2.9285   -0.0611   -0.0458 C   0  0  0  0  0  0  0  0  0  0  0  0
    2.0634    0.9473    0.0613 C   0  0  0  0  0  0  0  0  0  0  0  0
    0.5947    0.7443    0.0812 C   0  0  0  0  0  0  0  0  0  0  0  0
   -0.2029    1.7083    0.1827 O   0  0  0  0  0  0  0  0  0  0  0  0
    0.0383   -0.5483   -0.0140 N   0  0  0  0  0  0  0  0  0  0  0  0
   -1.3370   -0.7966   -0.0003 N   0  0  0  0  0  0  0  0  0  0  0  0
   -2.2300    0.0470    0.3222 C   0  0  0  0  0  0  0  0  0  0  0  0
   -3.6620   -0.2948    0.3105 C   0  0  0  0  0  0  0  0  0  0  0  0
   -4.5929    0.6476    0.6663 C   0  0  0  0  0  0  0  0  0  0  0  0
   -5.9306    0.3130    0.6506 C   0  0  0  0  0  0  0  0  0  0  0  0
   -6.3139   -0.9329    0.2872 N   0  0  0  0  0  0  0  0  0  0  0  0
   -5.3945   -1.8525   -0.0608 C   0  0  0  0  0  0  0  0  0  0  0  0
   -4.0474   -1.5564   -0.0577 C   0  0  0  0  0  0  0  0  0  0  0  0
    2.5957    2.2117    0.1550 C   0  0  0  0  0  0  0  0  0  0  0  0
    4.2753    1.9157    0.0876 S   0  0  0  0  0  0  0  0  0  0  0  0
  1  2  1  0
  2  3  1  0
  2  4  1  0
  4  5  2  0
  5  6  1  0
  6  7  1  0
  7  8  2  0
  7  9  1  0
  9 10  1  0
 10 11  2  0
 11 12  1  0
 12 13  2  0
 13 14  1  0
 14 15  2  0
 15 16  1  0
 16 17  2  0
  6 18  2  0
 18 19  1  0
 19  4  1  0
 17 12  1  0
M  END
>  <zinc_id>  (1) 
ZINC000000373968

>  <smiles>  (1) 
CC(C)c1cc(C(=O)N/N=C/c2ccncc2)cs1

$$$$
