
     RDKit          3D

 20 21  0  0  0  0  0  0  0  0999 V2000
    1.5945   -2.0762   -0.5261 C   0  0  0  0  0  0  0  0  0  0  0  0
    1.8070   -0.7729   -0.3388 C   0  0  0  0  0  0  0  0  0  0  0  0
    0.7344    0.1647   -0.3766 N   0  0  0  0  0  0  0  0  0  0  0  0
   -0.5665   -0.3219   -0.1901 N   0  0  0  0  0  0  0  0  0  0  0  0
   -1.5934    0.6173    0.0327 C   0  0  0  0  0  0  0  0  0  0  0  0
   -1.2845    1.8342    0.0514 O   0  0  0  0  0  0  0  0  0  0  0  0
   -2.9874    0.2426    0.2428 C   0  0  0  0  0  0  0  0  0  0  0  0
   -4.0559    1.0649    0.5119 C   0  0  0  0  0  0  0  0  0  0  0  0
   -5.1653    0.2221    0.6387 C   0  0  0  0  0  0  0  0  0  0  0  0
   -6.5225    0.7440    0.9387 C   0  0  0  0  0  0  0  0  0  0  0  0
   -4.7879   -1.0222    0.4567 O   0  0  0  0  0  0  0  0  0  0  0  0
   -3.4898   -1.0486    0.2183 C   0  0  0  0  0  0  0  0  0  0  0  0
   -2.6273   -2.2601   -0.0502 C   0  0  0  0  0  0  0  0  0  0  0  0
    3.1671   -0.3240   -0.0750 C   0  0  0  0  0  0  0  0  0  0  0  0
    4.2149   -1.2411   -0.0153 C   0  0  0  0  0  0  0  0  0  0  0  0
    5.4941   -0.7920    0.2298 C   0  0  0  0  0  0  0  0  0  0  0  0
    5.6759    0.5445    0.4079 C   0  0  0  0  0  0  0  0  0  0  0  0
    4.6586    1.4718    0.3575 C   0  0  0  0  0  0  0  0  0  0  0  0
    3.3910    1.0402    0.1135 C   0  0  0  0  0  0  0  0  0  0  0  0
    2.3431    1.9124    0.0496 F   0  0  0  0  0  0  0  0  0  0  0  0
  1  2  2  0
  2  3  1  0
  3  4  1  0
  4  5  1  0
  5  6  2  0
  5  7  1  0
  7  8  1  0
  8  9  2  0
  9 10  1  0
  9 11  1  0
 11 12  1  0
 12 13  1  0
  2 14  1  0
 14 15  2  0
 15 16  1  0
 16 17  2  0
 17 18  1  0
 18 19  2  0
 19 20  1  0
 12  7  2  0
 19 14  1  0
M  END
>  <zinc_id>  (1) 
ZINC000003476460

>  <smiles>  (1) 
C=C(NNC(=O)c1cc(C)oc1C)c1ccccc1F

$$$$
