
     RDKit          3D

 20 22  0  0  0  0  0  0  0  0999 V2000
   -2.3556   -2.0077   -1.7077 N   0  0  0  0  0  0  0  0  0  0  0  0
   -1.3781   -1.6248   -0.7521 C   0  0  0  0  0  0  0  0  0  0  0  0
   -0.4273   -2.4215   -0.5903 O   0  0  0  0  0  0  0  0  0  0  0  0
   -1.4982   -0.3468    0.0006 C   0  0  0  0  0  0  0  0  0  0  0  0
   -0.5187   -0.0297    0.9156 C   0  0  0  0  0  0  0  0  0  0  0  0
    0.6399   -0.7601    1.2721 N   0  0  0  0  0  0  0  0  0  0  0  0
    1.7592   -0.9249    0.9985 C   0  0  0  0  0  0  0  0  0  0  0  0
    2.9212   -0.6919    0.2526 C   0  0  0  0  0  0  0  0  0  0  0  0
    3.1040    0.1674   -0.8047 C   0  0  0  0  0  0  0  0  0  0  0  0
    4.2939    0.3259   -1.4773 C   0  0  0  0  0  0  0  0  0  0  0  0
    5.3819   -0.4017   -1.0953 C   0  0  0  0  0  0  0  0  0  0  0  0
    5.2720   -1.2780   -0.0488 C   0  0  0  0  0  0  0  0  0  0  0  0
    4.0727   -1.4189    0.6077 C   0  0  0  0  0  0  0  0  0  0  0  0
   -1.0765    1.4958    1.5147 S   0  0  0  0  0  0  0  0  0  0  0  0
   -2.4949    1.6574    0.5973 C   0  0  0  0  0  0  0  0  0  0  0  0
   -2.5028    0.5187   -0.1561 C   0  0  0  0  0  0  0  0  0  0  0  0
   -3.7104    0.4405   -1.0787 C   0  0  0  0  0  0  0  0  0  0  0  0
   -3.7458    1.7711   -1.7957 C   0  0  0  0  0  0  0  0  0  0  0  0
   -4.1867    2.8235   -0.8129 C   0  0  0  0  0  0  0  0  0  0  0  0
   -3.5496    2.7057    0.5248 C   0  0  0  0  0  0  0  0  0  0  0  0
  1  2  1  0
  2  3  2  0
  2  4  1  0
  4  5  2  0
  5  6  1  0
  6  7  2  0
  7  8  1  0
  8  9  2  0
  9 10  1  0
 10 11  2  0
 11 12  1  0
 12 13  2  0
  5 14  1  0
 14 15  1  0
 15 16  2  0
 16 17  1  0
 17 18  1  0
 18 19  1  0
 19 20  1  0
 16  4  1  0
 13  8  1  0
 20 15  1  0
M  END
>  <zinc_id>  (1) 
ZINC000000358181

>  <smiles>  (1) 
NC(=O)c1c(/N=C/c2ccccc2)sc2c1CCCC2

$$$$
