
     RDKit          3D

 22 24  0  0  0  0  0  0  0  0999 V2000
    5.5759   -1.8511   -1.8332 C   0  0  0  0  0  0  0  0  0  0  0  0
    4.6413   -1.0575   -0.9721 C   0  0  0  0  0  0  0  0  0  0  0  0
    5.1527   -0.2163    0.0016 C   0  0  0  0  0  0  0  0  0  0  0  0
    4.3373    0.5355    0.8201 C   0  0  0  0  0  0  0  0  0  0  0  0
    4.9072    1.4428    1.8724 C   0  0  0  0  0  0  0  0  0  0  0  0
    2.9778    0.4148    0.6282 C   0  0  0  0  0  0  0  0  0  0  0  0
    2.4135   -0.4072   -0.3255 C   0  0  0  0  0  0  0  0  0  0  0  0
    1.0001   -0.4826   -0.4692 N   0  0  0  0  0  0  0  0  0  0  0  0
    0.1696    0.3135    0.3962 C   0  0  0  0  0  0  0  0  0  0  0  0
   -1.2722    0.1241    0.1204 C   0  0  0  0  0  0  0  0  0  0  0  0
   -1.7287   -0.7275   -0.8630 C   0  0  0  0  0  0  0  0  0  0  0  0
   -3.0746   -0.9006   -1.1174 C   0  0  0  0  0  0  0  0  0  0  0  0
   -3.9616   -0.1841   -0.3452 C   0  0  0  0  0  0  0  0  0  0  0  0
   -3.5036    0.6705    0.6417 C   0  0  0  0  0  0  0  0  0  0  0  0
   -2.1588    0.8431    0.8956 C   0  0  0  0  0  0  0  0  0  0  0  0
   -1.6751    1.7236    1.9116 N   0  0  0  0  0  4  0  0  0  0  0  0
   -0.6221    1.4369    2.4920 O   0  0  0  0  0  0  0  0  0  0  0  0
   -2.3815    2.8619    2.2219 O   0  0  0  0  0  1  0  0  0  0  0  0
   -5.2197   -0.5615   -0.8269 O   0  0  0  0  0  0  0  0  0  0  0  0
   -5.0736   -1.1594   -2.0995 C   0  0  0  0  0  0  0  0  0  0  0  0
   -3.7791   -1.6846   -2.0353 O   0  0  0  0  0  0  0  0  0  0  0  0
    3.2752   -1.1346   -1.1144 C   0  0  0  0  0  0  0  0  0  0  0  0
  1  2  1  0
  2  3  2  0
  3  4  1  0
  4  5  1  0
  4  6  2  0
  6  7  1  0
  7  8  1  0
  8  9  1  0
  9 10  1  0
 10 11  2  0
 11 12  1  0
 12 13  2  0
 13 14  1  0
 14 15  2  0
 15 16  1  0
 16 17  2  0
 16 18  1  0
 13 19  1  0
 19 20  1  0
 20 21  1  0
  7 22  2  0
 22  2  1  0
 15 10  1  0
 21 12  1  0
M  CHG  2  16   1  18  -1
M  END
>  <zinc_id>  (1) 
ZINC000000437528

>  <smiles>  (1) 
Cc1cc(C)cc(NCc2cc3c(cc2[N+](=O)[O-])OCO3)c1

$$$$
