
     RDKit          3D

 21 24  0  0  0  0  0  0  0  0999 V2000
    5.1116   -1.3972   -0.3659 O   0  0  0  0  0  0  0  0  0  0  0  0
    4.3155   -0.2618   -0.2258 C   0  0  0  0  0  0  0  0  0  0  0  0
    4.9237    0.9852   -0.1711 C   0  0  0  0  0  0  0  0  0  0  0  0
    4.1093    2.0955   -0.0318 C   0  0  0  0  0  0  0  0  0  0  0  0
    2.7444    1.9406    0.0476 C   0  0  0  0  0  0  0  0  0  0  0  0
    2.1232    0.7157   -0.0045 C   0  0  0  0  0  0  0  0  0  0  0  0
    0.7262    0.6328    0.0825 N   0  0  0  0  0  0  0  0  0  0  0  0
    0.0117   -0.5934    0.0366 C   0  0  0  0  0  0  0  0  0  0  0  0
    0.7172   -1.7065   -0.0956 N   0  0  0  0  0  0  0  0  0  0  0  0
    0.2026   -2.9346   -0.1551 C   0  0  0  0  0  0  0  0  0  0  0  0
   -1.1343   -3.0314   -0.0731 N   0  0  0  0  0  0  0  0  0  0  0  0
   -1.8865   -1.9082    0.0630 C   0  0  0  0  0  0  0  0  0  0  0  0
   -3.5884   -1.6487    0.1965 S   0  0  0  0  0  0  0  0  0  0  0  0
   -3.5875    0.0531    0.3265 C   0  0  0  0  0  0  0  0  0  0  0  0
   -2.2622    0.3625    0.2615 C   0  0  0  0  0  0  0  0  0  0  0  0
   -1.3893   -0.6407    0.1266 C   0  0  0  0  0  0  0  0  0  0  0  0
   -2.0343    1.8622    0.3612 C   0  0  0  0  0  0  0  0  0  0  0  0
   -2.9835    2.4585   -0.6566 C   0  0  0  0  0  0  0  0  0  0  0  0
   -4.3640    2.3883   -0.0526 C   0  0  0  0  0  0  0  0  0  0  0  0
   -4.7011    1.0281    0.4751 C   0  0  0  0  0  0  0  0  0  0  0  0
    2.9458   -0.4000   -0.1448 C   0  0  0  0  0  0  0  0  0  0  0  0
  1  2  1  0
  2  3  2  0
  3  4  1  0
  4  5  2  0
  5  6  1  0
  6  7  1  0
  7  8  1  0
  8  9  2  0
  9 10  1  0
 10 11  2  0
 11 12  1  0
 12 13  1  0
 13 14  1  0
 14 15  2  0
 15 16  1  0
 15 17  1  0
 17 18  1  0
 18 19  1  0
 19 20  1  0
  6 21  2  0
 21  2  1  0
 16  8  1  0
 16 12  2  0
 20 14  1  0
M  END
>  <zinc_id>  (1) 
ZINC000000250228

>  <smiles>  (1) 
Oc1cccc(Nc2ncnc3sc4c(c23)CCCC4)c1

$$$$
