
     RDKit          3D

 20 22  0  0  0  0  0  0  0  0999 V2000
   -1.2755   -0.6836    3.1461 C   0  0  0  0  0  0  0  0  0  0  0  0
   -1.2945   -0.2379    1.7320 C   0  0  0  0  0  0  0  0  0  0  0  0
   -0.1302   -0.2762    0.9588 C   0  0  0  0  0  0  0  0  0  0  0  0
   -0.1496    0.1382   -0.3546 C   0  0  0  0  0  0  0  0  0  0  0  0
    1.0327    0.0909   -1.1124 N   0  0  0  0  0  0  0  0  0  0  0  0
    2.2766   -0.3662   -0.6040 C   0  0  0  0  0  0  0  0  0  0  0  0
    3.4206   -0.4013   -1.3714 C   0  0  0  0  0  0  0  0  0  0  0  0
    4.6199   -0.8552   -0.8389 C   0  0  0  0  0  0  0  0  0  0  0  0
    4.7039   -1.2861    0.4783 C   0  0  0  0  0  0  0  0  0  0  0  0
    3.5468   -1.2428    1.2295 C   0  0  0  0  0  0  0  0  0  0  0  0
    3.5743   -1.6679    2.5713 O   0  0  0  0  0  0  0  0  0  0  0  0
    2.3472   -0.7917    0.7061 C   0  0  0  0  0  0  0  0  0  0  0  0
   -1.3391    0.5865   -0.8765 C   0  0  0  0  0  0  0  0  0  0  0  0
   -1.4272    1.0171   -2.1890 C   0  0  0  0  0  0  0  0  0  0  0  0
   -2.6257    1.4703   -2.7199 C   0  0  0  0  0  0  0  0  0  0  0  0
   -3.7431    1.4956   -1.9412 C   0  0  0  0  0  0  0  0  0  0  0  0
   -3.7029    1.0809   -0.6426 C   0  0  0  0  0  0  0  0  0  0  0  0
   -4.8976    1.0884    0.2524 C   0  0  0  0  0  0  0  0  0  0  0  0
   -2.5056    0.6316   -0.1235 C   0  0  0  0  0  0  0  0  0  0  0  0
   -2.4306    0.2095    1.1718 N   0  0  0  0  0  0  0  0  0  0  0  0
  1  2  1  0
  2  3  2  0
  3  4  1  0
  4  5  1  0
  5  6  1  0
  6  7  2  0
  7  8  1  0
  8  9  2  0
  9 10  1  0
 10 11  1  0
 10 12  2  0
  4 13  2  0
 13 14  1  0
 14 15  2  0
 15 16  1  0
 16 17  2  0
 17 18  1  0
 17 19  1  0
 19 20  2  0
 20  2  1  0
 12  6  1  0
 19 13  1  0
M  END
>  <zinc_id>  (1) 
ZINC000000145938

>  <smiles>  (1) 
Cc1cc(Nc2cccc(O)c2)c2cccc(C)c2n1

$$$$
