
     RDKit          3D

 19 20  0  0  0  0  0  0  0  0999 V2000
   -5.4489   -2.2320   -1.0180 C   0  0  0  0  0  0  0  0  0  0  0  0
   -4.5124   -1.1778   -0.5296 C   0  0  0  0  0  0  0  0  0  0  0  0
   -3.1523   -1.2400   -0.5368 C   0  0  0  0  0  0  0  0  0  0  0  0
   -2.6087   -0.0296    0.0158 C   0  0  0  0  0  0  0  0  0  0  0  0
   -1.2459    0.1569    0.1205 N   0  0  0  0  0  0  0  0  0  0  0  0
   -0.4637    1.1446    0.5767 C   0  0  0  0  0  0  0  0  0  0  0  0
   -1.0163    2.5482    1.1996 S   0  0  0  0  0  0  0  0  0  0  0  0
    0.9974    1.0714    0.5660 N   0  0  0  0  0  0  0  0  0  0  0  0
    1.6595   -0.0599    0.0673 C   0  0  0  0  0  0  0  0  0  0  0  0
    0.9667   -1.0122   -0.3716 O   0  0  0  0  0  0  0  0  0  0  0  0
    3.1190   -0.1880    0.0319 C   0  0  0  0  0  0  0  0  0  0  0  0
    3.7231   -1.3215   -0.4688 C   0  0  0  0  0  0  0  0  0  0  0  0
    5.1039   -1.4546   -0.5077 C   0  0  0  0  0  0  0  0  0  0  0  0
    5.8891   -0.4255   -0.0326 C   0  0  0  0  0  0  0  0  0  0  0  0
    5.3070    0.7312    0.4789 C   0  0  0  0  0  0  0  0  0  0  0  0
    3.9419    0.8152    0.4959 C   0  0  0  0  0  0  0  0  0  0  0  0
   -3.7083    0.6691    0.3134 N   0  0  0  0  0  0  0  0  0  0  0  0
   -3.7287    1.9972    0.9103 C   0  0  0  0  0  0  0  0  0  0  0  0
   -4.8225    0.0071   -0.0014 N   0  0  0  0  0  0  0  0  0  0  0  0
  1  2  1  0
  2  3  1  0
  3  4  2  0
  4  5  1  0
  5  6  1  0
  6  7  2  0
  6  8  1  0
  8  9  1  0
  9 10  2  0
  9 11  1  0
 11 12  2  0
 12 13  1  0
 13 14  2  0
 14 15  1  0
 15 16  2  0
  4 17  1  0
 17 18  1  0
 17 19  1  0
 19  2  2  0
 16 11  1  0
M  END
>  <zinc_id>  (1) 
ZINC000000165974

>  <smiles>  (1) 
Cc1cc(NC(=S)NC(=O)c2ccccc2)n(C)n1

$$$$
