
     RDKit          3D

 20 23  0  0  0  0  0  0  0  0999 V2000
   -0.8211    2.6654    0.3001 N   0  0  0  0  0  0  0  0  0  0  0  0
   -0.3651    1.3212    0.3389 C   0  0  0  0  0  0  0  0  0  0  0  0
    0.8775    1.1095    0.7345 N   0  0  0  0  0  0  0  0  0  0  0  0
    1.4462   -0.0811    0.8236 C   0  0  0  0  0  0  0  0  0  0  0  0
    2.8376   -0.3337    1.2653 C   0  0  0  0  0  0  0  0  0  0  0  0
    3.7874   -0.3133    0.0900 C   0  0  0  0  0  0  0  0  0  0  0  0
    4.0797   -1.4118   -0.6085 C   0  0  0  0  0  0  0  0  0  0  0  0
    4.9482   -1.2899   -1.6515 C   0  0  0  0  0  0  0  0  0  0  0  0
    5.3381    0.3671   -1.6315 S   0  0  0  0  0  0  0  0  0  0  0  0
    4.3885    0.8516   -0.3026 C   0  0  0  0  0  0  0  0  0  0  0  0
    0.6694   -1.1409    0.4761 N   0  0  0  0  0  0  0  0  0  0  0  0
   -0.6221   -0.9780    0.0602 C   0  0  0  0  0  0  0  0  0  0  0  0
   -1.8635   -2.0357   -0.4417 S   0  0  0  0  0  0  0  0  0  0  0  0
   -3.0894   -0.8914   -0.7534 C   0  0  0  0  0  0  0  0  0  0  0  0
   -2.4838    0.2989   -0.4519 C   0  0  0  0  0  0  0  0  0  0  0  0
   -1.2058    0.2527   -0.0306 C   0  0  0  0  0  0  0  0  0  0  0  0
   -3.4221    1.4737   -0.6653 C   0  0  0  0  0  0  0  0  0  0  0  0
   -4.6594    1.1833    0.1224 C   0  0  0  0  0  0  0  0  0  0  0  0
   -5.3171   -0.1212   -0.2440 C   0  0  0  0  0  0  0  0  0  0  0  0
   -4.5231   -0.9265   -1.2333 C   0  0  0  0  0  0  0  0  0  0  0  0
  1  2  1  0
  2  3  2  0
  3  4  1  0
  4  5  1  0
  5  6  1  0
  6  7  1  0
  7  8  2  0
  8  9  1  0
  9 10  1  0
  4 11  2  0
 11 12  1  0
 12 13  1  0
 13 14  1  0
 14 15  2  0
 15 16  1  0
 15 17  1  0
 17 18  1  0
 18 19  1  0
 19 20  1  0
 16  2  1  0
 10  6  2  0
 16 12  2  0
 20 14  1  0
M  END
>  <zinc_id>  (1) 
ZINC000000185169

>  <smiles>  (1) 
Nc1nc(Cc2ccsc2)nc2sc3c(c12)CCCC3

$$$$
