
     RDKit          3D

 20 22  0  0  0  0  0  0  0  0999 V2000
    0.6452    0.1891   -0.4542 O   0  0  0  0  0  0  0  0  0  0  0  0
    0.7800   -0.5820    0.5311 C   0  0  0  0  0  0  0  0  0  0  0  0
    2.1250   -1.1149    0.9265 C   0  0  0  0  0  0  0  0  0  0  0  0
    3.1795   -0.6023    0.0106 C   0  0  0  0  0  0  0  0  0  0  0  0
    3.8518    0.5745    0.2705 C   0  0  0  0  0  0  0  0  0  0  0  0
    4.8332    1.0723   -0.5613 C   0  0  0  0  0  0  0  0  0  0  0  0
    5.1862    0.3955   -1.7101 C   0  0  0  0  0  0  0  0  0  0  0  0
    6.1777    0.8925   -2.5563 O   0  0  0  0  0  0  0  0  0  0  0  0
    4.5217   -0.7828   -1.9821 C   0  0  0  0  0  0  0  0  0  0  0  0
    3.5415   -1.2709   -1.1422 C   0  0  0  0  0  0  0  0  0  0  0  0
   -0.3973   -0.9208    1.2461 N   0  0  0  0  0  0  0  0  0  0  0  0
   -1.6614   -0.4061    0.8560 C   0  0  0  0  0  0  0  0  0  0  0  0
   -1.7332    0.4315   -0.2312 C   0  0  0  0  0  0  0  0  0  0  0  0
   -2.9343    0.9712   -0.6685 C   0  0  0  0  0  0  0  0  0  0  0  0
   -4.0976    0.6636    0.0022 C   0  0  0  0  0  0  0  0  0  0  0  0
   -4.0381   -0.1706    1.0878 C   0  0  0  0  0  0  0  0  0  0  0  0
   -2.8279   -0.6996    1.5089 C   0  0  0  0  0  0  0  0  0  0  0  0
   -5.3900   -0.3695    1.6581 C   0  0  0  0  0  0  0  0  0  0  0  0
   -6.2703    0.6303    0.9525 C   0  0  0  0  0  0  0  0  0  0  0  0
   -5.4919    1.0991   -0.2537 C   0  0  0  0  0  0  0  0  0  0  0  0
  1  2  2  0
  2  3  1  0
  3  4  1  0
  4  5  2  0
  5  6  1  0
  6  7  2  0
  7  8  1  0
  7  9  1  0
  9 10  2  0
  2 11  1  0
 11 12  1  0
 12 13  2  0
 13 14  1  0
 14 15  2  0
 15 16  1  0
 16 17  2  0
 16 18  1  0
 18 19  1  0
 19 20  1  0
 10  4  1  0
 17 12  1  0
 20 15  1  0
M  END
>  <zinc_id>  (1) 
ZINC000000168076

>  <smiles>  (1) 
O=C(Cc1ccc(O)cc1)Nc1ccc2c(c1)CCC2

$$$$
