
     RDKit          3D

 21 22  0  0  0  0  0  0  0  0999 V2000
    5.1410    1.9590    1.2805 C   0  0  0  0  0  0  0  0  0  0  0  0
    4.6658    0.7604    0.5432 C   0  0  0  0  0  0  0  0  0  0  0  0
    5.4835   -0.1998    0.0130 C   0  0  0  0  0  0  0  0  0  0  0  0
    4.9505   -1.2861   -0.6608 C   0  0  0  0  0  0  0  0  0  0  0  0
    3.5627   -1.4084   -0.8040 C   0  0  0  0  0  0  0  0  0  0  0  0
    2.9691   -2.5564   -1.5181 C   0  0  0  0  0  0  0  0  0  0  0  0
    2.7353   -0.4449   -0.2723 C   0  0  0  0  0  0  0  0  0  0  0  0
    1.3311   -0.5805   -0.4246 N   0  0  0  0  0  0  0  0  0  0  0  0
    0.4345    0.3927    0.1075 C   0  0  0  0  0  0  0  0  0  0  0  0
    0.9271    1.3680    0.7119 O   0  0  0  0  0  0  0  0  0  0  0  0
   -1.0045    0.2121   -0.0734 C   0  0  0  0  0  0  0  0  0  0  0  0
   -1.5291   -0.8737   -0.7392 C   0  0  0  0  0  0  0  0  0  0  0  0
   -2.8906   -1.0290   -0.9017 C   0  0  0  0  0  0  0  0  0  0  0  0
   -3.7873   -0.1046   -0.4051 C   0  0  0  0  0  0  0  0  0  0  0  0
   -5.1889   -0.2882   -0.5867 N   0  0  0  0  0  4  0  0  0  0  0  0
   -5.6726   -0.9225   -1.5409 O   0  0  0  0  0  0  0  0  0  0  0  0
   -6.0803    0.2460    0.3140 O   0  0  0  0  0  1  0  0  0  0  0  0
   -3.2709    0.9857    0.2630 C   0  0  0  0  0  0  0  0  0  0  0  0
   -4.1775    2.0215    0.8248 C   0  0  0  0  0  0  0  0  0  0  0  0
   -1.8974    1.1369    0.4238 C   0  0  0  0  0  0  0  0  0  0  0  0
    3.2986    0.6117    0.3853 C   0  0  0  0  0  0  0  0  0  0  0  0
  1  2  1  0
  2  3  2  0
  3  4  1  0
  4  5  2  0
  5  6  1  0
  5  7  1  0
  7  8  1  0
  8  9  1  0
  9 10  2  0
  9 11  1  0
 11 12  2  0
 12 13  1  0
 13 14  2  0
 14 15  1  0
 15 16  2  0
 15 17  1  0
 14 18  1  0
 18 19  1  0
 18 20  2  0
  7 21  2  0
 21  2  1  0
 20 11  1  0
M  CHG  2  15   1  17  -1
M  END
>  <zinc_id>  (1) 
ZINC000000437811

>  <smiles>  (1) 
Cc1ccc(C)c(NC(=O)c2ccc([N+](=O)[O-])c(C)c2)c1

$$$$
