
     RDKit          3D

 19 21  0  0  0  0  0  0  0  0999 V2000
   -2.2018   -0.0720    2.8320 C   0  0  0  0  0  0  0  0  0  0  0  0
   -2.5020    0.1841    1.3788 C   0  0  0  0  0  0  0  0  0  0  0  0
   -3.7047    0.4290    1.0051 C   0  0  0  0  0  0  0  0  0  0  0  0
   -4.0824    0.6887   -0.3877 C   0  0  0  0  0  0  0  0  0  0  0  0
   -5.1515   -0.2749   -0.8627 C   0  0  0  0  0  0  0  0  0  0  0  0
   -4.6406    2.1179   -0.4847 C   0  0  0  0  0  0  0  0  0  0  0  0
   -2.9363    0.6320   -1.2641 N   0  0  0  0  0  0  0  0  0  0  0  0
   -1.7525    0.3936   -0.9145 C   0  0  0  0  0  0  0  0  0  0  0  0
   -0.1933    0.2665   -1.7582 S   0  0  0  0  0  0  0  0  0  0  0  0
    0.7422   -0.0976   -0.2564 C   0  0  0  0  0  0  0  0  0  0  0  0
    2.2021   -0.3367   -0.2082 C   0  0  0  0  0  0  0  0  0  0  0  0
    2.9201   -0.2832   -1.3780 C   0  0  0  0  0  0  0  0  0  0  0  0
    4.2832   -0.4937   -1.4225 C   0  0  0  0  0  0  0  0  0  0  0  0
    4.9701   -0.7697   -0.2592 C   0  0  0  0  0  0  0  0  0  0  0  0
    6.3897   -0.9945   -0.2656 N   0  0  0  0  0  0  0  0  0  0  0  0
    4.2740   -0.8293    0.9289 C   0  0  0  0  0  0  0  0  0  0  0  0
    2.8938   -0.6117    0.9428 C   0  0  0  0  0  0  0  0  0  0  0  0
   -0.0999   -0.0950    0.6603 N   0  0  0  0  0  0  0  0  0  0  0  0
   -1.4101    0.1465    0.4295 N   0  0  0  0  0  0  0  0  0  0  0  0
  1  2  1  0
  2  3  2  0
  3  4  1  0
  4  5  1  0
  4  6  1  0
  4  7  1  0
  7  8  2  0
  8  9  1  0
  9 10  1  0
 10 11  1  0
 11 12  2  0
 12 13  1  0
 13 14  2  0
 14 15  1  0
 14 16  1  0
 16 17  2  0
 10 18  2  0
 18 19  1  0
 19  2  1  0
 19  8  1  0
 17 11  1  0
M  END
>  <zinc_id>  (1) 
ZINC000001626331

>  <smiles>  (1) 
CC1=CC(C)(C)N=C2SC(c3ccc(N)cc3)=NN12

$$$$
