
     RDKit          3D

 21 23  0  0  0  0  0  0  0  0999 V2000
   -2.7311    3.8358    0.0190 C   0  0  0  0  0  0  0  0  0  0  0  0
   -2.9737    2.5469    0.2187 C   0  0  0  0  0  0  0  0  0  0  0  0
   -2.2895    1.8256    1.3226 C   0  0  0  0  0  0  0  0  0  0  0  0
   -1.4965    0.7274    0.8047 N   0  0  0  0  0  0  0  0  0  0  0  0
   -1.9731   -0.5238    0.6382 C   0  0  0  0  0  0  0  0  0  0  0  0
   -3.2882   -0.9755    0.9289 N   0  0  0  0  0  0  0  0  0  0  0  0
   -0.9859   -1.3411    0.1310 C   0  0  0  0  0  0  0  0  0  0  0  0
   -1.0732   -2.7583   -0.1965 C   0  0  0  0  0  0  0  0  0  0  0  0
   -0.0945   -3.3939   -0.6557 O   0  0  0  0  0  0  0  0  0  0  0  0
   -2.2748   -3.3966    0.0128 O   0  0  0  0  0  0  0  0  0  0  0  0
   -2.5014   -4.7660   -0.2600 C   0  0  0  0  0  0  0  0  0  0  0  0
    0.1403   -0.5564   -0.0185 C   0  0  0  0  0  0  0  0  0  0  0  0
    1.3883   -0.7985   -0.4621 N   0  0  0  0  0  0  0  0  0  0  0  0
    2.3305    0.1781   -0.5071 C   0  0  0  0  0  0  0  0  0  0  0  0
    3.6152   -0.0652   -0.9622 C   0  0  0  0  0  0  0  0  0  0  0  0
    4.5538    0.9597   -0.9941 C   0  0  0  0  0  0  0  0  0  0  0  0
    4.2252    2.2329   -0.5750 C   0  0  0  0  0  0  0  0  0  0  0  0
    2.9349    2.4386   -0.1276 C   0  0  0  0  0  0  0  0  0  0  0  0
    1.9843    1.4391   -0.0856 C   0  0  0  0  0  0  0  0  0  0  0  0
    0.7200    1.6831    0.3633 N   0  0  0  0  0  0  0  0  0  0  0  0
   -0.2106    0.7082    0.4053 C   0  0  0  0  0  0  0  0  0  0  0  0
  1  2  2  0
  2  3  1  0
  3  4  1  0
  4  5  1  0
  5  6  1  0
  5  7  2  0
  7  8  1  0
  8  9  2  0
  8 10  1  0
 10 11  1  0
  7 12  1  0
 12 13  2  0
 13 14  1  0
 14 15  2  0
 15 16  1  0
 16 17  2  0
 17 18  1  0
 18 19  2  0
 19 20  1  0
 20 21  2  0
 21  4  1  0
 21 12  1  0
 19 14  1  0
M  END
>  <zinc_id>  (1) 
ZINC000000090076

>  <smiles>  (1) 
C=CCn1c(N)c(C(=O)OC)c2nc3ccccc3nc21

$$$$
