
     RDKit          3D

 23 26  0  0  0  0  0  0  0  0999 V2000
    3.6528    1.8407    0.1805 C   0  0  0  0  0  0  0  0  0  0  0  0
    2.5330    0.9585   -0.3606 C   0  0  0  0  0  0  0  0  0  0  0  0
    1.6289    1.7279   -1.2873 C   0  0  0  0  0  0  0  0  0  0  0  0
    3.0817   -0.2382   -0.9312 C   0  0  0  0  0  0  0  0  0  0  0  0
    4.1892   -0.2708   -1.4530 O   0  0  0  0  0  0  0  0  0  0  0  0
    2.2136   -1.4552   -0.8505 C   0  0  0  0  0  0  0  0  0  0  0  0
    0.8233   -0.9751   -0.7753 C   0  0  0  0  0  0  0  0  0  0  0  0
    0.4186   -0.0410    0.2450 C   0  0  1  0  0  0  0  0  0  0  0  0
   -0.3018    1.0870   -0.2789 O   0  0  0  0  0  0  0  0  0  0  0  0
   -1.5992    0.8465   -0.7248 C   0  0  0  0  0  0  0  0  0  0  0  0
   -2.1037    1.3434   -1.9102 C   0  0  0  0  0  0  0  0  0  0  0  0
   -3.3974    1.0721   -2.3019 C   0  0  0  0  0  0  0  0  0  0  0  0
   -4.1639    0.2895   -1.4686 C   0  0  0  0  0  0  0  0  0  0  0  0
   -3.6929   -0.2175   -0.2877 C   0  0  0  0  0  0  0  0  0  0  0  0
   -4.4324   -1.0088    0.5783 O   0  0  0  0  0  0  0  0  0  0  0  0
   -2.3890    0.0689    0.0852 C   0  0  0  0  0  0  0  0  0  0  0  0
   -1.8245   -0.4368    1.3472 C   0  0  0  0  0  0  0  0  0  0  0  0
   -0.3648   -0.7445    1.3192 C   0  0  1  0  0  0  0  0  0  0  0  0
   -0.2453   -2.2669    1.1434 C   0  0  0  0  0  0  0  0  0  0  0  0
    0.2655   -0.4658    2.6873 C   0  0  0  0  0  0  0  0  0  0  0  0
    1.6516   -1.0634    2.6725 C   0  0  0  0  0  0  0  0  0  0  0  0
    2.3811   -0.7210    1.4005 C   0  0  0  0  0  0  0  0  0  0  0  0
    1.6755    0.6706    0.9709 C   0  0  1  0  0  0  0  0  0  0  0  0
  1  2  1  0
  2  3  1  0
  2  4  1  0
  4  5  2  0
  4  6  1  0
  6  7  1  0
  8  7  1  6
  8  9  1  0
  9 10  1  0
 10 11  2  0
 11 12  1  0
 12 13  2  0
 13 14  1  0
 14 15  1  0
 14 16  2  0
 16 17  1  0
 17 18  1  0
 18 19  1  6
 18 20  1  0
 20 21  1  0
 21 22  1  0
 23 22  1  1
 23  2  1  0
 18  8  1  0
 23  8  1  0
 16 10  1  0
M  END
>  <zinc_id>  (1) 
ZINC000000017354

>  <smiles>  (1) 
CC1(C)C(=O)CC[C@@]23Oc4cccc(O)c4C[C@]2(C)CCC[C@@H]13

$$$$
