
     RDKit          3D

 20 21  0  0  0  0  0  0  0  0999 V2000
   -3.0779   -3.1707   -0.0616 C   0  0  0  0  0  0  0  0  0  0  0  0
   -2.7138   -1.7308   -0.2446 C   0  0  0  0  0  0  0  0  0  0  0  0
   -1.3991   -1.3363   -0.1043 C   0  0  0  0  0  0  0  0  0  0  0  0
   -1.0158   -0.0190   -0.2640 C   0  0  0  0  0  0  0  0  0  0  0  0
    0.3436    0.3847   -0.1183 N   0  0  0  0  0  0  0  0  0  0  0  0
    1.3378   -0.5695    0.1971 C   0  0  0  0  0  0  0  0  0  0  0  0
    0.9639   -1.7625    0.3380 O   0  0  0  0  0  0  0  0  0  0  0  0
    2.7459   -0.2370    0.3623 C   0  0  0  0  0  0  0  0  0  0  0  0
    3.1712    1.0545    0.2138 C   0  0  0  0  0  0  0  0  0  0  0  0
    4.5157    1.3422    0.3764 C   0  0  0  0  0  0  0  0  0  0  0  0
    5.4446    0.3696    0.6837 C   0  0  0  0  0  0  0  0  0  0  0  0
    5.0133   -0.9214    0.8312 C   0  0  0  0  0  0  0  0  0  0  0  0
    3.6626   -1.2081    0.6675 C   0  0  0  0  0  0  0  0  0  0  0  0
   -1.9822    0.9173   -0.5717 C   0  0  0  0  0  0  0  0  0  0  0  0
   -1.5610    2.3147   -0.7389 C   0  0  0  0  0  0  0  0  0  0  0  0
   -2.7143    3.2222   -1.0679 C   0  0  0  0  0  0  0  0  0  0  0  0
   -0.7252    2.8271    0.4099 C   0  0  0  0  0  0  0  0  0  0  0  0
   -3.2990    0.5026   -0.7090 C   0  0  0  0  0  0  0  0  0  0  0  0
   -3.6877   -0.8096   -0.5510 C   0  0  0  0  0  0  0  0  0  0  0  0
   -5.0227   -1.1701   -0.7002 O   0  0  0  0  0  0  0  0  0  0  0  0
  1  2  1  0
  2  3  2  0
  3  4  1  0
  4  5  1  0
  5  6  1  0
  6  7  2  0
  6  8  1  0
  8  9  2  0
  9 10  1  0
 10 11  2  0
 11 12  1  0
 12 13  2  0
  4 14  2  0
 14 15  1  0
 15 16  1  0
 15 17  1  0
 14 18  1  0
 18 19  2  0
 19 20  1  0
 19  2  1  0
 13  8  1  0
M  END
>  <zinc_id>  (1) 
ZINC000000092361

>  <smiles>  (1) 
Cc1cc(NC(=O)c2ccccc2)c(C(C)C)cc1O

$$$$
