
     RDKit          3D

 19 20  0  0  0  0  0  0  0  0999 V2000
    1.4825    0.1762    2.1453 C   0  0  0  0  0  0  0  0  0  0  0  0
    1.8180    0.4218    0.6065 C   0  0  2  0  0  0  0  0  0  0  0  0
    2.5233   -1.1727    0.2949 C   0  0  0  0  0  0  0  0  0  0  0  0
    2.0896   -1.0914   -0.0653 C   0  0  0  0  0  0  0  0  0  0  0  0
    0.9572   -1.3388   -0.8798 N   0  0  0  0  0  0  0  0  0  0  0  0
   -0.2145   -0.6642   -0.7340 N   0  0  0  0  0  0  0  0  0  0  0  0
   -1.3263   -1.2404   -0.1321 C   0  0  0  0  0  0  0  0  0  0  0  0
   -1.2380   -2.4316    0.2776 O   0  0  0  0  0  0  0  0  0  0  0  0
   -2.5709   -0.4958    0.0311 C   0  0  0  0  0  0  0  0  0  0  0  0
   -2.6517    0.8318   -0.3225 C   0  0  0  0  0  0  0  0  0  0  0  0
   -3.8204    1.5530   -0.1615 C   0  0  0  0  0  0  0  0  0  0  0  0
   -4.9387    0.9448    0.3637 C   0  0  0  0  0  0  0  0  0  0  0  0
   -4.8433   -0.4033    0.7203 C   0  0  0  0  0  0  0  0  0  0  0  0
   -3.6733   -1.1011    0.5508 C   0  0  0  0  0  0  0  0  0  0  0  0
    2.8492   -0.0659    0.2481 C   0  0  0  0  0  0  0  0  0  0  0  0
    3.3176    1.2828    0.2534 C   0  0  0  0  0  0  0  0  0  0  0  0
    4.3773    1.4817   -0.8600 C   0  0  0  0  0  0  0  0  0  0  0  0
    2.4333    2.5115    0.2315 C   0  0  0  0  0  0  0  0  0  0  0  0
    3.4291    0.8014    0.9459 C   0  0  0  0  0  0  0  0  0  0  0  0
  2  1  1  1
  2  3  1  0
  3  4  1  0
  4  5  1  0
  5  6  1  0
  6  7  1  0
  7  8  2  0
  7  9  1  0
  9 10  2  0
 10 11  1  0
 11 12  2  0
 12 13  1  0
 13 14  2  0
  4 15  2  0
 15 16  1  0
 16 17  1  0
 16 18  1  0
 16 19  1  0
 19  2  1  0
 14  9  1  0
M  END
>  <zinc_id>  (1) 
ZINC000003239532

>  <smiles>  (1) 
C[C@@H]1CC(NNC(=O)c2ccccc2)=CC(C)(C)C1

$$$$
