
     RDKit          3D

 19 21  0  0  0  0  0  0  0  0999 V2000
    2.0603   -0.2432   -2.5224 C   0  0  0  0  0  0  0  0  0  0  0  0
    1.8295    0.9225   -1.5617 C   0  0  0  0  0  0  0  0  0  0  0  0
    3.0516    1.8518   -1.9223 C   0  0  0  0  0  0  0  0  0  0  0  0
    1.9782    0.5149   -0.1571 C   0  0  0  0  0  0  0  0  0  0  0  0
    2.9737    0.8133    0.6917 N   0  0  0  0  0  0  0  0  0  0  0  0
    2.5868    0.3496    1.9236 C   0  0  0  0  0  0  0  0  0  0  0  0
    3.2780    0.3812    3.1699 N   0  0  0  0  0  0  0  0  0  0  0  0
    1.3873   -0.2002    1.7982 O   0  0  0  0  0  0  0  0  0  0  0  0
    1.0141   -0.1201    0.5628 C   0  0  0  0  0  0  0  0  0  0  0  0
   -0.2202   -0.6534    0.0554 C   0  0  0  0  0  0  0  0  0  0  0  0
   -0.0850   -1.9559   -0.4911 C   0  0  0  0  0  0  0  0  0  0  0  0
   -1.1497   -2.6689   -1.0117 C   0  0  0  0  0  0  0  0  0  0  0  0
   -2.4077   -2.0569   -0.9797 C   0  0  0  0  0  0  0  0  0  0  0  0
   -2.5504   -0.7765   -0.4453 C   0  0  0  0  0  0  0  0  0  0  0  0
   -3.7770   -0.1793   -0.4230 C   0  0  0  0  0  0  0  0  0  0  0  0
   -3.9739    1.0634    0.0723 C   0  0  0  0  0  0  0  0  0  0  0  0
   -2.8907    1.7993    0.5890 C   0  0  0  0  0  0  0  0  0  0  0  0
   -1.6546    1.2240    0.5794 C   0  0  0  0  0  0  0  0  0  0  0  0
   -1.4503   -0.0655    0.0720 C   0  0  0  0  0  0  0  0  0  0  0  0
  1  2  1  0
  2  3  1  0
  2  4  1  0
  4  5  1  0
  5  6  2  0
  6  7  1  0
  6  8  1  0
  8  9  1  0
  9 10  1  0
 10 11  2  0
 11 12  1  0
 12 13  2  0
 13 14  1  0
 14 15  2  0
 15 16  1  0
 16 17  2  0
 17 18  1  0
 18 19  2  0
  9  4  2  0
 19 10  1  0
 19 14  1  0
M  END
>  <zinc_id>  (1) 
ZINC000003817444

>  <smiles>  (1) 
CC(C)c1nc(N)oc1-c1cccc2ccccc12

$$$$
