
     RDKit          3D

 21 23  0  0  0  0  0  0  0  0999 V2000
   -0.6514   -1.5118   -2.6589 O   0  0  0  0  0  0  0  0  0  0  0  0
    0.1067   -0.9015   -1.8302 C   0  0  0  0  0  0  0  0  0  0  0  0
    1.4645   -1.2481   -1.5664 N   0  0  0  0  0  0  0  0  0  0  0  0
    2.0091   -0.3511   -0.5855 C   0  0  0  0  0  0  0  0  0  0  0  0
    3.2535    0.3602   -1.0752 C   0  0  0  0  0  0  0  0  0  0  0  0
    4.5067   -0.1472   -0.4038 C   0  0  0  0  0  0  0  0  0  0  0  0
    4.7590    0.4857    0.9315 C   0  0  0  0  0  0  0  0  0  0  0  0
    3.5012    0.8024    1.6916 C   0  0  0  0  0  0  0  0  0  0  0  0
    2.5927   -0.3780    1.8561 C   0  0  0  0  0  0  0  0  0  0  0  0
    2.4347   -1.2011    0.6131 C   0  0  0  0  0  0  0  0  0  0  0  0
    0.9158    0.5685   -0.2514 C   0  0  0  0  0  0  0  0  0  0  0  0
    1.0325    1.5102    0.5975 O   0  0  0  0  0  0  0  0  0  0  0  0
   -0.2210    0.2141   -1.0188 N   0  0  0  0  0  0  0  0  0  0  0  0
   -1.4984    0.8644   -0.9920 C   0  0  0  0  0  0  0  0  0  0  0  0
   -2.4217    0.2894    0.0075 C   0  0  0  0  0  0  0  0  0  0  0  0
   -2.0760   -0.7659    0.8251 C   0  0  0  0  0  0  0  0  0  0  0  0
   -3.0027   -1.2584    1.7488 C   0  0  0  0  0  0  0  0  0  0  0  0
   -4.2432   -0.7118    1.8545 C   0  0  0  0  0  0  0  0  0  0  0  0
   -4.5968    0.3431    1.0413 C   0  0  0  0  0  0  0  0  0  0  0  0
   -3.6795    0.8439    0.1143 C   0  0  0  0  0  0  0  0  0  0  0  0
   -4.1857    2.1932   -0.8990 Cl  0  0  0  0  0  0  0  0  0  0  0  0
  1  2  2  0
  2  3  1  0
  3  4  1  0
  4  5  1  0
  5  6  1  0
  6  7  1  0
  7  8  1  0
  8  9  1  0
  9 10  1  0
  4 11  1  0
 11 12  2  0
 11 13  1  0
 13 14  1  0
 14 15  1  0
 15 16  2  0
 16 17  1  0
 17 18  2  0
 18 19  1  0
 19 20  2  0
 20 21  1  0
 13  2  1  0
 20 15  1  0
 10  4  1  0
M  END
>  <zinc_id>  (1) 
ZINC000003257738

>  <smiles>  (1) 
O=C1NC2(CCCCCC2)C(=O)N1Cc1ccccc1Cl

$$$$
