
     RDKit          3D

 19 20  0  0  0  0  0  0  0  0999 V2000
    5.9869    1.4797    0.3535 C   0  0  0  0  0  0  0  0  0  0  0  0
    4.8050    0.5694    0.2690 C   0  0  0  0  0  0  0  0  0  0  0  0
    3.5236    0.9713    0.5973 C   0  0  0  0  0  0  0  0  0  0  0  0
    2.4558    0.0768    0.4993 C   0  0  0  0  0  0  0  0  0  0  0  0
    2.6408   -1.2201    0.0775 C   0  0  0  0  0  0  0  0  0  0  0  0
    1.2664   -2.3521   -0.0414 S   0  0  0  0  0  0  0  0  0  0  0  0
   -0.2733   -1.5405    0.4522 C   0  0  0  0  0  0  0  0  0  0  0  0
   -0.6439   -0.4484   -0.5283 C   0  0  0  0  0  0  0  0  0  0  0  0
   -1.8746    0.2139   -0.1491 N   0  0  0  0  0  0  0  0  0  0  0  0
   -2.0200    1.3632    0.6892 C   0  0  0  0  0  0  0  0  0  0  0  0
   -1.0734    2.0035    1.2482 O   0  0  0  0  0  0  0  0  0  0  0  0
   -3.4200    1.6913    0.8069 N   0  0  0  0  0  0  0  0  0  0  0  0
   -4.0846    0.4056    0.5418 C   0  0  0  0  0  0  0  0  0  0  0  0
   -3.9275   -0.5022    1.7461 C   0  0  0  0  0  0  0  0  0  0  0  0
   -5.5092    0.5672    0.1319 C   0  0  0  0  0  0  0  0  0  0  0  0
   -3.2142   -0.1347   -0.5275 C   0  0  0  0  0  0  0  0  0  0  0  0
   -3.5083   -0.7740   -1.5756 O   0  0  0  0  0  0  0  0  0  0  0  0
    3.9122   -1.6339   -0.2528 C   0  0  0  0  0  0  0  0  0  0  0  0
    4.9583   -0.7358   -0.1502 C   0  0  0  0  0  0  0  0  0  0  0  0
  1  2  1  0
  2  3  2  0
  3  4  1  0
  4  5  2  0
  5  6  1  0
  6  7  1  0
  7  8  1  0
  8  9  1  0
  9 10  1  0
 10 11  2  0
 10 12  1  0
 12 13  1  0
 13 14  1  0
 13 15  1  0
 13 16  1  0
 16 17  2  0
  5 18  1  0
 18 19  2  0
 19  2  1  0
 16  9  1  0
M  END
>  <zinc_id>  (1) 
ZINC000000613887

>  <smiles>  (1) 
Cc1ccc(SCCN2C(=O)NC(C)(C)C2=O)cc1

$$$$
