
     RDKit          3D

 20 22  0  0  0  0  0  0  0  0999 V2000
    0.3371   -0.7489    2.5439 O   0  0  0  0  0  0  0  0  0  0  0  0
   -0.1851   -0.2408    1.5184 C   0  0  0  0  0  0  0  0  0  0  0  0
   -1.3980   -0.7422    1.0468 C   0  0  0  0  0  0  0  0  0  0  0  0
   -1.9686   -0.1837   -0.0775 C   0  0  0  0  0  0  0  0  0  0  0  0
   -3.2063   -0.6524   -0.6077 N   0  0  0  0  0  0  0  0  0  0  0  0
   -4.0162   -1.7325   -0.0761 C   0  0  0  0  0  0  0  0  0  0  0  0
   -5.4374   -1.4592   -0.5051 C   0  0  0  0  0  0  0  0  0  0  0  0
   -5.3287   -0.4902   -1.6531 C   0  0  0  0  0  0  0  0  0  0  0  0
   -3.8700   -0.1331   -1.7675 C   0  0  0  0  0  0  0  0  0  0  0  0
   -1.3140    0.8278   -0.6645 N   0  0  0  0  0  0  0  0  0  0  0  0
   -0.1317    1.2959   -0.1813 C   0  0  0  0  0  0  0  0  0  0  0  0
    0.4663    2.2466   -0.7478 O   0  0  0  0  0  0  0  0  0  0  0  0
    0.4550    0.7765    0.9124 N   0  0  0  0  0  0  0  0  0  0  0  0
    1.7241    1.3051    1.4015 C   0  0  0  0  0  0  0  0  0  0  0  0
    2.8759    0.6101    0.7984 C   0  0  0  0  0  0  0  0  0  0  0  0
    3.4116    1.0925   -0.3711 C   0  0  0  0  0  0  0  0  0  0  0  0
    4.4934    0.4913   -0.9944 C   0  0  0  0  0  0  0  0  0  0  0  0
    5.0746   -0.6276   -0.4511 C   0  0  0  0  0  0  0  0  0  0  0  0
    4.5546   -1.1259    0.7175 C   0  0  0  0  0  0  0  0  0  0  0  0
    3.4635   -0.5093    1.3348 C   0  0  0  0  0  0  0  0  0  0  0  0
  1  2  2  0
  2  3  1  0
  3  4  2  0
  4  5  1  0
  5  6  1  0
  6  7  1  0
  7  8  1  0
  8  9  1  0
  4 10  1  0
 10 11  1  0
 11 12  2  0
 11 13  1  0
 13 14  1  0
 14 15  1  0
 15 16  2  0
 16 17  1  0
 17 18  2  0
 18 19  1  0
 19 20  2  0
 13  2  1  0
 20 15  1  0
  9  5  1  0
M  END
>  <zinc_id>  (1) 
ZINC000001647451

>  <smiles>  (1) 
O=c1cc(N2CCCC2)[nH]c(=O)n1Cc1ccccc1

$$$$
