
     RDKit          3D

 21 23  0  0  0  0  0  0  0  0999 V2000
    5.8655   -0.7151   -0.2101 C   0  0  0  0  0  0  0  0  0  0  0  0
    5.0453    0.5069   -0.0160 C   0  0  0  0  0  0  0  0  0  0  0  0
    5.6675    1.2460    1.1895 C   0  0  0  0  0  0  0  0  0  0  0  0
    5.2152    1.4534   -1.1662 C   0  0  0  0  0  0  0  0  0  0  0  0
    3.7451    0.3220    0.4167 O   0  0  0  0  0  0  0  0  0  0  0  0
    2.7586   -0.3769   -0.2125 C   0  0  0  0  0  0  0  0  0  0  0  0
    3.1392   -0.8693   -1.2756 O   0  0  0  0  0  0  0  0  0  0  0  0
    1.5156   -0.5161    0.2647 N   0  0  0  0  0  0  0  0  0  0  0  0
    0.4539   -0.2228    1.4006 C   0  0  0  0  0  0  0  0  0  0  0  0
    0.2792    0.3222    2.4554 O   0  0  0  0  0  0  0  0  0  0  0  0
    0.0438   -1.0850    0.1351 C   0  0  1  0  0  0  0  0  0  0  0  0
   -0.4919    0.1953   -0.7794 C   0  0  0  0  0  0  0  0  0  0  0  0
   -1.9203   -0.0720   -1.0706 C   0  0  0  0  0  0  0  0  0  0  0  0
   -2.5109   -0.5086   -2.2289 C   0  0  0  0  0  0  0  0  0  0  0  0
   -3.8638   -0.6172   -2.0477 N   0  0  0  0  0  0  0  0  0  0  0  0
   -4.1745   -0.2573   -0.7832 C   0  0  0  0  0  0  0  0  0  0  0  0
   -5.3827   -0.1849   -0.0831 C   0  0  0  0  0  0  0  0  0  0  0  0
   -5.3080    0.2351    1.2224 C   0  0  0  0  0  0  0  0  0  0  0  0
   -4.1464    0.5745    1.8494 C   0  0  0  0  0  0  0  0  0  0  0  0
   -2.9626    0.4951    1.1364 C   0  0  0  0  0  0  0  0  0  0  0  0
   -2.9679    0.0748   -0.1968 C   0  0  0  0  0  0  0  0  0  0  0  0
  1  2  1  0
  2  3  1  0
  2  4  1  0
  2  5  1  0
  5  6  1  0
  6  7  2  0
  6  8  1  0
  8  9  1  0
  9 10  2  0
  9 11  1  0
 11 12  1  6
 12 13  1  0
 13 14  2  0
 14 15  1  0
 15 16  1  0
 16 17  2  0
 17 18  1  0
 18 19  2  0
 19 20  1  0
 20 21  2  0
 11  8  1  0
 21 13  1  0
 21 16  1  0
M  END
>  <zinc_id>  (1) 
ZINC000002510611

>  <smiles>  (1) 
CC(C)(C)OC(=O)N1C(=O)[C@H]1Cc1c[nH]c2ccccc12

$$$$
