
     RDKit          3D

 20 22  0  0  0  0  0  0  0  0999 V2000
    5.5786    0.0754   -0.3982 C   0  0  0  0  0  0  0  0  0  0  0  0
    5.3215   -0.9627    0.7009 C   0  0  0  0  0  0  0  0  0  0  0  0
    4.0278   -1.4873    0.4331 O   0  0  0  0  0  0  0  0  0  0  0  0
    2.9188   -0.6431    0.4219 C   0  0  0  0  0  0  0  0  0  0  0  0
    3.0003    0.7102    0.6616 C   0  0  0  0  0  0  0  0  0  0  0  0
    1.8618    1.4922    0.6358 C   0  0  0  0  0  0  0  0  0  0  0  0
    0.6099    0.9506    0.3709 C   0  0  0  0  0  0  0  0  0  0  0  0
   -0.4794    1.7271    0.3509 N   0  0  0  0  0  0  0  0  0  0  0  0
   -1.6834    1.1944    0.0942 C   0  0  0  0  0  0  0  0  0  0  0  0
   -2.8390    1.9472    0.0610 C   0  0  0  0  0  0  0  0  0  0  0  0
   -4.0669    1.3811   -0.2048 C   0  0  0  0  0  0  0  0  0  0  0  0
   -5.2542    2.2055   -0.2302 N   0  0  0  0  0  0  0  0  0  0  0  0
   -4.1620    0.0351   -0.4451 C   0  0  0  0  0  0  0  0  0  0  0  0
   -3.0396   -0.7419   -0.4206 C   0  0  0  0  0  0  0  0  0  0  0  0
   -1.8246   -0.1656   -0.1549 C   0  0  0  0  0  0  0  0  0  0  0  0
   -0.7073   -0.9544   -0.1332 C   0  0  0  0  0  0  0  0  0  0  0  0
   -0.7882   -2.3389   -0.3781 O   0  0  0  0  0  0  0  0  0  0  0  0
   -0.6625   -2.8449   -1.7095 C   0  0  0  0  0  0  0  0  0  0  0  0
    0.5104   -0.3995    0.1292 C   0  0  0  0  0  0  0  0  0  0  0  0
    1.6779   -1.1804    0.1593 C   0  0  0  0  0  0  0  0  0  0  0  0
  1  2  1  0
  2  3  1  0
  3  4  1  0
  4  5  2  0
  5  6  1  0
  6  7  2  0
  7  8  1  0
  8  9  2  0
  9 10  1  0
 10 11  2  0
 11 12  1  0
 11 13  1  0
 13 14  2  0
 14 15  1  0
 15 16  2  0
 16 17  1  0
 17 18  1  0
 16 19  1  0
 19 20  2  0
 20  4  1  0
 19  7  1  0
 15  9  1  0
M  END
>  <zinc_id>  (1) 
ZINC000003944975

>  <smiles>  (1) 
CCOc1ccc2nc3cc(N)ccc3c(OC)c2c1

$$$$
