
     RDKit          3D

 25 26  0  0  0  0  0  0  0  0999 V2000
   -6.8197   -2.3265   -0.7989 C   0  0  0  0  0  0  0  0  0  0  0  0
   -5.5599   -1.5648   -0.5865 C   0  0  0  0  0  0  0  0  0  0  0  0
   -4.3155   -2.1091   -0.8099 C   0  0  0  0  0  0  0  0  0  0  0  0
   -3.1660   -1.3719   -0.6026 C   0  0  0  0  0  0  0  0  0  0  0  0
   -3.2477   -0.0507   -0.1591 C   0  0  0  0  0  0  0  0  0  0  0  0
   -1.9952    0.6150    0.0193 N   0  0  0  0  0  0  0  0  0  0  0  0
   -1.0582    0.7463   -0.9947 C   0  0  0  0  0  0  0  0  0  0  0  0
   -0.1346    2.0141   -0.6509 C   0  0  2  0  0  0  0  0  0  0  0  0
    1.0682    1.1949   -0.0626 C   0  0  0  0  0  0  0  0  0  0  0  0
    1.4925    1.3277    1.0731 O   0  0  0  0  0  0  0  0  0  0  0  0
    1.6876    0.2808   -0.8444 O   0  0  0  0  0  0  0  0  0  0  0  0
    2.7200   -0.5571   -0.6413 C   0  0  0  0  0  0  0  0  0  0  0  0
    4.0389   -0.1161   -0.2968 C   0  0  0  0  0  0  0  0  0  0  0  0
    4.4662    1.0458   -0.1301 O   0  0  0  0  0  0  0  0  0  0  0  0
    5.0129   -1.0957   -0.1129 O   0  0  0  0  0  0  0  0  0  0  0  0
    6.3513   -0.7844    0.2296 C   0  0  0  0  0  0  0  0  0  0  0  0
    7.0810   -2.1168    0.3344 C   0  0  0  0  0  0  0  0  0  0  0  0
    7.0020    0.1194   -0.7948 C   0  0  0  0  0  0  0  0  0  0  0  0
    6.4037   -0.1727    1.6261 C   0  0  0  0  0  0  0  0  0  0  0  0
   -0.8272    2.4106    0.7470 C   0  0  0  0  0  0  0  0  0  0  0  0
   -1.4937    1.1974    1.1824 C   0  0  0  0  0  0  0  0  0  0  0  0
   -1.5743    0.7983    2.3810 O   0  0  0  0  0  0  0  0  0  0  0  0
   -4.4879    0.4519    0.0501 C   0  0  0  0  0  0  0  0  0  0  0  0
   -5.6454   -0.2710   -0.1521 C   0  0  0  0  0  0  0  0  0  0  0  0
   -6.9991    0.3346    0.0957 C   0  0  0  0  0  0  0  0  0  0  0  0
  1  2  1  0
  2  3  2  0
  3  4  1  0
  4  5  2  0
  5  6  1  0
  6  7  1  0
  7  8  1  0
  8  9  1  1
  9 10  2  0
  9 11  1  0
 11 12  1  0
 12 13  1  0
 13 14  2  0
 13 15  1  0
 15 16  1  0
 16 17  1  0
 16 18  1  0
 16 19  1  0
  8 20  1  0
 20 21  1  0
 21 22  2  0
  5 23  1  0
 23 24  2  0
 24 25  1  0
 24  2  1  0
 21  6  1  0
M  END
>  <zinc_id>  (1) 
ZINC000000041448

>  <smiles>  (1) 
Cc1ccc(N2C[C@H](C(=O)OCC(=O)OC(C)(C)C)CC2=O)cc1C

$$$$
