
     RDKit          3D

 21 22  0  0  0  0  0  0  0  0999 V2000
    4.1172   -1.8062   -0.6302 C   0  0  0  0  0  0  0  0  0  0  0  0
    2.7465   -2.3963   -0.4557 C   0  0  0  0  0  0  0  0  0  0  0  0
    1.7614   -1.5818   -1.1026 O   0  0  0  0  0  0  0  0  0  0  0  0
    1.5879   -0.2481   -0.7133 C   0  0  0  0  0  0  0  0  0  0  0  0
    1.9785    0.6938   -1.4741 C   0  0  0  0  0  0  0  0  0  0  0  0
    2.6298    0.2990   -2.8007 C   0  0  0  0  0  0  0  0  0  0  0  0
    1.8572    2.0502   -1.1896 O   0  0  0  0  0  0  0  0  0  0  0  0
    1.2549    2.3185    0.0343 C   0  0  0  0  0  0  0  0  0  0  0  0
    1.0760    3.7165    0.4364 N   0  0  0  0  0  0  0  0  0  0  0  0
    0.8176    1.4497    0.8918 C   0  0  0  0  0  0  0  0  0  0  0  0
    0.2103    1.8928    2.1308 C   0  0  0  0  0  0  0  0  0  0  0  0
   -0.2778    2.2237    3.1260 N   0  0  0  0  0  0  0  0  0  0  0  0
    0.9258   -0.0723    0.6287 C   0  0  1  0  0  0  0  0  0  0  0  0
   -0.5650   -0.4525    0.2961 C   0  0  0  0  0  0  0  0  0  0  0  0
   -1.5936    0.1701    0.9242 C   0  0  0  0  0  0  0  0  0  0  0  0
   -2.9206   -0.1384    0.6572 C   0  0  0  0  0  0  0  0  0  0  0  0
   -3.1969   -1.1064   -0.2742 C   0  0  0  0  0  0  0  0  0  0  0  0
   -4.5422   -1.4319   -0.5572 O   0  0  0  0  0  0  0  0  0  0  0  0
   -4.8770   -2.4164   -1.5032 C   0  0  0  0  0  0  0  0  0  0  0  0
   -2.1671   -1.7488   -0.9214 C   0  0  0  0  0  0  0  0  0  0  0  0
   -0.8228   -1.4151   -0.6304 C   0  0  0  0  0  0  0  0  0  0  0  0
  1  2  1  0
  2  3  1  0
  3  4  1  0
  4  5  2  0
  5  6  1  0
  5  7  1  0
  7  8  1  0
  8  9  1  0
  8 10  2  0
 10 11  1  0
 11 12  3  0
 10 13  1  0
 13 14  1  1
 14 15  2  0
 15 16  1  0
 16 17  2  0
 17 18  1  0
 18 19  1  0
 17 20  1  0
 20 21  2  0
 13  4  1  0
 21 14  1  0
M  END
>  <zinc_id>  (1) 
ZINC000000184584

>  <smiles>  (1) 
CCOC1=C(C)OC(N)=C(C#N)[C@@H]1c1ccc(OC)cc1

$$$$
