
     RDKit          3D

 22 24  0  0  0  0  0  0  0  0999 V2000
   -8.1216   -0.3534   -0.2284 C   0  0  0  0  0  0  0  0  0  0  0  0
   -6.6497   -0.2201   -0.0543 C   0  0  0  0  0  0  0  0  0  0  0  0
   -6.0267    1.0076   -0.1646 C   0  0  0  0  0  0  0  0  0  0  0  0
   -4.6618    1.1254   -0.0022 C   0  0  0  0  0  0  0  0  0  0  0  0
   -3.8547    0.0433    0.2748 C   0  0  0  0  0  0  0  0  0  0  0  0
   -2.4091    0.1791    0.4451 C   0  0  0  0  0  0  0  0  0  0  0  0
   -1.9166    1.3288    0.3297 O   0  0  0  0  0  0  0  0  0  0  0  0
   -1.5586   -0.9019    0.7277 N   0  0  0  0  0  0  0  0  0  0  0  0
   -0.1764   -0.7863    0.8927 N   0  0  0  0  0  0  0  0  0  0  0  0
    0.6212   -0.4148   -0.0338 C   0  0  0  0  0  0  0  0  0  0  0  0
    2.0507   -0.3186    0.2148 C   0  0  0  0  0  0  0  0  0  0  0  0
    2.5553   -0.6289    1.4568 C   0  0  0  0  0  0  0  0  0  0  0  0
    3.9145   -0.5397    1.7008 C   0  0  0  0  0  0  0  0  0  0  0  0
    4.7990   -0.1381    0.7082 C   0  0  0  0  0  0  0  0  0  0  0  0
    4.2948    0.1727   -0.5351 C   0  0  0  0  0  0  0  0  0  0  0  0
    2.9275    0.0796   -0.7693 C   0  0  0  0  0  0  0  0  0  0  0  0
    5.2051    0.5705   -1.5047 O   0  0  0  0  0  0  0  0  0  0  0  0
    6.3118    1.3476   -1.1036 C   0  0  0  0  0  0  0  0  0  0  0  0
    6.8672    0.9828    0.2318 C   0  0  0  0  0  0  0  0  0  0  0  0
    6.1616   -0.0332    0.9013 O   0  0  0  0  0  0  0  0  0  0  0  0
   -4.4846   -1.1898    0.3851 C   0  0  0  0  0  0  0  0  0  0  0  0
   -5.8489   -1.3128    0.2236 C   0  0  0  0  0  0  0  0  0  0  0  0
  1  2  1  0
  2  3  2  0
  3  4  1  0
  4  5  2  0
  5  6  1  0
  6  7  2  0
  6  8  1  0
  8  9  1  0
  9 10  2  0
 10 11  1  0
 11 12  2  0
 12 13  1  0
 13 14  2  0
 14 15  1  0
 15 16  2  0
 15 17  1  0
 17 18  1  0
 18 19  1  0
 19 20  1  0
  5 21  1  0
 21 22  2  0
 22  2  1  0
 16 11  1  0
 20 14  1  0
M  END
>  <zinc_id>  (1) 
ZINC000000903783

>  <smiles>  (1) 
Cc1ccc(C(=O)N/N=C/c2ccc3c(c2)OCCO3)cc1

$$$$
