
     RDKit          3D

 20 22  0  0  0  0  0  0  0  0999 V2000
    3.1293    2.6842    0.6515 C   0  0  0  0  0  0  0  0  0  0  0  0
    2.7344    1.2639    0.3285 C   0  0  0  0  0  0  0  0  0  0  0  0
    1.6987    0.8930   -0.4835 C   0  0  0  0  0  0  0  0  0  0  0  0
    1.6599   -0.4823   -0.5168 C   0  0  0  0  0  0  0  0  0  0  0  0
    0.6919   -1.3037   -1.2365 C   0  0  0  0  0  0  0  0  0  0  0  0
   -0.5897   -1.0922   -1.1202 C   0  0  0  0  0  0  0  0  0  0  0  0
   -1.6683   -1.8538   -1.8052 C   0  0  0  0  0  0  0  0  0  0  0  0
   -1.4359   -2.7878   -2.6129 O   0  0  0  0  0  0  0  0  0  0  0  0
   -2.8814   -1.2877   -1.3387 N   0  0  0  0  0  0  0  0  0  0  0  0
   -2.6385   -0.2375   -0.4188 C   0  0  0  0  0  0  0  0  0  0  0  0
   -3.4881    0.6022    0.3093 C   0  0  0  0  0  0  0  0  0  0  0  0
   -3.0108    1.5576    1.1679 C   0  0  0  0  0  0  0  0  0  0  0  0
   -4.0465    2.6234    2.0932 Cl  0  0  0  0  0  0  0  0  0  0  0  0
   -1.6420    1.6859    1.3121 C   0  0  0  0  0  0  0  0  0  0  0  0
   -0.8270    0.8525    0.5865 C   0  0  0  0  0  0  0  0  0  0  0  0
   -1.2548   -0.1069   -0.2760 C   0  0  0  0  0  0  0  0  0  0  0  0
    2.6949   -0.9377    0.2906 C   0  0  0  0  0  0  0  0  0  0  0  0
    3.0465   -2.3552    0.5663 C   0  0  0  0  0  0  0  0  0  0  0  0
    3.3436    0.1407    0.8020 N   0  0  0  0  0  0  0  0  0  0  0  0
    4.4835    0.1416    1.7006 C   0  0  0  0  0  0  0  0  0  0  0  0
  1  2  1  0
  2  3  2  0
  3  4  1  0
  4  5  1  0
  5  6  2  0
  6  7  1  0
  7  8  2  0
  7  9  1  0
  9 10  1  0
 10 11  2  0
 11 12  1  0
 12 13  1  0
 12 14  2  0
 14 15  1  0
 15 16  2  0
  4 17  2  0
 17 18  1  0
 17 19  1  0
 19 20  1  0
 19  2  1  0
 16  6  1  0
 16 10  1  0
M  END
>  <zinc_id>  (1) 
ZINC000000573451

>  <smiles>  (1) 
Cc1cc(/C=C2/C(=O)Nc3cc(Cl)ccc32)c(C)n1C

$$$$
