
     RDKit          3D

 21 22  0  0  0  0  0  0  0  0999 V2000
    6.6761   -1.3320    0.0432 C   0  0  0  0  0  0  0  0  0  0  0  0
    6.1835   -0.6804   -1.2354 C   0  0  0  0  0  0  0  0  0  0  0  0
    4.7055   -0.4679   -1.1323 C   0  0  0  0  0  0  0  0  0  0  0  0
    3.7572   -1.3547   -1.5587 C   0  0  0  0  0  0  0  0  0  0  0  0
    2.4031   -1.1091   -1.4306 C   0  0  0  0  0  0  0  0  0  0  0  0
    1.9350    0.0563   -0.8616 C   0  0  0  0  0  0  0  0  0  0  0  0
    0.5630    0.3480   -0.7082 N   0  0  0  0  0  0  0  0  0  0  0  0
    0.0066    0.0811    0.5773 C   0  0  0  0  0  0  0  0  0  0  0  0
    0.7975   -0.3939    1.4667 O   0  0  0  0  0  0  0  0  0  0  0  0
   -1.3928    0.3162    0.9215 C   0  0  0  0  0  0  0  0  0  0  0  0
   -1.6662    1.1784    1.9906 C   0  0  0  0  0  0  0  0  0  0  0  0
   -2.9918    1.4491    2.3148 C   0  0  0  0  0  0  0  0  0  0  0  0
   -4.0263    0.8860    1.6063 C   0  0  0  0  0  0  0  0  0  0  0  0
   -3.7997    0.0211    0.5419 C   0  0  0  0  0  0  0  0  0  0  0  0
   -4.8805   -0.5744   -0.1579 N   0  0  0  0  0  4  0  0  0  0  0  0
   -4.8537   -0.8528   -1.3498 O   0  0  0  0  0  0  0  0  0  0  0  0
   -6.0179   -0.8231    0.5915 O   0  0  0  0  0  1  0  0  0  0  0  0
   -2.4636   -0.2315    0.2367 C   0  0  0  0  0  0  0  0  0  0  0  0
   -2.0944   -1.1311   -0.8854 C   0  0  0  0  0  0  0  0  0  0  0  0
    2.8993    0.9572   -0.4219 C   0  0  0  0  0  0  0  0  0  0  0  0
    4.2600    0.7197   -0.5485 C   0  0  0  0  0  0  0  0  0  0  0  0
  1  2  1  0
  2  3  1  0
  3  4  2  0
  4  5  1  0
  5  6  2  0
  6  7  1  0
  7  8  1  0
  8  9  2  0
  8 10  1  0
 10 11  2  0
 11 12  1  0
 12 13  2  0
 13 14  1  0
 14 15  1  0
 15 16  2  0
 15 17  1  0
 14 18  2  0
 18 19  1  0
  6 20  1  0
 20 21  2  0
 21  3  1  0
 18 10  1  0
M  CHG  2  15   1  17  -1
M  END
>  <zinc_id>  (1) 
ZINC000000311200

>  <smiles>  (1) 
CCc1ccc(NC(=O)c2cccc([N+](=O)[O-])c2C)cc1

$$$$
