
     RDKit          3D

 20 21  0  0  0  0  0  0  0  0999 V2000
   -3.3875    3.0848    0.9031 C   0  0  0  0  0  0  0  0  0  0  0  0
   -3.5486    1.7345   -0.0265 C   0  0  1  0  0  0  0  0  0  0  0  0
   -2.0714    1.1426    0.4462 C   0  0  0  0  0  0  0  0  0  0  0  0
   -2.0973   -0.1822   -0.2131 C   0  0  0  0  0  0  0  0  0  0  0  0
   -1.0083   -0.6373   -0.9796 N   0  0  0  0  0  0  0  0  0  0  0  0
    0.2816   -0.3440   -0.5332 N   0  0  0  0  0  0  0  0  0  0  0  0
    1.4518   -0.7448   -1.2315 C   0  0  0  0  0  0  0  0  0  0  0  0
    1.3001   -1.3912   -2.2969 O   0  0  0  0  0  0  0  0  0  0  0  0
    2.7692   -0.4050   -0.7083 C   0  0  0  0  0  0  0  0  0  0  0  0
    3.9287   -0.7832   -1.3611 C   0  0  0  0  0  0  0  0  0  0  0  0
    5.1793   -0.4593   -0.8627 C   0  0  0  0  0  0  0  0  0  0  0  0
    5.3347    0.2544    0.3060 C   0  0  0  0  0  0  0  0  0  0  0  0
    6.5696    0.5728    0.7953 F   0  0  0  0  0  0  0  0  0  0  0  0
    4.1804    0.6327    0.9590 C   0  0  0  0  0  0  0  0  0  0  0  0
    2.9350    0.3084    0.4597 C   0  0  0  0  0  0  0  0  0  0  0  0
   -3.1716   -0.9246   -0.0617 C   0  0  0  0  0  0  0  0  0  0  0  0
   -4.3461   -0.5292    0.7160 C   0  0  0  0  0  0  0  0  0  0  0  0
   -4.3819   -1.4013    1.9771 C   0  0  0  0  0  0  0  0  0  0  0  0
   -5.5783   -0.8325   -0.1189 C   0  0  0  0  0  0  0  0  0  0  0  0
   -4.3393    0.9044    1.1765 C   0  0  0  0  0  0  0  0  0  0  0  0
  2  1  1  1
  2  3  1  0
  3  4  1  0
  4  5  1  0
  5  6  1  0
  6  7  1  0
  7  8  2  0
  7  9  1  0
  9 10  2  0
 10 11  1  0
 11 12  2  0
 12 13  1  0
 12 14  1  0
 14 15  2  0
  4 16  2  0
 16 17  1  0
 17 18  1  0
 17 19  1  0
 17 20  1  0
 20  2  1  0
 15  9  1  0
M  END
>  <zinc_id>  (1) 
ZINC000003468913

>  <smiles>  (1) 
C[C@H]1CC(NNC(=O)c2ccc(F)cc2)=CC(C)(C)C1

$$$$
