
     RDKit          3D

 21 23  0  0  0  0  0  0  0  0999 V2000
    2.5017    1.1920   -1.8043 C   0  0  0  0  0  0  0  0  0  0  0  0
    2.0539    1.7770   -0.5122 C   0  0  0  0  0  0  0  0  0  0  0  0
    2.7856    2.6914    0.1920 C   0  0  0  0  0  0  0  0  0  0  0  0
    2.3514    3.2166    1.3816 C   0  0  0  0  0  0  0  0  0  0  0  0
    3.1678    4.1839    2.0876 C   0  0  0  0  0  0  0  0  0  0  0  0
    3.8180    4.9514    2.6680 N   0  0  0  0  0  0  0  0  0  0  0  0
    1.1390    2.7978    1.8651 C   0  0  0  0  0  0  0  0  0  0  0  0
    0.3461    1.8771    1.2075 C   0  0  0  0  0  0  0  0  0  0  0  0
   -0.9655    1.4326    1.7436 C   0  0  0  0  0  0  0  0  0  0  0  0
    0.8349    1.3792    0.0090 C   0  0  0  0  0  0  0  0  0  0  0  0
    0.0475    0.4584   -0.6537 O   0  0  0  0  0  0  0  0  0  0  0  0
    0.1483   -0.9403   -0.4357 C   0  0  0  0  0  0  0  0  0  0  0  0
   -1.0065   -1.4749   -1.4793 C   0  0  2  0  0  0  0  0  0  0  0  0
   -2.2142   -0.6537   -0.7465 C   0  0  0  0  0  0  0  0  0  0  0  0
   -3.5208   -1.2105   -0.9454 C   0  0  0  0  0  0  0  0  0  0  0  0
   -3.4603   -2.5369   -1.6364 C   0  0  0  0  0  0  0  0  0  0  0  0
   -2.5325   -3.3637   -0.8798 C   0  0  0  0  0  0  0  0  0  0  0  0
   -2.5083   -4.5103   -0.2280 N   0  0  0  0  0  0  0  0  0  0  0  0
   -1.2624   -4.7333    0.2781 C   0  0  0  0  0  0  0  0  0  0  0  0
   -0.4789   -3.6705   -0.0795 N   0  0  0  0  0  0  0  0  0  0  0  0
   -1.2448   -2.8633   -0.7671 C   0  0  0  0  0  0  0  0  0  0  0  0
  1  2  1  0
  2  3  2  0
  3  4  1  0
  4  5  1  0
  5  6  3  0
  4  7  2  0
  7  8  1  0
  8  9  1  0
  8 10  2  0
 10 11  1  0
 11 12  1  0
 13 12  1  1
 13 14  1  0
 14 15  1  0
 15 16  1  0
 16 17  1  0
 17 18  1  0
 18 19  1  0
 19 20  2  0
 20 21  1  0
 10  2  1  0
 21 13  1  0
 21 17  2  0
M  END
>  <zinc_id>  (1) 
ZINC000000027212

>  <smiles>  (1) 
Cc1cc(C#N)cc(C)c1OC[C@@H]1CCCc2[nH]cnc21

$$$$
