
     RDKit          3D

 21 23  0  0  0  0  0  0  0  0999 V2000
   -5.3758    0.5230    0.9811 C   0  0  0  0  0  0  0  0  0  0  0  0
   -4.0388    0.4685    0.3864 C   0  0  0  0  0  0  0  0  0  0  0  0
   -3.8365    0.7683   -0.8928 N   0  0  0  0  0  0  0  0  0  0  0  0
   -2.5734    0.7129   -1.4386 C   0  0  0  0  0  0  0  0  0  0  0  0
   -1.9305    1.0069   -2.9937 S   0  0  0  0  0  0  0  0  0  0  0  0
   -0.3005    0.6707   -2.6854 C   0  0  0  0  0  0  0  0  0  0  0  0
   -0.2875    0.3289   -1.3493 C   0  0  0  0  0  0  0  0  0  0  0  0
    1.0267   -0.0137   -0.7201 C   0  0  0  0  0  0  0  0  0  0  0  0
    1.4605    0.5887    0.4316 C   0  0  0  0  0  0  0  0  0  0  0  0
    2.6659    0.2887    1.0273 C   0  0  0  0  0  0  0  0  0  0  0  0
    3.4902   -0.6512    0.4653 C   0  0  0  0  0  0  0  0  0  0  0  0
    4.7901   -0.9720    1.1115 C   0  0  0  0  0  0  0  0  0  0  0  0
    5.5920    0.2803    1.3945 C   0  0  0  0  0  0  0  0  0  0  0  0
    4.5935   -1.7577    2.4012 C   0  0  0  0  0  0  0  0  0  0  0  0
    3.0740   -1.2708   -0.6945 C   0  0  0  0  0  0  0  0  0  0  0  0
    1.8552   -0.9587   -1.2854 C   0  0  0  0  0  0  0  0  0  0  0  0
   -1.4709    0.3527   -0.7103 C   0  0  0  0  0  0  0  0  0  0  0  0
   -1.7431    0.0452    0.6386 C   0  0  0  0  0  0  0  0  0  0  0  0
   -0.8338   -0.3049    1.4361 O   0  0  0  0  0  0  0  0  0  0  0  0
   -2.9891    0.1118    1.1312 N   0  0  0  0  0  0  0  0  0  0  0  0
   -3.1683   -0.2177    2.5107 N   0  0  0  0  0  0  0  0  0  0  0  0
  1  2  1  0
  2  3  2  0
  3  4  1  0
  4  5  1  0
  5  6  1  0
  6  7  2  0
  7  8  1  0
  8  9  2  0
  9 10  1  0
 10 11  2  0
 11 12  1  0
 12 13  1  0
 12 14  1  0
 11 15  1  0
 15 16  2  0
  7 17  1  0
 17 18  1  0
 18 19  2  0
 18 20  1  0
 20 21  1  0
 20  2  1  0
 17  4  2  0
 16  8  1  0
M  END
>  <zinc_id>  (1) 
ZINC000000351100

>  <smiles>  (1) 
Cc1nc2scc(-c3ccc(C(C)C)cc3)c2c(=O)n1N

$$$$
