
     RDKit          3D

 22 24  0  0  0  0  0  0  0  0999 V2000
   -2.9465   -0.6818    1.4195 C   0  0  0  0  0  0  0  0  0  0  0  0
   -1.9745   -0.6478    0.0631 C   0  0  2  0  0  0  0  0  0  0  0  0
   -0.9787    0.2954    0.7572 O   0  0  0  0  0  0  0  0  0  0  0  0
   -0.0539    0.6590   -0.1426 C   0  0  1  0  0  0  0  0  0  0  0  0
   -0.0304    2.0960   -0.1037 O   0  0  0  0  0  0  0  0  0  0  0  0
    1.3141    0.2303    0.0127 C   0  0  0  0  0  0  0  0  0  0  0  0
    2.0332    0.1535    1.1836 C   0  0  0  0  0  0  0  0  0  0  0  0
    3.3480   -0.2626    1.1502 C   0  0  0  0  0  0  0  0  0  0  0  0
    3.9831   -0.6004    0.0067 C   0  0  0  0  0  0  0  0  0  0  0  0
    5.3386   -1.0425   -0.0723 N   0  0  0  0  0  4  0  0  0  0  0  0
    5.8037   -1.4245   -1.1597 O   0  0  0  0  0  0  0  0  0  0  0  0
    6.0761   -1.0517    1.0723 O   0  0  0  0  0  1  0  0  0  0  0  0
    3.2839   -0.5369   -1.1991 C   0  0  0  0  0  0  0  0  0  0  0  0
    1.9877   -0.1282   -1.1400 C   0  0  0  0  0  0  0  0  0  0  0  0
   -0.5730    0.3311   -1.5426 C   0  0  0  0  0  0  0  0  0  0  0  0
   -1.8465    1.1878   -1.5263 C   0  0  0  0  0  0  0  0  0  0  0  0
   -2.7663    0.4955   -0.6531 N   0  0  0  0  0  4  0  0  0  0  0  0
   -3.4515    1.3358    0.2082 C   0  0  0  0  0  0  0  0  0  0  0  0
   -4.8300    0.9504    0.6036 C   0  0  0  0  0  0  0  0  0  0  0  0
   -5.5044   -0.0795   -0.2044 C   0  0  0  0  0  0  0  0  0  0  0  0
   -4.6209   -1.0424   -0.9273 C   0  0  0  0  0  0  0  0  0  0  0  0
   -3.5918   -0.2365   -1.6224 C   0  0  0  0  0  0  0  0  0  0  0  0
  2  1  1  1
  2  3  1  0
  3  4  1  0
  4  5  1  6
  4  6  1  0
  6  7  2  0
  7  8  1  0
  8  9  2  0
  9 10  1  0
 10 11  2  0
 10 12  1  0
  9 13  1  0
 13 14  2  0
  4 15  1  0
 15 16  1  0
 16 17  1  0
 17 18  1  0
 18 19  1  0
 19 20  1  0
 20 21  1  0
 21 22  1  0
 17  2  1  0
 14  6  1  0
 22 17  1  0
M  CHG  3  10   1  12  -1  17   1
M  END
>  <zinc_id>  (1) 
ZINC000000162705

>  <smiles>  (1) 
C[C@@H]1O[C@@](O)(c2ccc([N+](=O)[O-])cc2)CC[N+]12CCCCC2

$$$$
