
     RDKit          3D

 23 25  0  0  0  0  0  0  0  0999 V2000
    3.5977   -0.2213   -1.9100 C   0  0  0  0  0  0  0  0  0  0  0  0
    3.3052    1.0576   -2.1575 C   0  0  0  0  0  0  0  0  0  0  0  0
    2.6057    1.9245   -1.1539 C   0  0  0  0  0  0  0  0  0  0  0  0
    2.3587    1.0988    0.0249 N   0  0  0  0  0  0  0  0  0  0  0  0
    3.2767    0.9884    1.0975 C   0  0  0  0  0  0  0  0  0  0  0  0
    4.3556    1.6358    1.0262 O   0  0  0  0  0  0  0  0  0  0  0  0
    3.0528    0.1968    2.2384 N   0  0  0  0  0  0  0  0  0  0  0  0
    1.8579   -0.5439    2.3594 C   0  0  0  0  0  0  0  0  0  0  0  0
    1.5911   -1.2692    3.3446 O   0  0  0  0  0  0  0  0  0  0  0  0
    0.8503   -0.4785    1.2797 C   0  0  0  0  0  0  0  0  0  0  0  0
   -0.2449   -1.1828    1.3376 C   0  0  0  0  0  0  0  0  0  0  0  0
   -1.2629   -1.1583    0.3335 C   0  0  0  0  0  0  0  0  0  0  0  0
   -1.6173   -2.2187   -0.5134 C   0  0  0  0  0  0  0  0  0  0  0  0
   -2.6587   -1.8717   -1.2866 N   0  0  0  0  0  0  0  0  0  0  0  0
   -3.3256   -2.6909   -2.2984 C   0  0  0  0  0  0  0  0  0  0  0  0
   -3.0299   -0.6113   -0.9978 C   0  0  0  0  0  0  0  0  0  0  0  0
   -4.0459    0.1950   -1.4987 C   0  0  0  0  0  0  0  0  0  0  0  0
   -4.2039    1.4670   -0.9875 C   0  0  0  0  0  0  0  0  0  0  0  0
   -3.3748    1.9155   -0.0102 C   0  0  0  0  0  0  0  0  0  0  0  0
   -2.3851    1.1233    0.4732 C   0  0  0  0  0  0  0  0  0  0  0  0
   -2.1781   -0.1633   -0.0025 C   0  0  0  0  0  0  0  0  0  0  0  0
    1.1390    0.3533    0.1291 C   0  0  0  0  0  0  0  0  0  0  0  0
    0.3364    0.4540   -0.8278 O   0  0  0  0  0  0  0  0  0  0  0  0
  1  2  2  0
  2  3  1  0
  3  4  1  0
  4  5  1  0
  5  6  2  0
  5  7  1  0
  7  8  1  0
  8  9  2  0
  8 10  1  0
 10 11  2  0
 11 12  1  0
 12 13  2  0
 13 14  1  0
 14 15  1  0
 14 16  1  0
 16 17  2  0
 17 18  1  0
 18 19  2  0
 19 20  1  0
 20 21  2  0
 10 22  1  0
 22 23  2  0
 22  4  1  0
 21 12  1  0
 21 16  1  0
M  END
>  <zinc_id>  (1) 
ZINC000000501522

>  <smiles>  (1) 
C=CCN1C(=O)NC(=O)/C(=C/c2cn(C)c3ccccc23)C1=O

$$$$
