
     RDKit          3D

 20 22  0  0  0  0  0  0  0  0999 V2000
    7.1743   -0.6069    1.1047 C   0  0  0  0  0  0  0  0  0  0  0  0
    5.7085   -0.5349    0.7678 C   0  0  0  0  0  0  0  0  0  0  0  0
    5.1001   -0.8742   -0.4082 C   0  0  0  0  0  0  0  0  0  0  0  0
    3.8218   -0.7403   -0.5025 N   0  0  0  0  0  0  0  0  0  0  0  0
    3.1283   -0.2831    0.5259 C   0  0  0  0  0  0  0  0  0  0  0  0
    1.7234   -0.0840    0.5683 N   0  0  0  0  0  0  0  0  0  0  0  0
    0.9668   -0.3963   -0.5865 C   0  0  0  0  0  0  0  0  0  0  0  0
    1.5151   -0.8414   -1.6345 O   0  0  0  0  0  0  0  0  0  0  0  0
   -0.4931   -0.2167   -0.6190 C   0  0  0  0  0  0  0  0  0  0  0  0
   -1.2297   -0.5206   -1.7428 C   0  0  0  0  0  0  0  0  0  0  0  0
   -2.6069   -0.3522   -1.7761 C   0  0  0  0  0  0  0  0  0  0  0  0
   -3.2866    0.1266   -0.6823 C   0  0  0  0  0  0  0  0  0  0  0  0
   -4.6002    0.3728   -0.4738 N   0  0  0  0  0  0  0  0  0  0  0  0
   -4.7520    0.8427    0.7892 C   0  0  0  0  0  0  0  0  0  0  0  0
   -6.0641    1.2141    1.3495 C   0  0  0  0  0  0  0  0  0  0  0  0
   -3.4968    0.8857    1.3711 C   0  0  0  0  0  0  0  0  0  0  0  0
   -3.2104    1.3409    2.7540 C   0  0  0  0  0  0  0  0  0  0  0  0
   -2.5661    0.4364    0.4519 C   0  0  0  0  0  0  0  0  0  0  0  0
   -1.1889    0.2630    0.4716 C   0  0  0  0  0  0  0  0  0  0  0  0
    4.3565   -0.0316    1.6835 S   0  0  0  0  0  0  0  0  0  0  0  0
  1  2  1  0
  2  3  2  0
  3  4  1  0
  4  5  2  0
  5  6  1  0
  6  7  1  0
  7  8  2  0
  7  9  1  0
  9 10  2  0
 10 11  1  0
 11 12  2  0
 12 13  1  0
 13 14  1  0
 14 15  1  0
 14 16  2  0
 16 17  1  0
 16 18  1  0
 18 19  2  0
  5 20  1  0
 20  2  1  0
 19  9  1  0
 18 12  1  0
M  END
>  <zinc_id>  (1) 
ZINC000003345294

>  <smiles>  (1) 
Cc1cnc(NC(=O)c2ccc3[nH]c(C)c(C)c3c2)s1

$$$$
