
     RDKit          3D

 20 22  0  0  0  0  0  0  0  0999 V2000
   -4.2528   -1.4930   -0.7579 O   0  0  0  0  0  0  0  0  0  0  0  0
   -3.6584   -0.6779   -0.0770 C   0  0  0  0  0  0  0  0  0  0  0  0
   -3.8328   -0.5329    1.3229 C   0  0  0  0  0  0  0  0  0  0  0  0
   -2.4536   -0.9283    1.8950 C   0  0  0  0  0  0  0  0  0  0  0  0
   -1.6333    0.1568    1.3188 C   0  0  0  0  0  0  0  0  0  0  0  0
   -1.2169   -0.2203   -0.1943 C   0  0  1  0  0  0  0  0  0  0  0  0
   -2.6820    0.1734   -0.9878 C   0  0  2  0  0  0  0  0  0  0  0  0
   -2.9011    1.6239   -0.2814 C   0  0  0  0  0  0  0  0  0  0  0  0
   -2.2362    2.5241   -1.3095 C   0  0  0  0  0  0  0  0  0  0  0  0
   -0.9866    1.7845   -1.7725 C   0  0  0  0  0  0  0  0  0  0  0  0
   -0.4372    1.1412   -0.5478 C   0  0  1  0  0  0  0  0  0  0  0  0
   -0.3900    2.0321    0.4446 O   0  0  0  0  0  0  0  0  0  0  0  0
    1.0029    0.6420   -0.7700 C   0  0  0  0  0  0  0  0  0  0  0  0
    1.3670    0.0099    0.5759 C   0  0  0  0  0  0  0  0  0  0  0  0
    2.7453   -0.5223    0.5138 C   0  0  0  0  0  0  0  0  0  0  0  0
    3.8326    0.2532    0.8568 C   0  0  0  0  0  0  0  0  0  0  0  0
    5.1189   -0.2486    0.7972 C   0  0  0  0  0  0  0  0  0  0  0  0
    5.3626   -1.5615    0.3866 C   0  0  0  0  0  0  0  0  0  0  0  0
    4.2682   -2.3282    0.0459 C   0  0  0  0  0  0  0  0  0  0  0  0
    2.9832   -1.8282    0.1050 C   0  0  0  0  0  0  0  0  0  0  0  0
  1  2  2  0
  2  3  1  0
  3  4  1  0
  4  5  1  0
  6  5  1  1
  6  7  1  0
  7  8  1  1
  8  9  1  0
  9 10  1  0
 10 11  1  0
 11 12  1  1
 11 13  1  0
 13 14  1  0
 14 15  1  0
 15 16  2  0
 16 17  1  0
 17 18  2  0
 18 19  1  0
 19 20  2  0
  7  2  1  0
 20 15  1  0
 11  6  1  0
M  END
>  <zinc_id>  (1) 
ZINC000000390822

>  <smiles>  (1) 
O=C1CCC[C@H]2[C@@H]1CCC[C@]2(O)CCc1ccccc1

$$$$
