
     RDKit          3D

 20 21  0  0  0  0  0  0  0  0999 V2000
   -0.9125    0.4417    1.5376 O   0  0  0  0  0  0  0  0  0  0  0  0
   -0.4114    0.0433    0.4283 C   0  0  0  0  0  0  0  0  0  0  0  0
   -1.3717   -0.2266   -0.5821 N   0  0  0  0  0  0  0  0  0  0  0  0
   -2.7982   -0.0818   -0.4279 C   0  0  0  0  0  0  0  0  0  0  0  0
   -3.3608   -0.6546    0.8155 C   0  0  0  0  0  0  0  0  0  0  0  0
   -4.7062   -1.2884    0.6814 C   0  0  0  0  0  0  0  0  0  0  0  0
   -5.7000   -0.2760    0.1499 C   0  0  0  0  0  0  0  0  0  0  0  0
   -5.3232   -0.0028   -1.2846 C   0  0  0  0  0  0  0  0  0  0  0  0
   -4.6291    1.3578   -1.3586 C   0  0  0  0  0  0  0  0  0  0  0  0
   -3.2646    1.3155   -0.7446 C   0  0  0  0  0  0  0  0  0  0  0  0
    1.0252   -0.1052    0.2613 C   0  0  0  0  0  0  0  0  0  0  0  0
    1.6484   -1.3020    0.5474 C   0  0  0  0  0  0  0  0  0  0  0  0
    3.0257   -1.4567    0.3902 C   0  0  0  0  0  0  0  0  0  0  0  0
    3.7866   -0.3964   -0.0589 C   0  0  0  0  0  0  0  0  0  0  0  0
    5.2042   -0.5098   -0.2372 N   0  0  0  0  0  4  0  0  0  0  0  0
    5.7694   -1.5853    0.0129 O   0  0  0  0  0  0  0  0  0  0  0  0
    5.9634    0.5402   -0.6822 O   0  0  0  0  0  1  0  0  0  0  0  0
    3.1931    0.8219   -0.3552 C   0  0  0  0  0  0  0  0  0  0  0  0
    1.8358    0.9217   -0.1848 C   0  0  0  0  0  0  0  0  0  0  0  0
    1.0260    2.4434   -0.5459 Cl  0  0  0  0  0  0  0  0  0  0  0  0
  1  2  2  0
  2  3  1  0
  3  4  1  0
  4  5  1  0
  5  6  1  0
  6  7  1  0
  7  8  1  0
  8  9  1  0
  9 10  1  0
  2 11  1  0
 11 12  2  0
 12 13  1  0
 13 14  2  0
 14 15  1  0
 15 16  2  0
 15 17  1  0
 14 18  1  0
 18 19  2  0
 19 20  1  0
 10  4  1  0
 19 11  1  0
M  CHG  2  15   1  17  -1
M  END
>  <zinc_id>  (1) 
ZINC000000146248

>  <smiles>  (1) 
O=C(NC1CCCCCC1)c1ccc([N+](=O)[O-])cc1Cl

$$$$
