
     RDKit          3D

 21 22  0  0  0  0  0  0  0  0999 V2000
   -3.9355   -2.5479   -0.1296 C   0  0  0  0  0  0  0  0  0  0  0  0
   -3.1955   -1.2433   -0.0697 C   0  0  0  0  0  0  0  0  0  0  0  0
   -1.8195   -1.1889   -0.1636 C   0  0  0  0  0  0  0  0  0  0  0  0
   -1.1657    0.0428   -0.1038 C   0  0  0  0  0  0  0  0  0  0  0  0
    0.2336    0.1654   -0.1935 N   0  0  0  0  0  0  0  0  0  0  0  0
    1.1382   -0.8919   -0.3496 C   0  0  0  0  0  0  0  0  0  0  0  0
    0.6657   -2.0679   -0.4173 O   0  0  0  0  0  0  0  0  0  0  0  0
    2.5529   -0.6061   -0.4264 C   0  0  0  0  0  0  0  0  0  0  0  0
    3.1852   -0.3620   -1.6218 C   0  0  0  0  0  0  0  0  0  0  0  0
    4.5588   -0.0890   -1.6526 C   0  0  0  0  0  0  0  0  0  0  0  0
    5.2903   -0.0619   -0.4896 C   0  0  0  0  0  0  0  0  0  0  0  0
    4.6666   -0.3043    0.7052 C   0  0  0  0  0  0  0  0  0  0  0  0
    3.3190   -0.5694    0.7079 C   0  0  0  0  0  0  0  0  0  0  0  0
    2.5484   -0.8761    2.2569 Cl  0  0  0  0  0  0  0  0  0  0  0  0
   -1.9265    1.1808    0.0493 C   0  0  0  0  0  0  0  0  0  0  0  0
   -1.2216    2.4979    0.1128 C   0  0  0  0  0  0  0  0  0  0  0  0
   -2.1615    3.6406    0.2792 C   0  0  0  0  0  0  0  0  0  0  0  0
   -0.0946    2.4809    1.1044 C   0  0  0  0  0  0  0  0  0  0  0  0
   -3.3211    1.1132    0.1433 C   0  0  0  0  0  0  0  0  0  0  0  0
   -3.9622   -0.1070    0.0836 C   0  0  0  0  0  0  0  0  0  0  0  0
   -5.3550   -0.2061    0.1748 O   0  0  0  0  0  0  0  0  0  0  0  0
  1  2  1  0
  2  3  2  0
  3  4  1  0
  4  5  1  0
  5  6  1  0
  6  7  2  0
  6  8  1  0
  8  9  2  0
  9 10  1  0
 10 11  2  0
 11 12  1  0
 12 13  2  0
 13 14  1  0
  4 15  2  0
 15 16  1  0
 16 17  1  0
 16 18  1  0
 15 19  1  0
 19 20  2  0
 20 21  1  0
 20  2  1  0
 13  8  1  0
M  END
>  <zinc_id>  (1) 
ZINC000000092370

>  <smiles>  (1) 
Cc1cc(NC(=O)c2ccccc2Cl)c(C(C)C)cc1O

$$$$
