
     RDKit          3D

 20 23  0  0  0  0  0  0  0  0999 V2000
   -1.9099    0.7824    0.8774 C   0  0  0  0  0  0  0  0  0  0  0  0
   -2.3342    0.4765   -0.5255 C   0  0  1  0  0  0  0  0  0  0  0  0
   -1.7192    1.2900   -1.5794 C   0  0  0  0  0  0  0  0  0  0  0  0
   -0.3354    0.8038   -1.9582 C   0  0  0  0  0  0  0  0  0  0  0  0
    0.2309   -0.0381   -0.8509 C   0  0  0  0  0  0  0  0  0  0  0  0
   -0.5075   -0.9913   -0.2269 C   0  0  0  0  0  0  0  0  0  0  0  0
   -0.0418   -1.7657    0.7646 C   0  0  0  0  0  0  0  0  0  0  0  0
    1.2886   -1.5533    1.1558 C   0  0  0  0  0  0  0  0  0  0  0  0
    2.0480   -0.5865    0.5277 C   0  0  0  0  0  0  0  0  0  0  0  0
    3.3727   -0.3657    0.9079 C   0  0  0  0  0  0  0  0  0  0  0  0
    4.1012    0.6178    0.2489 C   0  0  0  0  0  0  0  0  0  0  0  0
    5.4655    0.8662    0.6192 N   0  0  0  0  0  0  0  0  0  0  0  0
    3.5817    1.3883   -0.7633 C   0  0  0  0  0  0  0  0  0  0  0  0
    2.2578    1.1710   -1.1465 C   0  0  0  0  0  0  0  0  0  0  0  0
    1.5546    0.2003   -0.4889 C   0  0  0  0  0  0  0  0  0  0  0  0
   -1.9560   -1.0878   -0.7902 C   0  0  1  0  0  0  0  0  0  0  0  0
   -2.6935   -1.5196    0.5961 C   0  0  0  0  0  0  0  0  0  0  0  0
   -4.0669   -0.9317    0.2326 C   0  0  0  0  0  0  0  0  0  0  0  0
   -3.7756    0.2748   -0.5843 C   0  0  0  0  0  0  0  0  0  0  0  0
   -4.5610    0.9686   -1.1877 O   0  0  0  0  0  0  0  0  0  0  0  0
  2  1  1  1
  2  3  1  0
  3  4  1  0
  4  5  1  0
  5  6  2  0
  6  7  1  0
  7  8  2  0
  8  9  1  0
  9 10  2  0
 10 11  1  0
 11 12  1  0
 11 13  2  0
 13 14  1  0
 14 15  2  0
  6 16  1  0
 16 17  1  1
 17 18  1  0
 18 19  1  0
 19 20  2  0
 16  2  1  0
 19  2  1  0
 15  5  1  0
 15  9  1  0
M  END
>  <zinc_id>  (1) 
ZINC000003652769

>  <smiles>  (1) 
C[C@@]12CCc3c(ccc4cc(N)ccc34)[C@H]1CCC2=O

$$$$
