
     RDKit          3D

 20 21  0  0  0  0  0  0  0  0999 V2000
    4.7444    1.2565   -0.6003 C   0  0  0  0  0  0  0  0  0  0  0  0
    3.5269    0.5803   -0.0093 C   0  0  0  0  0  0  0  0  0  0  0  0
    3.6831    0.5564    1.5092 C   0  0  0  0  0  0  0  0  0  0  0  0
    3.4942   -0.8306   -0.5694 C   0  0  0  0  0  0  0  0  0  0  0  0
    2.2502   -1.4996   -0.1449 C   0  0  0  0  0  0  0  0  0  0  0  0
    2.2603   -2.7587    0.0138 O   0  0  0  0  0  0  0  0  0  0  0  0
    1.0684   -0.6827    0.0723 C   0  0  0  0  0  0  0  0  0  0  0  0
   -0.4569   -1.5015    0.5013 S   0  0  0  0  0  0  0  0  0  0  0  0
   -1.7833   -0.3270    0.7249 C   0  0  0  0  0  0  0  0  0  0  0  0
   -2.0601    0.2468    1.9505 C   0  0  0  0  0  0  0  0  0  0  0  0
   -3.0803    1.1553    2.1413 C   0  0  0  0  0  0  0  0  0  0  0  0
   -3.8511    1.5009    1.0626 C   0  0  0  0  0  0  0  0  0  0  0  0
   -3.6319    0.9718   -0.1756 C   0  0  0  0  0  0  0  0  0  0  0  0
   -2.6026    0.0650   -0.3330 C   0  0  0  0  0  0  0  0  0  0  0  0
   -2.3560   -0.4967   -1.6058 N   0  0  0  0  0  4  0  0  0  0  0  0
   -2.6678    0.1448   -2.6214 O   0  0  0  0  0  0  0  0  0  0  0  0
   -1.7714   -1.7514   -1.6954 O   0  0  0  0  0  1  0  0  0  0  0  0
    1.0537    0.6360   -0.0290 C   0  0  0  0  0  0  0  0  0  0  0  0
   -0.1048    1.3846    0.1880 O   0  0  0  0  0  0  0  0  0  0  0  0
    2.2850    1.3498   -0.3797 C   0  0  0  0  0  0  0  0  0  0  0  0
  1  2  1  0
  2  3  1  0
  2  4  1  0
  4  5  1  0
  5  6  2  0
  5  7  1  0
  7  8  1  0
  8  9  1  0
  9 10  2  0
 10 11  1  0
 11 12  2  0
 12 13  1  0
 13 14  2  0
 14 15  1  0
 15 16  2  0
 15 17  1  0
  7 18  2  0
 18 19  1  0
 18 20  1  0
 20  2  1  0
 14  9  1  0
M  CHG  2  15   1  17  -1
M  END
>  <zinc_id>  (1) 
ZINC000000344025

>  <smiles>  (1) 
CC1(C)CC(=O)C(Sc2ccccc2[N+](=O)[O-])=C(O)C1

$$$$
