
     RDKit          3D

 20 22  0  0  0  0  0  0  0  0999 V2000
    4.6489   -1.2961    1.5726 N   0  0  0  0  0  0  0  0  0  0  0  0
    4.3211   -0.4176    0.5405 N   0  0  0  0  0  0  0  0  0  0  0  0
    3.0040   -0.5905   -0.0744 C   0  0  0  0  0  0  0  0  0  0  0  0
    2.2958   -1.5109    0.3845 O   0  0  0  0  0  0  0  0  0  0  0  0
    2.5990    0.2864   -1.1507 C   0  0  0  0  0  0  0  0  0  0  0  0
    1.2980    0.1082   -1.7518 C   0  0  0  0  0  0  0  0  0  0  0  0
    0.1006    0.2199   -0.9843 N   0  0  0  0  0  0  0  0  0  0  0  0
   -0.6479   -0.7401   -0.4624 C   0  0  0  0  0  0  0  0  0  0  0  0
   -1.6854   -0.1291    0.2467 C   0  0  0  0  0  0  0  0  0  0  0  0
   -1.5552    1.2355    0.1448 C   0  0  0  0  0  0  0  0  0  0  0  0
   -2.2359    2.3320    0.6028 C   0  0  0  0  0  0  0  0  0  0  0  0
   -1.8248    3.6067    0.3080 C   0  0  0  0  0  0  0  0  0  0  0  0
   -0.7084    3.8178   -0.4619 C   0  0  0  0  0  0  0  0  0  0  0  0
   -0.0257    2.7147   -0.9212 C   0  0  0  0  0  0  0  0  0  0  0  0
   -0.4335    1.4362   -0.6287 C   0  0  0  0  0  0  0  0  0  0  0  0
   -2.7886   -0.7585    1.0123 C   0  0  0  0  0  0  0  0  0  0  0  0
   -3.0498   -2.1115    0.4168 C   0  0  0  0  0  0  0  0  0  0  0  0
   -2.1270   -3.1222    1.0741 C   0  0  0  0  0  0  0  0  0  0  0  0
   -0.6824   -2.8623    0.7386 C   0  0  0  0  0  0  0  0  0  0  0  0
   -0.5028   -2.2188   -0.6062 C   0  0  0  0  0  0  0  0  0  0  0  0
  1  2  1  0
  2  3  1  0
  3  4  2  0
  3  5  1  0
  5  6  1  0
  6  7  1  0
  7  8  1  0
  8  9  2  0
  9 10  1  0
 10 11  2  0
 11 12  1  0
 12 13  2  0
 13 14  1  0
 14 15  2  0
  9 16  1  0
 16 17  1  0
 17 18  1  0
 18 19  1  0
 19 20  1  0
 15  7  1  0
 20  8  1  0
 15 10  1  0
M  END
>  <zinc_id>  (1) 
ZINC000000184724

>  <smiles>  (1) 
NNC(=O)CCn1c2c(c3ccccc31)CCCCC2

$$$$
