
     RDKit          3D

 20 22  0  0  0  0  0  0  0  0999 V2000
   -4.3976    0.0231    2.9850 C   0  0  0  0  0  0  0  0  0  0  0  0
   -3.8233    1.2439    2.0088 C   0  0  1  0  0  0  0  0  0  0  0  0
   -2.2653    0.9171    2.3644 C   0  0  0  0  0  0  0  0  0  0  0  0
   -1.7554   -0.1984    1.5499 C   0  0  0  0  0  0  0  0  0  0  0  0
   -1.6176    0.4408    0.1764 C   0  0  0  0  0  0  0  0  0  0  0  0
   -2.8838    0.7259   -0.2756 C   0  0  0  0  0  0  0  0  0  0  0  0
   -2.5975    1.4355   -1.8073 S   0  0  0  0  0  0  0  0  0  0  0  0
   -0.8838    1.3436   -1.8165 C   0  0  0  0  0  0  0  0  0  0  0  0
   -0.0185    1.7880   -2.8572 N   0  0  0  0  0  0  0  0  0  0  0  0
   -0.5930    0.7633   -0.6260 C   0  0  0  0  0  0  0  0  0  0  0  0
    0.8127    0.4923   -0.2206 C   0  0  0  0  0  0  0  0  0  0  0  0
    1.7777    0.7930   -0.9699 O   0  0  0  0  0  0  0  0  0  0  0  0
    1.1551   -0.1103    1.0110 N   0  0  0  0  0  0  0  0  0  0  0  0
    2.5354   -0.3625    1.3795 C   0  0  0  0  0  0  0  0  0  0  0  0
    3.1901   -1.2708    0.3917 C   0  0  0  0  0  0  0  0  0  0  0  0
    3.2573   -2.6493    0.4002 C   0  0  0  0  0  0  0  0  0  0  0  0
    3.9710   -3.0239   -0.7294 C   0  0  0  0  0  0  0  0  0  0  0  0
    4.2961   -1.8497   -1.3592 C   0  0  0  0  0  0  0  0  0  0  0  0
    3.8187   -0.8470   -0.6680 O   0  0  0  0  0  0  0  0  0  0  0  0
   -3.9784    0.3454    0.6510 C   0  0  0  0  0  0  0  0  0  0  0  0
  2  1  1  1
  2  3  1  0
  3  4  1  0
  4  5  1  0
  5  6  2  0
  6  7  1  0
  7  8  1  0
  8  9  1  0
  8 10  2  0
 10 11  1  0
 11 12  2  0
 11 13  1  0
 13 14  1  0
 14 15  1  0
 15 16  2  0
 16 17  1  0
 17 18  2  0
 18 19  1  0
  6 20  1  0
 20  2  1  0
 10  5  1  0
 19 15  1  0
M  END
>  <zinc_id>  (1) 
ZINC000002558527

>  <smiles>  (1) 
C[C@H]1CCc2c(sc(N)c2C(=O)NCc2ccco2)C1

$$$$
