
     RDKit          3D

 17 17  0  0  0  0  0  0  0  0999 V2000
    3.5594   -2.3921    1.2636 C   0  0  0  0  0  0  0  0  0  0  0  0
    2.7955   -1.4603    0.5926 C   0  0  0  0  0  0  0  0  0  0  0  0
    3.4263   -0.9844   -0.6680 C   0  0  0  0  0  0  0  0  0  0  0  0
    3.6286    0.5065   -0.5640 C   0  0  0  0  0  0  0  0  0  0  0  0
    4.5196    0.8409    0.5935 C   0  0  0  0  0  0  0  0  0  0  0  0
    4.7890    2.2939    0.7425 C   0  0  0  0  0  0  0  0  0  0  0  0
    1.5997   -1.0536    0.9966 N   0  0  0  0  0  0  0  0  0  0  0  0
    0.3138   -0.8590    0.9431 N   0  0  0  0  0  0  0  0  0  0  0  0
   -0.5108   -0.3907   -0.0937 C   0  0  0  0  0  0  0  0  0  0  0  0
    0.0400   -0.1656   -1.2151 O   0  0  0  0  0  0  0  0  0  0  0  0
   -1.9373   -0.1164   -0.0728 C   0  0  0  0  0  0  0  0  0  0  0  0
   -2.8037   -0.8118   -0.8952 C   0  0  0  0  0  0  0  0  0  0  0  0
   -4.1562   -0.5246   -0.8964 C   0  0  0  0  0  0  0  0  0  0  0  0
   -4.6378    0.4910   -0.0432 C   0  0  0  0  0  0  0  0  0  0  0  0
   -3.7629    1.1800    0.7835 C   0  0  0  0  0  0  0  0  0  0  0  0
   -4.4379    2.5614    1.9239 Br  0  0  0  0  0  0  0  0  0  0  0  0
   -2.4253    0.8848    0.7688 C   0  0  0  0  0  0  0  0  0  0  0  0
  1  2  2  0
  2  3  1  0
  3  4  1  0
  4  5  1  0
  5  6  1  0
  2  7  1  0
  7  8  1  0
  8  9  1  0
  9 10  2  0
  9 11  1  0
 11 12  2  0
 12 13  1  0
 13 14  2  0
 14 15  1  0
 15 16  1  0
 15 17  2  0
 17 11  1  0
M  END
>  <zinc_id>  (1) 
ZINC000002811176

>  <smiles>  (1) 
C=C(CCCC)NNC(=O)c1cccc(Br)c1

$$$$
