
     RDKit          3D

 20 23  0  0  0  0  0  0  0  0999 V2000
    5.0776    2.4258   -0.2745 C   0  0  0  0  0  0  0  0  0  0  0  0
    4.1713    1.2452   -0.1751 C   0  0  0  0  0  0  0  0  0  0  0  0
    2.7820    1.3770   -0.0821 C   0  0  0  0  0  0  0  0  0  0  0  0
    2.2576    0.0786   -0.0144 C   0  0  0  0  0  0  0  0  0  0  0  0
    0.8262   -0.2173    0.0429 C   0  0  0  0  0  0  0  0  0  0  0  0
   -0.1391    0.7394   -0.0919 N   0  0  0  0  0  0  0  0  0  0  0  0
   -1.3698    0.1722    0.0012 C   0  0  0  0  0  0  0  0  0  0  0  0
   -2.6511    0.7442   -0.0693 C   0  0  0  0  0  0  0  0  0  0  0  0
   -2.9818    2.0331   -0.2400 C   0  0  0  0  0  0  0  0  0  0  0  0
   -4.2850    2.3808   -0.2652 C   0  0  0  0  0  0  0  0  0  0  0  0
   -5.0680    0.8827   -0.0441 S   0  0  0  0  0  0  0  0  0  0  0  0
   -3.6984   -0.1349    0.0699 C   0  0  0  0  0  0  0  0  0  0  0  0
   -3.4787   -1.5012    0.2663 C   0  0  0  0  0  0  0  0  0  0  0  0
   -2.2034   -2.0366    0.3291 C   0  0  0  0  0  0  0  0  0  0  0  0
   -1.1977   -1.1350    0.1900 N   0  0  0  0  0  0  0  0  0  0  0  0
    0.1481   -1.3867    0.2190 C   0  0  0  0  0  0  0  0  0  0  0  0
    0.6916   -2.6832    0.3844 N   0  0  0  0  0  0  0  0  0  0  0  0
    3.3376   -0.7276   -0.0658 C   0  0  0  0  0  0  0  0  0  0  0  0
    3.3080   -2.2292   -0.0180 C   0  0  0  0  0  0  0  0  0  0  0  0
    4.4727   -0.0274   -0.1625 O   0  0  0  0  0  0  0  0  0  0  0  0
  1  2  1  0
  2  3  2  0
  3  4  1  0
  4  5  1  0
  5  6  1  0
  6  7  2  0
  7  8  1  0
  8  9  1  0
  9 10  2  0
 10 11  1  0
 11 12  1  0
 12 13  1  0
 13 14  2  0
 14 15  1  0
 15 16  1  0
 16 17  1  0
  4 18  2  0
 18 19  1  0
 18 20  1  0
 20  2  1  0
 16  5  2  0
 15  7  1  0
 12  8  2  0
M  END
>  <zinc_id>  (1) 
ZINC000000021711

>  <smiles>  (1) 
Cc1cc(-c2nc3c4ccsc4ccn3c2N)c(C)o1

$$$$
