
     RDKit          3D

 21 25  0  0  0  0  0  0  0  0999 V2000
   -2.5941    0.4170   -1.8212 C   0  0  0  0  0  0  0  0  0  0  0  0
   -2.3676   -0.2826   -0.5120 C   0  0  1  0  0  0  0  0  0  0  0  0
   -1.8599   -1.6688   -0.6472 C   0  0  0  0  0  0  0  0  0  0  0  0
   -0.3724   -1.5350   -0.8802 C   0  0  0  0  0  0  0  0  0  0  0  0
    0.2694   -0.4429   -0.0839 C   0  0  0  0  0  0  0  0  0  0  0  0
   -0.3930    0.4750    0.6019 C   0  0  0  0  0  0  0  0  0  0  0  0
    0.2982    1.5173    1.3607 C   0  0  0  0  0  0  0  0  0  0  0  0
    1.7587    1.5031    1.3306 C   0  0  0  0  0  0  0  0  0  0  0  0
    2.4362    0.4727    0.5616 C   0  0  0  0  0  0  0  0  0  0  0  0
    3.8380    0.4716    0.5417 C   0  0  0  0  0  0  0  0  0  0  0  0
    4.5414   -0.4774   -0.1676 C   0  0  0  0  0  0  0  0  0  0  0  0
    5.9266   -0.4295   -0.1513 O   0  0  0  0  0  0  0  0  0  0  0  0
    3.8226   -1.4303   -0.8604 C   0  0  0  0  0  0  0  0  0  0  0  0
    2.4374   -1.4443   -0.8518 C   0  0  0  0  0  0  0  0  0  0  0  0
    1.7306   -0.4735   -0.1263 C   0  0  0  0  0  0  0  0  0  0  0  0
   -1.8336    0.3695    0.5458 C   0  0  2  0  0  0  0  0  0  0  0  0
   -2.5730    0.9840    1.8942 C   0  0  0  0  0  0  0  0  0  0  0  0
   -2.5787    1.8577    0.4555 C   0  0  2  0  0  0  0  0  0  0  0  0
   -4.0639    1.2598   -0.0738 C   0  0  0  0  0  0  0  0  0  0  0  0
   -3.8367   -0.3458    0.2393 C   0  0  1  0  0  0  0  0  0  0  0  0
   -4.5864   -0.7977   -1.0267 O   0  0  0  0  0  0  0  0  0  0  0  0
  2  1  1  6
  2  3  1  0
  3  4  1  0
  4  5  1  0
  5  6  2  0
  6  7  1  0
  7  8  1  0
  8  9  1  0
  9 10  2  0
 10 11  1  0
 11 12  1  0
 11 13  2  0
 13 14  1  0
 14 15  2  0
  6 16  1  0
 16 17  1  1
 18 17  1  1
 18 19  1  0
 19 20  1  0
 20 21  1  6
 16  2  1  0
 20  2  1  0
 15  5  1  0
 18 16  1  0
 15  9  1  0
M  END
>  <zinc_id>  (1) 
ZINC000000007254

>  <smiles>  (1) 
C[C@@]12CCC3=C(CCc4cc(O)ccc43)[C@]13C[C@@H]3C[C@H]2O

$$$$
