
     RDKit          3D

 20 22  0  0  0  0  0  0  0  0999 V2000
    4.7052    2.1633   -0.6612 C   0  0  0  0  0  0  0  0  0  0  0  0
    5.1441    0.7146   -0.6611 C   0  0  0  0  0  0  0  0  0  0  0  0
    3.9095   -0.1271   -0.4506 C   0  0  0  0  0  0  0  0  0  0  0  0
    2.6291    0.2974   -0.2878 C   0  0  0  0  0  0  0  0  0  0  0  0
    1.6663   -0.6180   -0.1126 C   0  0  0  0  0  0  0  0  0  0  0  0
    0.2940   -0.3766    0.0710 C   0  0  0  0  0  0  0  0  0  0  0  0
   -0.2121    0.9583    0.0853 N   0  0  0  0  0  0  0  0  0  0  0  0
   -1.5810    1.2442    0.2666 C   0  0  0  0  0  0  0  0  0  0  0  0
   -2.5356    0.2571    0.4438 C   0  0  0  0  0  0  0  0  0  0  0  0
   -3.8687    0.5895    0.6180 C   0  0  0  0  0  0  0  0  0  0  0  0
   -4.3051    1.8980    0.6237 C   0  0  0  0  0  0  0  0  0  0  0  0
   -5.6411    2.2398    0.7979 O   0  0  0  0  0  0  0  0  0  0  0  0
   -3.3575    2.8870    0.4474 C   0  0  0  0  0  0  0  0  0  0  0  0
   -2.0272    2.5494    0.2738 C   0  0  0  0  0  0  0  0  0  0  0  0
   -0.5155   -1.4230    0.2303 N   0  0  0  0  0  0  0  0  0  0  0  0
   -0.1578   -2.7049    0.2347 C   0  0  0  0  0  0  0  0  0  0  0  0
   -1.0982   -3.8401    0.4163 C   0  0  0  0  0  0  0  0  0  0  0  0
    1.1588   -2.9573    0.0595 N   0  0  0  0  0  0  0  0  0  0  0  0
    2.0501   -1.9312   -0.1105 C   0  0  0  0  0  0  0  0  0  0  0  0
    3.7426   -1.8203   -0.3544 S   0  0  0  0  0  0  0  0  0  0  0  0
  1  2  1  0
  2  3  1  0
  3  4  2  0
  4  5  1  0
  5  6  2  0
  6  7  1  0
  7  8  1  0
  8  9  2  0
  9 10  1  0
 10 11  2  0
 11 12  1  0
 11 13  1  0
 13 14  2  0
  6 15  1  0
 15 16  2  0
 16 17  1  0
 16 18  1  0
 18 19  2  0
 19 20  1  0
 20  3  1  0
 19  5  1  0
 14  8  1  0
M  END
>  <zinc_id>  (1) 
ZINC000004413327

>  <smiles>  (1) 
CCc1cc2c(Nc3ccc(O)cc3)nc(C)nc2s1

$$$$
