
     RDKit          3D

 21 22  0  0  0  0  0  0  0  0999 V2000
   -1.5850    3.3937    2.0449 C   0  0  0  0  0  0  0  0  0  0  0  0
   -2.8211    2.5482    1.9027 C   0  0  0  0  0  0  0  0  0  0  0  0
   -2.5035    1.2320    1.4543 O   0  0  0  0  0  0  0  0  0  0  0  0
   -1.8751    1.0278    0.2556 C   0  0  0  0  0  0  0  0  0  0  0  0
   -1.5782    2.0044   -0.4501 O   0  0  0  0  0  0  0  0  0  0  0  0
   -1.5454   -0.3734   -0.2055 C   0  0  0  0  0  0  0  0  0  0  0  0
   -1.8519   -1.3689    0.5179 C   0  0  0  0  0  0  0  0  0  0  0  0
   -2.5488   -1.0329    1.8338 C   0  0  0  0  0  0  0  0  0  0  0  0
   -1.6025   -2.7092    0.1680 N   0  0  0  0  0  0  0  0  0  0  0  0
   -0.9658   -2.9019   -1.0886 C   0  0  0  0  0  0  0  0  0  0  0  0
   -0.6854   -4.0778   -1.5170 O   0  0  0  0  0  0  0  0  0  0  0  0
   -0.6296   -1.8461   -1.8844 N   0  0  0  0  0  0  0  0  0  0  0  0
   -0.8112   -0.3766   -1.5980 C   0  0  2  0  0  0  0  0  0  0  0  0
    0.6487   -0.0193   -1.1799 C   0  0  0  0  0  0  0  0  0  0  0  0
    0.8489    0.7560   -0.0850 C   0  0  0  0  0  0  0  0  0  0  0  0
    2.1647    1.0925    0.3124 C   0  0  0  0  0  0  0  0  0  0  0  0
    3.2219    0.6224   -0.4259 C   0  0  0  0  0  0  0  0  0  0  0  0
    4.5414    0.9305   -0.0692 O   0  0  0  0  0  0  0  0  0  0  0  0
    4.8513    1.7271    1.0491 C   0  0  0  0  0  0  0  0  0  0  0  0
    3.0218   -0.1538   -1.5221 C   0  0  0  0  0  0  0  0  0  0  0  0
    1.7047   -0.4746   -1.8972 C   0  0  0  0  0  0  0  0  0  0  0  0
  1  2  1  0
  2  3  1  0
  3  4  1  0
  4  5  2  0
  4  6  1  0
  6  7  2  0
  7  8  1  0
  7  9  1  0
  9 10  1  0
 10 11  2  0
 10 12  1  0
 12 13  1  0
 13 14  1  1
 14 15  2  0
 15 16  1  0
 16 17  2  0
 17 18  1  0
 18 19  1  0
 17 20  1  0
 20 21  2  0
 13  6  1  0
 21 14  1  0
M  END
>  <zinc_id>  (1) 
ZINC000000501132

>  <smiles>  (1) 
CCOC(=O)C1=C(C)NC(=O)N[C@@H]1c1ccc(OC)cc1

$$$$
