
     RDKit          3D

 21 22  0  0  0  0  0  0  0  0999 V2000
   -4.0019   -1.2703    1.3746 C   0  0  0  0  0  0  0  0  0  0  0  0
   -2.6730   -0.8147    1.1854 O   0  0  0  0  0  0  0  0  0  0  0  0
   -1.6314   -1.6542    0.8159 C   0  0  0  0  0  0  0  0  0  0  0  0
   -1.8838   -2.8502    0.6467 O   0  0  0  0  0  0  0  0  0  0  0  0
   -0.2583   -1.1775    0.6216 C   0  0  0  0  0  0  0  0  0  0  0  0
    0.6317   -2.0580    0.2757 C   0  0  0  0  0  0  0  0  0  0  0  0
    0.2997   -3.4360    0.0918 N   0  0  0  0  0  0  0  0  0  0  0  0
    1.9540   -1.7078    0.0627 O   0  0  0  0  0  0  0  0  0  0  0  0
    2.2835   -0.3853    0.2319 C   0  0  0  0  0  0  0  0  0  0  0  0
    3.7309    0.0371    0.0036 C   0  0  0  0  0  0  0  0  0  0  0  0
    1.4691    0.5418    0.5705 C   0  0  0  0  0  0  0  0  0  0  0  0
    1.9423    1.9438    0.7207 C   0  0  0  0  0  0  0  0  0  0  0  0
    3.3589    2.2213    0.4695 C   0  0  0  0  0  0  0  0  0  0  0  0
    1.2002    2.8910    1.0475 O   0  0  0  0  0  0  0  0  0  0  0  0
   -0.0154    0.2846    0.8675 C   0  0  1  0  0  0  0  0  0  0  0  0
   -0.7399    0.9093   -0.3761 C   0  0  0  0  0  0  0  0  0  0  0  0
   -2.1540    1.9015   -0.2643 S   0  0  0  0  0  0  0  0  0  0  0  0
   -2.3512    2.1868   -1.9529 C   0  0  0  0  0  0  0  0  0  0  0  0
   -1.3303    1.5090   -2.4789 C   0  0  0  0  0  0  0  0  0  0  0  0
   -0.4913    0.8449   -1.6706 C   0  0  0  0  0  0  0  0  0  0  0  0
    0.6603    0.0828   -2.2427 C   0  0  0  0  0  0  0  0  0  0  0  0
  1  2  1  0
  2  3  1  0
  3  4  2  0
  3  5  1  0
  5  6  2  0
  6  7  1  0
  6  8  1  0
  8  9  1  0
  9 10  1  0
  9 11  2  0
 11 12  1  0
 12 13  1  0
 12 14  2  0
 11 15  1  0
 15 16  1  6
 16 17  1  0
 17 18  1  0
 18 19  2  0
 19 20  1  0
 20 21  1  0
 15  5  1  0
 20 16  2  0
M  END
>  <zinc_id>  (1) 
ZINC000000510907

>  <smiles>  (1) 
COC(=O)C1=C(N)OC(C)=C(C(C)=O)[C@H]1c1sccc1C

$$$$
