
     RDKit          3D

 20 23  0  0  0  0  0  0  0  0999 V2000
    4.8648   -0.5808   -0.3869 C   0  0  0  0  0  0  0  0  0  0  0  0
    4.5148   -0.2536    0.8998 C   0  0  0  0  0  0  0  0  0  0  0  0
    3.2823    0.1403    1.2326 N   0  0  0  0  0  0  0  0  0  0  0  0
    2.3518    0.2181    0.2688 C   0  0  0  0  0  0  0  0  0  0  0  0
    2.6441   -0.0967   -1.0351 C   0  0  0  0  0  0  0  0  0  0  0  0
    1.5870    0.0010   -2.0790 C   0  0  0  0  0  0  0  0  0  0  0  0
    0.3500    0.3230   -1.4577 N   0  0  0  0  0  0  0  0  0  0  0  0
   -0.2776   -0.5295   -0.4897 C   0  0  0  0  0  0  0  0  0  0  0  0
    0.3472   -1.6711   -0.1843 N   0  0  0  0  0  0  0  0  0  0  0  0
   -0.1176   -2.5581    0.6914 C   0  0  0  0  0  0  0  0  0  0  0  0
   -1.2882   -2.2768    1.2991 N   0  0  0  0  0  0  0  0  0  0  0  0
   -1.9523   -1.1156    1.0076 C   0  0  0  0  0  0  0  0  0  0  0  0
   -3.4208   -0.4409    1.5659 S   0  0  0  0  0  0  0  0  0  0  0  0
   -3.4326    0.9955    0.6618 C   0  0  0  0  0  0  0  0  0  0  0  0
   -2.2849    0.9178   -0.0602 C   0  0  0  0  0  0  0  0  0  0  0  0
   -1.5031   -0.1838    0.1139 C   0  0  0  0  0  0  0  0  0  0  0  0
   -2.2540    2.1952   -0.8925 C   0  0  0  0  0  0  0  0  0  0  0  0
   -3.1276    3.1653   -0.1654 C   0  0  0  0  0  0  0  0  0  0  0  0
   -4.1995    2.2525    0.3802 C   0  0  0  0  0  0  0  0  0  0  0  0
    3.9163   -0.5017   -1.3703 C   0  0  0  0  0  0  0  0  0  0  0  0
  1  2  2  0
  2  3  1  0
  3  4  2  0
  4  5  1  0
  5  6  1  0
  6  7  1  0
  7  8  1  0
  8  9  2  0
  9 10  1  0
 10 11  2  0
 11 12  1  0
 12 13  1  0
 13 14  1  0
 14 15  2  0
 15 16  1  0
 15 17  1  0
 17 18  1  0
 18 19  1  0
  5 20  2  0
 20  1  1  0
 16  8  1  0
 16 12  2  0
 19 14  1  0
M  END
>  <zinc_id>  (1) 
ZINC000001016455

>  <smiles>  (1) 
c1cncc(CNc2ncnc3sc4c(c23)CCC4)c1

$$$$
