
     RDKit          3D

 18 20  0  0  0  0  0  0  0  0999 V2000
   -5.8749   -1.5110    0.6398 C   0  0  0  0  0  0  0  0  0  0  0  0
   -4.9772   -0.8001   -0.5280 C   0  0  2  0  0  0  0  0  0  0  0  0
   -3.5838   -1.0930    0.2338 C   0  0  0  0  0  0  0  0  0  0  0  0
   -2.6251   -0.2747   -0.1208 C   0  0  0  0  0  0  0  0  0  0  0  0
   -1.3619   -0.3430    0.3947 N   0  0  0  0  0  0  0  0  0  0  0  0
   -0.2801   -1.1419    0.1817 N   0  0  0  0  0  0  0  0  0  0  0  0
    1.0483   -0.6473    0.2634 C   0  0  0  0  0  0  0  0  0  0  0  0
    1.8625   -0.4076   -0.7196 N   0  0  0  0  0  0  0  0  0  0  0  0
    3.0618    0.0613   -0.4706 C   0  0  0  0  0  0  0  0  0  0  0  0
    4.0284    0.3601   -1.4459 C   0  0  0  0  0  0  0  0  0  0  0  0
    5.2405    0.8429   -1.0659 C   0  0  0  0  0  0  0  0  0  0  0  0
    5.6284    1.0795    0.2675 C   0  0  0  0  0  0  0  0  0  0  0  0
    4.6604    0.7762    1.2007 C   0  0  0  0  0  0  0  0  0  0  0  0
    3.4275    0.2858    0.8179 C   0  0  0  0  0  0  0  0  0  0  0  0
    1.9656   -0.2101    1.6338 S   0  0  0  0  0  0  0  0  0  0  0  0
   -2.9794    0.7589   -1.1353 C   0  0  0  0  0  0  0  0  0  0  0  0
   -4.1085    1.5652   -0.5336 C   0  0  0  0  0  0  0  0  0  0  0  0
   -5.1326    0.6987    0.1603 C   0  0  0  0  0  0  0  0  0  0  0  0
  2  1  1  1
  2  3  1  0
  3  4  2  0
  4  5  1  0
  5  6  1  0
  6  7  1  0
  7  8  2  0
  8  9  1  0
  9 10  2  0
 10 11  1  0
 11 12  2  0
 12 13  1  0
 13 14  2  0
 14 15  1  0
  4 16  1  0
 16 17  1  0
 17 18  1  0
 18  2  1  0
 15  7  1  0
 14  9  1  0
M  END
>  <zinc_id>  (1) 
ZINC000003233620

>  <smiles>  (1) 
C[C@@H]1C=C(NNc2nc3ccccc3s2)CCC1

$$$$
