
     RDKit          3D

 21 23  0  0  0  0  0  0  0  0999 V2000
    4.2715    2.7827   -0.2708 C   0  0  0  0  0  0  0  0  0  0  0  0
    3.2517    1.6840   -0.2058 C   0  0  0  0  0  0  0  0  0  0  0  0
    2.3914    1.5642    0.8633 C   0  0  0  0  0  0  0  0  0  0  0  0
    1.4836    0.5401    0.8632 C   0  0  0  0  0  0  0  0  0  0  0  0
    1.3779   -0.3815   -0.1453 C   0  0  0  0  0  0  0  0  0  0  0  0
    0.3775   -1.4921   -0.1229 C   0  0  0  0  0  0  0  0  0  0  0  0
    0.8476   -2.7822   -0.2680 C   0  0  0  0  0  0  0  0  0  0  0  0
   -0.5448   -3.7315   -0.1493 S   0  0  0  0  0  0  0  0  0  0  0  0
   -1.7016   -2.4851    0.0811 C   0  0  0  0  0  0  0  0  0  0  0  0
   -3.0640   -2.4923    0.2505 N   0  0  0  0  0  0  0  0  0  0  0  0
   -3.7476   -1.3456    0.4053 C   0  0  0  0  0  0  0  0  0  0  0  0
   -3.0229   -0.2303    0.3823 N   0  0  0  0  0  0  0  0  0  0  0  0
   -1.6928   -0.1511    0.2214 C   0  0  0  0  0  0  0  0  0  0  0  0
   -1.0445    1.1083    0.2080 N   0  0  0  0  0  0  0  0  0  0  0  0
   -1.5990    2.3936    0.3438 C   0  0  0  0  0  0  0  0  0  0  0  0
   -2.5408    2.8679   -0.6999 C   0  0  0  0  0  0  0  0  0  0  0  0
   -3.6414    2.0395   -0.7841 O   0  0  0  0  0  0  0  0  0  0  0  0
   -0.9465   -1.3425    0.0574 C   0  0  0  0  0  0  0  0  0  0  0  0
    2.2505   -0.2435   -1.2091 C   0  0  0  0  0  0  0  0  0  0  0  0
    3.1862    0.7856   -1.2422 C   0  0  0  0  0  0  0  0  0  0  0  0
    4.1083    0.9117   -2.3912 C   0  0  0  0  0  0  0  0  0  0  0  0
  1  2  1  0
  2  3  2  0
  3  4  1  0
  4  5  2  0
  5  6  1  0
  6  7  2  0
  7  8  1  0
  8  9  1  0
  9 10  2  0
 10 11  1  0
 11 12  2  0
 12 13  1  0
 13 14  1  0
 14 15  1  0
 15 16  1  0
 16 17  1  0
 13 18  2  0
  5 19  1  0
 19 20  2  0
 20 21  1  0
 20  2  1  0
 18  6  1  0
 18  9  1  0
M  END
>  <zinc_id>  (1) 
ZINC000002889052

>  <smiles>  (1) 
Cc1ccc(-c2csc3ncnc(NCCO)c23)cc1C

$$$$
