
     RDKit          3D

 22 24  0  0  0  0  0  0  0  0999 V2000
   -4.6904   -3.5439   -1.5281 C   0  0  0  0  0  0  0  0  0  0  0  0
   -3.7139   -2.4466   -1.2122 C   0  0  0  0  0  0  0  0  0  0  0  0
   -4.0390   -1.1182   -1.3729 C   0  0  0  0  0  0  0  0  0  0  0  0
   -3.1244   -0.1206   -1.0760 C   0  0  0  0  0  0  0  0  0  0  0  0
   -1.9100   -0.4555   -0.6274 N   0  0  0  0  0  0  0  0  0  0  0  0
   -0.8112    0.3220   -0.2570 C   0  0  0  0  0  0  0  0  0  0  0  0
   -0.8756    1.6838   -0.3645 N   0  0  0  0  0  0  0  0  0  0  0  0
   -0.1445    2.8103   -0.1262 C   0  0  0  0  0  0  0  0  0  0  0  0
    0.0927    3.1954    1.3382 C   0  0  0  0  0  0  0  0  0  0  0  0
    1.2497    2.7525   -0.7896 C   0  0  0  0  0  0  0  0  0  0  0  0
   -0.8073    4.0851   -0.7261 C   0  0  0  0  0  0  0  0  0  0  0  0
    0.1770   -0.5296    0.1280 C   0  0  0  0  0  0  0  0  0  0  0  0
    1.5488   -0.2668    0.5797 C   0  0  0  0  0  0  0  0  0  0  0  0
    2.6249   -0.9087   -0.0564 C   0  0  0  0  0  0  0  0  0  0  0  0
    3.9262   -0.7349    0.3613 C   0  0  0  0  0  0  0  0  0  0  0  0
    4.2342    0.0812    1.4285 C   0  0  0  0  0  0  0  0  0  0  0  0
    5.5520    0.2476    1.8397 O   0  0  0  0  0  0  0  0  0  0  0  0
    3.1805    0.7131    2.0557 C   0  0  0  0  0  0  0  0  0  0  0  0
    1.8808    0.5314    1.6283 C   0  0  0  0  0  0  0  0  0  0  0  0
   -0.3164   -1.8070   -0.0084 N   0  0  0  0  0  0  0  0  0  0  0  0
   -1.5694   -1.7223   -0.4632 C   0  0  0  0  0  0  0  0  0  0  0  0
   -2.4648   -2.7684   -0.7516 C   0  0  0  0  0  0  0  0  0  0  0  0
  1  2  1  0
  2  3  1  0
  3  4  2  0
  4  5  1  0
  5  6  1  0
  6  7  1  0
  7  8  1  0
  8  9  1  0
  8 10  1  0
  8 11  1  0
  6 12  2  0
 12 13  1  0
 13 14  2  0
 14 15  1  0
 15 16  2  0
 16 17  1  0
 16 18  1  0
 18 19  2  0
 12 20  1  0
 20 21  2  0
 21 22  1  0
 22  2  2  0
 21  5  1  0
 19 13  1  0
M  END
>  <zinc_id>  (1) 
ZINC000000416283

>  <smiles>  (1) 
Cc1ccn2c(NC(C)(C)C)c(-c3ccc(O)cc3)nc2c1

$$$$
