
     RDKit          3D

 21 22  0  0  0  0  0  0  0  0999 V2000
    1.2090    0.4236    2.3162 C   0  0  0  0  0  0  0  0  0  0  0  0
    0.2565    1.1289    1.3480 C   0  0  0  0  0  0  0  0  0  0  0  0
    0.3519    0.8223    0.1222 C   0  0  0  0  0  0  0  0  0  0  0  0
    1.3837   -0.1946   -0.3001 C   0  0  0  0  0  0  0  0  0  0  0  0
    1.4718   -0.4803   -1.5049 O   0  0  0  0  0  0  0  0  0  0  0  0
    2.2020   -0.7846    0.6364 O   0  0  0  0  0  0  0  0  0  0  0  0
    3.1658   -1.7364    0.2301 C   0  0  0  0  0  0  0  0  0  0  0  0
    4.1139   -1.0856   -0.7388 C   0  0  0  0  0  0  0  0  0  0  0  0
    3.9187   -2.2484    1.4564 C   0  0  0  0  0  0  0  0  0  0  0  0
    2.4671   -2.8611   -0.4916 C   0  0  0  0  0  0  0  0  0  0  0  0
   -0.4572    1.2750   -1.1032 C   0  0  1  0  0  0  0  0  0  0  0  0
   -1.5296    0.1333   -1.1291 C   0  0  0  0  0  0  0  0  0  0  0  0
   -2.8295    0.3634   -1.3689 C   0  0  0  0  0  0  0  0  0  0  0  0
   -3.7063   -0.7000   -1.3751 C   0  0  0  0  0  0  0  0  0  0  0  0
   -3.2988   -1.9846   -1.1452 C   0  0  0  0  0  0  0  0  0  0  0  0
   -1.9699   -2.2227   -0.8996 C   0  0  0  0  0  0  0  0  0  0  0  0
   -1.0953   -1.1488   -0.8951 C   0  0  0  0  0  0  0  0  0  0  0  0
   -1.5038    2.6603   -0.4021 S   0  0  0  0  0  0  0  0  0  0  0  0
   -1.3787    2.8064    1.3156 C   0  0  0  0  0  0  0  0  0  0  0  0
   -2.2133    3.7670    1.9720 N   0  0  0  0  0  0  0  0  0  0  0  0
   -0.5579    2.0668    1.9568 N   0  0  0  0  0  0  0  0  0  0  0  0
  1  2  1  0
  2  3  2  0
  3  4  1  0
  4  5  2  0
  4  6  1  0
  6  7  1  0
  7  8  1  0
  7  9  1  0
  7 10  1  0
  3 11  1  0
 11 12  1  1
 12 13  2  0
 13 14  1  0
 14 15  2  0
 15 16  1  0
 16 17  2  0
 11 18  1  0
 18 19  1  0
 19 20  1  0
 19 21  2  0
 21  2  1  0
 17 12  1  0
M  END
>  <zinc_id>  (1) 
ZINC000001410002

>  <smiles>  (1) 
CC1=C(C(=O)OC(C)(C)C)[C@@H](c2ccccc2)SC(N)=N1

$$$$
