
     RDKit          3D

 23 25  0  0  0  0  0  0  0  0999 V2000
    3.1281    2.2764    0.2623 C   0  0  0  0  0  0  0  0  0  0  0  0
    3.5813    1.3617   -0.8943 C   0  0  0  0  0  0  0  0  0  0  0  0
    4.1711    0.1613   -0.2908 N   0  0  0  0  0  0  0  0  0  0  0  0
    5.4568    0.0820    0.1054 N   0  0  0  0  0  0  0  0  0  0  0  0
    5.6640   -1.1140    0.6472 C   0  0  0  0  0  0  0  0  0  0  0  0
    4.4715   -1.7761    0.5762 C   0  0  0  0  0  0  0  0  0  0  0  0
    3.4999   -0.9508   -0.0336 C   0  0  0  0  0  0  0  0  0  0  0  0
    2.1705   -1.4168   -0.2717 C   0  0  0  0  0  0  0  0  0  0  0  0
    1.8659   -2.6005    0.2021 O   0  0  0  0  0  0  0  0  0  0  0  0
    1.1032   -0.8193   -0.9429 N   0  0  0  0  0  0  0  0  0  0  0  0
    1.0669    0.4611   -1.5979 C   0  0  0  0  0  0  0  0  0  0  0  0
    0.0864    1.3750   -0.9278 C   0  0  0  0  0  0  0  0  0  0  0  0
   -1.0576    0.6182   -0.4711 N   0  0  0  0  0  0  0  0  0  0  0  0
   -2.2354    1.4488   -0.3211 C   0  0  0  0  0  0  0  0  0  0  0  0
   -3.3861    0.6606    0.1437 C   0  0  0  0  0  0  0  0  0  0  0  0
   -3.2358   -0.7054    0.3753 C   0  0  0  0  0  0  0  0  0  0  0  0
   -4.3281   -1.4206    0.8099 C   0  0  0  0  0  0  0  0  0  0  0  0
   -5.5466   -0.7953    1.0116 C   0  0  0  0  0  0  0  0  0  0  0  0
   -5.6583    0.5364    0.7765 C   0  0  0  0  0  0  0  0  0  0  0  0
   -4.5974    1.2900    0.3426 C   0  0  0  0  0  0  0  0  0  0  0  0
   -4.7460    3.3438   -0.0262 I   0  0  0  0  0  0  0  0  0  0  0  0
   -1.2731   -0.4838   -1.3625 C   0  0  0  0  0  0  0  0  0  0  0  0
   -0.2012   -1.5327   -1.0439 C   0  0  0  0  0  0  0  0  0  0  0  0
  1  2  1  0
  2  3  1  0
  3  4  1  0
  4  5  2  0
  5  6  1  0
  6  7  2  0
  7  8  1  0
  8  9  2  0
  8 10  1  0
 10 11  1  0
 11 12  1  0
 12 13  1  0
 13 14  1  0
 14 15  1  0
 15 16  2  0
 16 17  1  0
 17 18  2  0
 18 19  1  0
 19 20  2  0
 20 21  1  0
 13 22  1  0
 22 23  1  0
  7  3  1  0
 23 10  1  0
 20 15  1  0
M  END
>  <zinc_id>  (1) 
ZINC000000024487

>  <smiles>  (1) 
CCn1nccc1C(=O)N1CCN(Cc2ccccc2I)CC1

$$$$
