
     RDKit          3D

 19 20  0  0  0  0  0  0  0  0999 V2000
    5.7800   -0.5639    0.5158 C   0  0  0  0  0  0  0  0  0  0  0  0
    4.5429   -0.2808    1.3597 C   0  0  0  0  0  0  0  0  0  0  0  0
    3.6385    0.4512    0.5199 O   0  0  0  0  0  0  0  0  0  0  0  0
    3.2204   -0.1679   -0.6391 C   0  0  0  0  0  0  0  0  0  0  0  0
    3.6388   -1.3347   -0.9094 O   0  0  0  0  0  0  0  0  0  0  0  0
    2.2957    0.5568   -1.5331 C   0  0  0  0  0  0  0  0  0  0  0  0
    0.9503    0.1337   -1.2643 N   0  0  0  0  0  0  0  0  0  0  0  0
    0.2540   -0.8428   -1.8343 N   0  0  0  0  0  0  0  0  0  0  0  0
   -0.9810   -0.9201   -1.3284 C   0  0  0  0  0  0  0  0  0  0  0  0
   -1.9826   -1.9165   -1.7825 C   0  0  0  0  0  0  0  0  0  0  0  0
   -1.0982    0.0662   -0.3670 C   0  0  0  0  0  0  0  0  0  0  0  0
   -2.2868    0.3331    0.4210 C   0  0  0  0  0  0  0  0  0  0  0  0
   -2.6417   -0.4217    1.5216 C   0  0  0  0  0  0  0  0  0  0  0  0
   -3.7737   -0.1640    2.2607 C   0  0  0  0  0  0  0  0  0  0  0  0
   -4.6331    0.8787    1.9423 C   0  0  0  0  0  0  0  0  0  0  0  0
   -4.2880    1.6461    0.8380 C   0  0  0  0  0  0  0  0  0  0  0  0
   -3.1556    1.3822    0.1053 C   0  0  0  0  0  0  0  0  0  0  0  0
    0.1234    0.7049   -0.3520 C   0  0  0  0  0  0  0  0  0  0  0  0
    0.3968    1.7890    0.5260 N   0  0  0  0  0  0  0  0  0  0  0  0
  1  2  1  0
  2  3  1  0
  3  4  1  0
  4  5  2  0
  4  6  1  0
  6  7  1  0
  7  8  1  0
  8  9  2  0
  9 10  1  0
  9 11  1  0
 11 12  1  0
 12 13  2  0
 13 14  1  0
 14 15  2  0
 15 16  1  0
 16 17  2  0
 11 18  2  0
 18 19  1  0
 18  7  1  0
 17 12  1  0
M  END
>  <zinc_id>  (1) 
ZINC000000336612

>  <smiles>  (1) 
CCOC(=O)Cn1nc(C)c(-c2ccccc2)c1N

$$$$
